MODEL 1
REMARK VINA RESULT:    -8.178      0.000      0.000
REMARK INTER + INTRA:         -12.933
REMARK INTER:                 -11.758
REMARK INTRA:                  -1.175
REMARK CONF_INDEPENDENT:        3.580
REMARK UNBOUND:                -1.175
REMARK  12 active torsions:
REMARK  status: ('A' for Active; 'I' for Inactive)
REMARK    1  A    between atoms: C_2  and  O_3 
REMARK    2  A    between atoms: O_3  and  C_4 
REMARK    3  A    between atoms: C_7  and  C_8 
REMARK       I    between atoms: C_8  and  N_10 
REMARK    4  A    between atoms: N_10  and  C_11 
REMARK    5  A    between atoms: C_11  and  N_13 
REMARK    6  A    between atoms: N_13  and  C_14 
REMARK    7  A    between atoms: C_17  and  C_18 
REMARK       I    between atoms: C_18  and  N_20 
REMARK    8  A    between atoms: N_20  and  C_21 
REMARK    9  A    between atoms: C_21  and  C_22 
REMARK   10  A    between atoms: C_22  and  N_23 
REMARK   11  A    between atoms: N_23  and  C_24 
REMARK   12  A    between atoms: N_23  and  C_26 
ROOT
ATOM      1  C   UNL d   1      26.432 -15.683  -0.655  0.00  0.00     0.034 A 
ATOM      2  C   UNL d   1      26.156 -16.746   0.215  0.00  0.00     0.030 A 
ATOM      3  C   UNL d   1      25.109 -17.655  -0.083  0.00  0.00     0.019 A 
ATOM      4  C   UNL d   1      24.312 -17.478  -1.226  0.00  0.00     0.032 A 
ATOM      5  C   UNL d   1      24.609 -16.432  -2.089  0.00  0.00     0.019 A 
ATOM      6  C   UNL d   1      25.674 -15.586  -1.823  0.00  0.00     0.030 A 
ENDROOT
BRANCH   1   7
ATOM      7  N   UNL d   1      27.456 -14.704  -0.408  0.00  0.00    -0.333 N 
ATOM      8  H   UNL d   1      27.311 -13.804  -0.850  0.00  0.00     0.168 HD
BRANCH   7   9
ATOM      9  C   UNL d   1      28.721 -15.035   0.151  0.00  0.00     0.179 C 
ATOM     10  S   UNL d   1      30.034 -15.550  -0.791  0.00  0.00    -0.040 SA
BRANCH   9  11
ATOM     11  N   UNL d   1      28.808 -14.860   1.552  0.00  0.00    -0.299 N 
ATOM     12  C   UNL d   1      28.484 -13.659   2.236  0.00  0.00     0.257 C 
ATOM     13  O   UNL d   1      28.189 -12.606   1.683  0.00  0.00    -0.267 OA
ATOM     14  H   UNL d   1      29.084 -15.662   2.096  0.00  0.00     0.171 HD
BRANCH  12  15
ATOM     15  C   UNL d   1      28.506 -13.565   3.725  0.00  0.00     0.033 A 
ATOM     16  C   UNL d   1      28.459 -14.761   4.474  0.00  0.00     0.020 A 
ATOM     17  C   UNL d   1      28.486 -14.743   5.877  0.00  0.00     0.039 A 
ATOM     18  C   UNL d   1      28.541 -13.524   6.568  0.00  0.00     0.086 A 
ATOM     19  C   UNL d   1      28.626 -12.338   5.814  0.00  0.00     0.045 A 
ATOM     20  C   UNL d   1      28.589 -12.366   4.410  0.00  0.00     0.039 A 
ATOM     21 BR   UNL d   1      28.928 -10.587   6.498  0.00  0.00    -0.048 Br
BRANCH  18  22
ATOM     22  O   UNL d   1      28.608 -13.637   7.935  0.00  0.00    -0.350 OA
BRANCH  22  23
ATOM     23  C   UNL d   1      29.847 -14.128   8.455  0.00  0.00     0.171 C 
ATOM     24  C   UNL d   1      30.828 -12.986   8.637  0.00  0.00     0.034 C 
ENDBRANCH  22  23
ENDBRANCH  18  22
ENDBRANCH  12  15
ENDBRANCH   9  11
ENDBRANCH   7   9
ENDBRANCH   1   7
BRANCH   4  25
ATOM     25  C   UNL d   1      23.171 -18.399  -1.517  0.00  0.00     0.251 C 
ATOM     26  O   UNL d   1      23.247 -19.239  -2.394  0.00  0.00    -0.268 OA
ATOM     27  N   UNL d   1      22.037 -18.278  -0.696  0.00  0.00    -0.355 N 
ATOM     28  H   UNL d   1      22.157 -17.852   0.208  0.00  0.00     0.162 HD
BRANCH  27  29
ATOM     29  C   UNL d   1      21.055 -19.317  -0.803  0.00  0.00     0.150 C 
BRANCH  29  30
ATOM     30  C   UNL d   1      19.633 -18.962  -0.369  0.00  0.00     0.254 C 
BRANCH  30  31
ATOM     31  N   UNL d   1      19.166 -19.740   0.867  0.00  0.00    -0.070 N 
ATOM     32  H   UNL d   1      18.317 -19.278   1.224  0.00  0.00     0.279 HD
BRANCH  31  33
ATOM     33  C   UNL d   1      18.849 -21.213   0.616  0.00  0.00     0.230 C 
ATOM     34  C   UNL d   1      17.639 -21.748   1.352  0.00  0.00     0.034 C 
ENDBRANCH  31  33
BRANCH  31  35
ATOM     35  C   UNL d   1      20.237 -19.603   1.960  0.00  0.00     0.230 C 
ATOM     36  C   UNL d   1      19.913 -20.447   3.180  0.00  0.00     0.034 C 
ENDBRANCH  31  35
ENDBRANCH  30  31
ENDBRANCH  29  30
ENDBRANCH  27  29
ENDBRANCH   4  25
TORSDOF 12
ENDMDL
MODEL 2
REMARK VINA RESULT:    -7.913      7.424     10.921
REMARK INTER + INTRA:         -13.469
REMARK INTER:                 -11.492
REMARK INTRA:                  -1.977
REMARK CONF_INDEPENDENT:        3.580
REMARK UNBOUND:                -1.977
REMARK  12 active torsions:
REMARK  status: ('A' for Active; 'I' for Inactive)
REMARK    1  A    between atoms: C_2  and  O_3 
REMARK    2  A    between atoms: O_3  and  C_4 
REMARK    3  A    between atoms: C_7  and  C_8 
REMARK       I    between atoms: C_8  and  N_10 
REMARK    4  A    between atoms: N_10  and  C_11 
REMARK    5  A    between atoms: C_11  and  N_13 
REMARK    6  A    between atoms: N_13  and  C_14 
REMARK    7  A    between atoms: C_17  and  C_18 
REMARK       I    between atoms: C_18  and  N_20 
REMARK    8  A    between atoms: N_20  and  C_21 
REMARK    9  A    between atoms: C_21  and  C_22 
REMARK   10  A    between atoms: C_22  and  N_23 
REMARK   11  A    between atoms: N_23  and  C_24 
REMARK   12  A    between atoms: N_23  and  C_26 
ROOT
ATOM      1  C   UNL d   1      26.646 -11.277  -4.704  0.00  0.00     0.034 A 
ATOM      2  C   UNL d   1      26.329 -10.995  -6.040  0.00  0.00     0.030 A 
ATOM      3  C   UNL d   1      25.446  -9.930  -6.351  0.00  0.00     0.019 A 
ATOM      4  C   UNL d   1      24.845  -9.176  -5.329  0.00  0.00     0.032 A 
ATOM      5  C   UNL d   1      25.183  -9.455  -4.011  0.00  0.00     0.019 A 
ATOM      6  C   UNL d   1      26.097 -10.455  -3.719  0.00  0.00     0.030 A 
ENDROOT
BRANCH   1   7
ATOM      7  N   UNL d   1      27.509 -12.356  -4.307  0.00  0.00    -0.333 N 
ATOM      8  H   UNL d   1      28.314 -12.087  -3.754  0.00  0.00     0.168 HD
BRANCH   7   9
ATOM      9  C   UNL d   1      27.432 -13.656  -4.879  0.00  0.00     0.179 C 
ATOM     10  S   UNL d   1      28.065 -14.024  -6.410  0.00  0.00    -0.040 SA
BRANCH   9  11
ATOM     11  N   UNL d   1      26.821 -14.627  -4.052  0.00  0.00    -0.299 N 
ATOM     12  C   UNL d   1      26.557 -14.455  -2.668  0.00  0.00     0.257 C 
ATOM     13  O   UNL d   1      26.919 -13.487  -2.010  0.00  0.00    -0.267 OA
ATOM     14  H   UNL d   1      26.522 -15.481  -4.495  0.00  0.00     0.171 HD
BRANCH  12  15
ATOM     15  C   UNL d   1      25.824 -15.480  -1.869  0.00  0.00     0.033 A 
ATOM     16  C   UNL d   1      24.419 -15.547  -1.989  0.00  0.00     0.020 A 
ATOM     17  C   UNL d   1      23.671 -16.493  -1.272  0.00  0.00     0.039 A 
ATOM     18  C   UNL d   1      24.309 -17.387  -0.400  0.00  0.00     0.086 A 
ATOM     19  C   UNL d   1      25.713 -17.339  -0.314  0.00  0.00     0.045 A 
ATOM     20  C   UNL d   1      26.453 -16.382  -1.028  0.00  0.00     0.039 A 
ATOM     21 BR   UNL d   1      26.828 -18.570   0.617  0.00  0.00    -0.048 Br
BRANCH  18  22
ATOM     22  O   UNL d   1      23.477 -18.293   0.210  0.00  0.00    -0.350 OA
BRANCH  22  23
ATOM     23  C   UNL d   1      22.788 -19.188  -0.668  0.00  0.00     0.171 C 
ATOM     24  C   UNL d   1      21.396 -18.665  -0.963  0.00  0.00     0.034 C 
ENDBRANCH  22  23
ENDBRANCH  18  22
ENDBRANCH  12  15
ENDBRANCH   9  11
ENDBRANCH   7   9
ENDBRANCH   1   7
BRANCH   4  25
ATOM     25  C   UNL d   1      23.870  -8.090  -5.647  0.00  0.00     0.251 C 
ATOM     26  O   UNL d   1      23.276  -8.067  -6.709  0.00  0.00    -0.268 OA
ATOM     27  N   UNL d   1      23.641  -7.133  -4.643  0.00  0.00    -0.355 N 
ATOM     28  H   UNL d   1      23.857  -7.390  -3.694  0.00  0.00     0.162 HD
BRANCH  27  29
ATOM     29  C   UNL d   1      22.530  -6.249  -4.843  0.00  0.00     0.150 C 
BRANCH  29  30
ATOM     30  C   UNL d   1      22.421  -5.589  -6.217  0.00  0.00     0.254 C 
BRANCH  30  31
ATOM     31  N   UNL d   1      21.280  -6.158  -7.071  0.00  0.00    -0.070 N 
ATOM     32  H   UNL d   1      21.421  -7.176  -7.141  0.00  0.00     0.279 HD
BRANCH  31  33
ATOM     33  C   UNL d   1      19.878  -5.897  -6.525  0.00  0.00     0.230 C 
ATOM     34  C   UNL d   1      18.829  -6.914  -6.924  0.00  0.00     0.034 C 
ENDBRANCH  31  33
BRANCH  31  35
ATOM     35  C   UNL d   1      21.412  -5.594  -8.494  0.00  0.00     0.230 C 
ATOM     36  C   UNL d   1      20.914  -6.576  -9.541  0.00  0.00     0.034 C 
ENDBRANCH  31  35
ENDBRANCH  30  31
ENDBRANCH  29  30
ENDBRANCH  27  29
ENDBRANCH   4  25
TORSDOF 12
ENDMDL
MODEL 3
REMARK VINA RESULT:    -7.366      6.964      9.581
REMARK INTER + INTRA:         -13.216
REMARK INTER:                 -10.945
REMARK INTRA:                  -2.271
REMARK CONF_INDEPENDENT:        3.580
REMARK UNBOUND:                -2.271
REMARK  12 active torsions:
REMARK  status: ('A' for Active; 'I' for Inactive)
REMARK    1  A    between atoms: C_2  and  O_3 
REMARK    2  A    between atoms: O_3  and  C_4 
REMARK    3  A    between atoms: C_7  and  C_8 
REMARK       I    between atoms: C_8  and  N_10 
REMARK    4  A    between atoms: N_10  and  C_11 
REMARK    5  A    between atoms: C_11  and  N_13 
REMARK    6  A    between atoms: N_13  and  C_14 
REMARK    7  A    between atoms: C_17  and  C_18 
REMARK       I    between atoms: C_18  and  N_20 
REMARK    8  A    between atoms: N_20  and  C_21 
REMARK    9  A    between atoms: C_21  and  C_22 
REMARK   10  A    between atoms: C_22  and  N_23 
REMARK   11  A    between atoms: N_23  and  C_24 
REMARK   12  A    between atoms: N_23  and  C_26 
ROOT
ATOM      1  C   UNL d   1      30.571 -17.726  -6.160  0.00  0.00     0.034 A 
ATOM      2  C   UNL d   1      30.726 -17.808  -4.770  0.00  0.00     0.030 A 
ATOM      3  C   UNL d   1      30.811 -19.074  -4.137  0.00  0.00     0.019 A 
ATOM      4  C   UNL d   1      30.698 -20.257  -4.886  0.00  0.00     0.032 A 
ATOM      5  C   UNL d   1      30.563 -20.162  -6.265  0.00  0.00     0.019 A 
ATOM      6  C   UNL d   1      30.545 -18.921  -6.882  0.00  0.00     0.030 A 
ENDROOT
BRANCH   1   7
ATOM      7  N   UNL d   1      30.448 -16.483  -6.871  0.00  0.00    -0.333 N 
ATOM      8  H   UNL d   1      30.739 -16.507  -7.841  0.00  0.00     0.168 HD
BRANCH   7   9
ATOM      9  C   UNL d   1      30.228 -15.239  -6.217  0.00  0.00     0.179 C 
ATOM     10  S   UNL d   1      30.856 -13.774  -6.798  0.00  0.00    -0.040 SA
BRANCH   9  11
ATOM     11  N   UNL d   1      29.409 -15.316  -5.067  0.00  0.00    -0.299 N 
ATOM     12  C   UNL d   1      27.989 -15.343  -5.088  0.00  0.00     0.257 C 
ATOM     13  O   UNL d   1      27.310 -15.200  -6.098  0.00  0.00    -0.267 OA
ATOM     14  H   UNL d   1      29.876 -15.396  -4.178  0.00  0.00     0.171 HD
BRANCH  12  15
ATOM     15  C   UNL d   1      27.182 -15.520  -3.846  0.00  0.00     0.033 A 
ATOM     16  C   UNL d   1      25.819 -15.152  -3.873  0.00  0.00     0.020 A 
ATOM     17  C   UNL d   1      25.002 -15.302  -2.742  0.00  0.00     0.039 A 
ATOM     18  C   UNL d   1      25.534 -15.808  -1.546  0.00  0.00     0.086 A 
ATOM     19  C   UNL d   1      26.883 -16.207  -1.539  0.00  0.00     0.045 A 
ATOM     20  C   UNL d   1      27.696 -16.045  -2.674  0.00  0.00     0.039 A 
ATOM     21 BR   UNL d   1      27.782 -17.118  -0.128  0.00  0.00    -0.048 Br
BRANCH  18  22
ATOM     22  O   UNL d   1      24.627 -15.950  -0.525  0.00  0.00    -0.350 OA
BRANCH  22  23
ATOM     23  C   UNL d   1      24.196 -17.288  -0.263  0.00  0.00     0.171 C 
ATOM     24  C   UNL d   1      22.710 -17.422  -0.532  0.00  0.00     0.034 C 
ENDBRANCH  22  23
ENDBRANCH  18  22
ENDBRANCH  12  15
ENDBRANCH   9  11
ENDBRANCH   7   9
ENDBRANCH   1   7
BRANCH   4  25
ATOM     25  C   UNL d   1      30.729 -21.594  -4.219  0.00  0.00     0.251 C 
ATOM     26  O   UNL d   1      29.703 -22.162  -3.895  0.00  0.00    -0.268 OA
ATOM     27  N   UNL d   1      31.995 -22.177  -4.035  0.00  0.00    -0.355 N 
ATOM     28  H   UNL d   1      32.746 -21.862  -4.626  0.00  0.00     0.162 HD
BRANCH  27  29
ATOM     29  C   UNL d   1      32.013 -23.554  -3.635  0.00  0.00     0.150 C 
BRANCH  29  30
ATOM     30  C   UNL d   1      31.477 -24.567  -4.646  0.00  0.00     0.254 C 
BRANCH  30  31
ATOM     31  N   UNL d   1      30.015 -24.957  -4.393  0.00  0.00    -0.070 N 
ATOM     32  H   UNL d   1      29.427 -24.154  -4.663  0.00  0.00     0.279 HD
BRANCH  31  33
ATOM     33  C   UNL d   1      29.538 -26.188  -5.160  0.00  0.00     0.230 C 
ATOM     34  C   UNL d   1      28.156 -26.075  -5.769  0.00  0.00     0.034 C 
ENDBRANCH  31  33
BRANCH  31  35
ATOM     35  C   UNL d   1      29.822 -25.160  -2.883  0.00  0.00     0.230 C 
ATOM     36  C   UNL d   1      28.506 -24.576  -2.397  0.00  0.00     0.034 C 
ENDBRANCH  31  35
ENDBRANCH  30  31
ENDBRANCH  29  30
ENDBRANCH  27  29
ENDBRANCH   4  25
TORSDOF 12
ENDMDL
MODEL 4
REMARK VINA RESULT:    -7.197      6.402      9.227
REMARK INTER + INTRA:         -13.115
REMARK INTER:                 -10.777
REMARK INTRA:                  -2.338
REMARK CONF_INDEPENDENT:        3.580
REMARK UNBOUND:                -2.338
REMARK  12 active torsions:
REMARK  status: ('A' for Active; 'I' for Inactive)
REMARK    1  A    between atoms: C_2  and  O_3 
REMARK    2  A    between atoms: O_3  and  C_4 
REMARK    3  A    between atoms: C_7  and  C_8 
REMARK       I    between atoms: C_8  and  N_10 
REMARK    4  A    between atoms: N_10  and  C_11 
REMARK    5  A    between atoms: C_11  and  N_13 
REMARK    6  A    between atoms: N_13  and  C_14 
REMARK    7  A    between atoms: C_17  and  C_18 
REMARK       I    between atoms: C_18  and  N_20 
REMARK    8  A    between atoms: N_20  and  C_21 
REMARK    9  A    between atoms: C_21  and  C_22 
REMARK   10  A    between atoms: C_22  and  N_23 
REMARK   11  A    between atoms: N_23  and  C_24 
REMARK   12  A    between atoms: N_23  and  C_26 
ROOT
ATOM      1  C   UNL d   1      30.520 -17.805  -5.666  0.00  0.00     0.034 A 
ATOM      2  C   UNL d   1      30.927 -17.768  -4.325  0.00  0.00     0.030 A 
ATOM      3  C   UNL d   1      31.156 -18.976  -3.618  0.00  0.00     0.019 A 
ATOM      4  C   UNL d   1      30.936 -20.219  -4.235  0.00  0.00     0.032 A 
ATOM      5  C   UNL d   1      30.551 -20.240  -5.569  0.00  0.00     0.019 A 
ATOM      6  C   UNL d   1      30.392 -19.056  -6.271  0.00  0.00     0.030 A 
ENDROOT
BRANCH   1   7
ATOM      7  N   UNL d   1      30.241 -16.626  -6.440  0.00  0.00    -0.333 N 
ATOM      8  H   UNL d   1      30.485 -16.685  -7.422  0.00  0.00     0.168 HD
BRANCH   7   9
ATOM      9  C   UNL d   1      29.933 -15.369  -5.850  0.00  0.00     0.179 C 
ATOM     10  S   UNL d   1      30.486 -13.897  -6.486  0.00  0.00    -0.040 SA
BRANCH   9  11
ATOM     11  N   UNL d   1      29.096 -15.443  -4.713  0.00  0.00    -0.299 N 
ATOM     12  C   UNL d   1      27.677 -15.397  -4.752  0.00  0.00     0.257 C 
ATOM     13  O   UNL d   1      27.020 -15.185  -5.765  0.00  0.00    -0.267 OA
ATOM     14  H   UNL d   1      29.546 -15.578  -3.821  0.00  0.00     0.171 HD
BRANCH  12  15
ATOM     15  C   UNL d   1      26.845 -15.574  -3.527  0.00  0.00     0.033 A 
ATOM     16  C   UNL d   1      25.529 -15.062  -3.528  0.00  0.00     0.020 A 
ATOM     17  C   UNL d   1      24.691 -15.204  -2.412  0.00  0.00     0.039 A 
ATOM     18  C   UNL d   1      25.156 -15.847  -1.255  0.00  0.00     0.086 A 
ATOM     19  C   UNL d   1      26.455 -16.388  -1.274  0.00  0.00     0.045 A 
ATOM     20  C   UNL d   1      27.290 -16.233  -2.394  0.00  0.00     0.039 A 
ATOM     21 BR   UNL d   1      27.239 -17.486   0.069  0.00  0.00    -0.048 Br
BRANCH  18  22
ATOM     22  O   UNL d   1      24.230 -15.963  -0.247  0.00  0.00    -0.350 OA
BRANCH  22  23
ATOM     23  C   UNL d   1      23.114 -16.813  -0.527  0.00  0.00     0.171 C 
ATOM     24  C   UNL d   1      23.423 -18.238  -0.112  0.00  0.00     0.034 C 
ENDBRANCH  22  23
ENDBRANCH  18  22
ENDBRANCH  12  15
ENDBRANCH   9  11
ENDBRANCH   7   9
ENDBRANCH   1   7
BRANCH   4  25
ATOM     25  C   UNL d   1      31.120 -21.494  -3.479  0.00  0.00     0.251 C 
ATOM     26  O   UNL d   1      31.744 -21.524  -2.435  0.00  0.00    -0.268 OA
ATOM     27  N   UNL d   1      30.495 -22.637  -4.008  0.00  0.00    -0.355 N 
ATOM     28  H   UNL d   1      29.718 -22.499  -4.632  0.00  0.00     0.162 HD
BRANCH  27  29
ATOM     29  C   UNL d   1      30.454 -23.794  -3.161  0.00  0.00     0.150 C 
BRANCH  29  30
ATOM     30  C   UNL d   1      29.700 -23.647  -1.840  0.00  0.00     0.254 C 
BRANCH  30  31
ATOM     31  N   UNL d   1      30.621 -23.351  -0.649  0.00  0.00    -0.070 N 
ATOM     32  H   UNL d   1      31.450 -22.857  -1.011  0.00  0.00     0.279 HD
BRANCH  31  33
ATOM     33  C   UNL d   1      29.992 -22.500   0.452  0.00  0.00     0.230 C 
ATOM     34  C   UNL d   1      30.961 -21.956   1.482  0.00  0.00     0.034 C 
ENDBRANCH  31  33
BRANCH  31  35
ATOM     35  C   UNL d   1      31.117 -24.687  -0.075  0.00  0.00     0.230 C 
ATOM     36  C   UNL d   1      30.000 -25.462   0.602  0.00  0.00     0.034 C 
ENDBRANCH  31  35
ENDBRANCH  30  31
ENDBRANCH  29  30
ENDBRANCH  27  29
ENDBRANCH   4  25
TORSDOF 12
ENDMDL
MODEL 5
REMARK VINA RESULT:    -7.184      4.360      9.823
REMARK INTER + INTRA:         -12.597
REMARK INTER:                 -10.763
REMARK INTRA:                  -1.834
REMARK CONF_INDEPENDENT:        3.580
REMARK UNBOUND:                -1.834
REMARK  12 active torsions:
REMARK  status: ('A' for Active; 'I' for Inactive)
REMARK    1  A    between atoms: C_2  and  O_3 
REMARK    2  A    between atoms: O_3  and  C_4 
REMARK    3  A    between atoms: C_7  and  C_8 
REMARK       I    between atoms: C_8  and  N_10 
REMARK    4  A    between atoms: N_10  and  C_11 
REMARK    5  A    between atoms: C_11  and  N_13 
REMARK    6  A    between atoms: N_13  and  C_14 
REMARK    7  A    between atoms: C_17  and  C_18 
REMARK       I    between atoms: C_18  and  N_20 
REMARK    8  A    between atoms: N_20  and  C_21 
REMARK    9  A    between atoms: C_21  and  C_22 
REMARK   10  A    between atoms: C_22  and  N_23 
REMARK   11  A    between atoms: N_23  and  C_24 
REMARK   12  A    between atoms: N_23  and  C_26 
ROOT
ATOM      1  C   UNL d   1      32.341 -16.364   0.612  0.00  0.00     0.034 A 
ATOM      2  C   UNL d   1      32.047 -15.163  -0.048  0.00  0.00     0.030 A 
ATOM      3  C   UNL d   1      31.635 -14.027   0.694  0.00  0.00     0.019 A 
ATOM      4  C   UNL d   1      31.475 -14.102   2.088  0.00  0.00     0.032 A 
ATOM      5  C   UNL d   1      31.788 -15.293   2.730  0.00  0.00     0.019 A 
ATOM      6  C   UNL d   1      32.251 -16.379   2.004  0.00  0.00     0.030 A 
ENDROOT
BRANCH   1   7
ATOM      7  N   UNL d   1      32.736 -17.565  -0.072  0.00  0.00    -0.333 N 
ATOM      8  H   UNL d   1      33.736 -17.696  -0.177  0.00  0.00     0.168 HD
BRANCH   7   9
ATOM      9  C   UNL d   1      31.824 -18.367  -0.813  0.00  0.00     0.179 C 
ATOM     10  S   UNL d   1      32.331 -19.599  -1.863  0.00  0.00    -0.040 SA
BRANCH   9  11
ATOM     11  N   UNL d   1      30.460 -18.081  -0.574  0.00  0.00    -0.299 N 
ATOM     12  C   UNL d   1      29.648 -17.271  -1.410  0.00  0.00     0.257 C 
ATOM     13  O   UNL d   1      30.061 -16.645  -2.380  0.00  0.00    -0.267 OA
ATOM     14  H   UNL d   1      30.035 -18.519   0.228  0.00  0.00     0.171 HD
BRANCH  12  15
ATOM     15  C   UNL d   1      28.190 -17.082  -1.156  0.00  0.00     0.033 A 
ATOM     16  C   UNL d   1      27.614 -17.728  -0.040  0.00  0.00     0.020 A 
ATOM     17  C   UNL d   1      26.251 -17.584   0.261  0.00  0.00     0.039 A 
ATOM     18  C   UNL d   1      25.423 -16.803  -0.560  0.00  0.00     0.086 A 
ATOM     19  C   UNL d   1      26.012 -16.133  -1.648  0.00  0.00     0.045 A 
ATOM     20  C   UNL d   1      27.376 -16.290  -1.947  0.00  0.00     0.039 A 
ATOM     21 BR   UNL d   1      25.166 -14.853  -2.775  0.00  0.00    -0.048 Br
BRANCH  18  22
ATOM     22  O   UNL d   1      24.121 -16.703  -0.138  0.00  0.00    -0.350 OA
BRANCH  22  23
ATOM     23  C   UNL d   1      23.171 -17.484  -0.869  0.00  0.00     0.171 C 
ATOM     24  C   UNL d   1      23.479 -18.961  -0.717  0.00  0.00     0.034 C 
ENDBRANCH  22  23
ENDBRANCH  18  22
ENDBRANCH  12  15
ENDBRANCH   9  11
ENDBRANCH   7   9
ENDBRANCH   1   7
BRANCH   4  25
ATOM     25  C   UNL d   1      30.987 -12.926   2.870  0.00  0.00     0.251 C 
ATOM     26  O   UNL d   1      29.991 -12.314   2.532  0.00  0.00    -0.268 OA
ATOM     27  N   UNL d   1      31.704 -12.600   4.034  0.00  0.00    -0.355 N 
ATOM     28  H   UNL d   1      32.263 -13.322   4.457  0.00  0.00     0.162 HD
BRANCH  27  29
ATOM     29  C   UNL d   1      31.097 -11.645   4.914  0.00  0.00     0.150 C 
BRANCH  29  30
ATOM     30  C   UNL d   1      30.085 -12.191   5.920  0.00  0.00     0.254 C 
BRANCH  30  31
ATOM     31  N   UNL d   1      30.333 -13.658   6.292  0.00  0.00    -0.070 N 
ATOM     32  H   UNL d   1      31.211 -13.951   5.838  0.00  0.00     0.279 HD
BRANCH  31  33
ATOM     33  C   UNL d   1      30.447 -13.930   7.790  0.00  0.00     0.230 C 
ATOM     34  C   UNL d   1      30.722 -12.713   8.650  0.00  0.00     0.034 C 
ENDBRANCH  31  33
BRANCH  31  35
ATOM     35  C   UNL d   1      29.212 -14.510   5.679  0.00  0.00     0.230 C 
ATOM     36  C   UNL d   1      28.193 -13.660   4.940  0.00  0.00     0.034 C 
ENDBRANCH  31  35
ENDBRANCH  30  31
ENDBRANCH  29  30
ENDBRANCH  27  29
ENDBRANCH   4  25
TORSDOF 12
ENDMDL
MODEL 6
REMARK VINA RESULT:    -7.071      5.650     11.243
REMARK INTER + INTRA:         -12.542
REMARK INTER:                 -10.650
REMARK INTRA:                  -1.892
REMARK CONF_INDEPENDENT:        3.580
REMARK UNBOUND:                -1.892
REMARK  12 active torsions:
REMARK  status: ('A' for Active; 'I' for Inactive)
REMARK    1  A    between atoms: C_2  and  O_3 
REMARK    2  A    between atoms: O_3  and  C_4 
REMARK    3  A    between atoms: C_7  and  C_8 
REMARK       I    between atoms: C_8  and  N_10 
REMARK    4  A    between atoms: N_10  and  C_11 
REMARK    5  A    between atoms: C_11  and  N_13 
REMARK    6  A    between atoms: N_13  and  C_14 
REMARK    7  A    between atoms: C_17  and  C_18 
REMARK       I    between atoms: C_18  and  N_20 
REMARK    8  A    between atoms: N_20  and  C_21 
REMARK    9  A    between atoms: C_21  and  C_22 
REMARK   10  A    between atoms: C_22  and  N_23 
REMARK   11  A    between atoms: N_23  and  C_24 
REMARK   12  A    between atoms: N_23  and  C_26 
ROOT
ATOM      1  C   UNL d   1      28.320 -14.435   3.352  0.00  0.00     0.034 A 
ATOM      2  C   UNL d   1      27.397 -14.203   4.381  0.00  0.00     0.030 A 
ATOM      3  C   UNL d   1      27.853 -13.909   5.692  0.00  0.00     0.019 A 
ATOM      4  C   UNL d   1      29.228 -13.888   5.984  0.00  0.00     0.032 A 
ATOM      5  C   UNL d   1      30.130 -14.101   4.950  0.00  0.00     0.019 A 
ATOM      6  C   UNL d   1      29.677 -14.326   3.660  0.00  0.00     0.030 A 
ENDROOT
BRANCH   1   7
ATOM      7  N   UNL d   1      27.937 -14.768   2.007  0.00  0.00    -0.333 N 
ATOM      8  H   UNL d   1      28.336 -15.626   1.643  0.00  0.00     0.168 HD
BRANCH   7   9
ATOM      9  C   UNL d   1      27.301 -13.843   1.134  0.00  0.00     0.179 C 
ATOM     10  S   UNL d   1      26.310 -12.585   1.695  0.00  0.00    -0.040 SA
BRANCH   9  11
ATOM     11  N   UNL d   1      27.593 -14.031  -0.236  0.00  0.00    -0.299 N 
ATOM     12  C   UNL d   1      26.982 -15.010  -1.063  0.00  0.00     0.257 C 
ATOM     13  O   UNL d   1      26.206 -15.869  -0.661  0.00  0.00    -0.267 OA
ATOM     14  H   UNL d   1      28.254 -13.396  -0.654  0.00  0.00     0.171 HD
BRANCH  12  15
ATOM     15  C   UNL d   1      27.263 -15.099  -2.526  0.00  0.00     0.033 A 
ATOM     16  C   UNL d   1      26.331 -14.536  -3.425  0.00  0.00     0.020 A 
ATOM     17  C   UNL d   1      26.540 -14.576  -4.811  0.00  0.00     0.039 A 
ATOM     18  C   UNL d   1      27.681 -15.200  -5.337  0.00  0.00     0.086 A 
ATOM     19  C   UNL d   1      28.624 -15.726  -4.434  0.00  0.00     0.045 A 
ATOM     20  C   UNL d   1      28.401 -15.689  -3.047  0.00  0.00     0.039 A 
ATOM     21 BR   UNL d   1      30.341 -16.422  -4.874  0.00  0.00    -0.048 Br
BRANCH  18  22
ATOM     22  O   UNL d   1      27.797 -15.137  -6.704  0.00  0.00    -0.350 OA
BRANCH  22  23
ATOM     23  C   UNL d   1      28.743 -14.187  -7.201  0.00  0.00     0.171 C 
ATOM     24  C   UNL d   1      28.732 -12.937  -6.343  0.00  0.00     0.034 C 
ENDBRANCH  22  23
ENDBRANCH  18  22
ENDBRANCH  12  15
ENDBRANCH   9  11
ENDBRANCH   7   9
ENDBRANCH   1   7
BRANCH   4  25
ATOM     25  C   UNL d   1      29.714 -13.635   7.374  0.00  0.00     0.251 C 
ATOM     26  O   UNL d   1      28.986 -13.796   8.336  0.00  0.00    -0.268 OA
ATOM     27  N   UNL d   1      31.059 -13.252   7.512  0.00  0.00    -0.355 N 
ATOM     28  H   UNL d   1      31.691 -13.486   6.764  0.00  0.00     0.162 HD
BRANCH  27  29
ATOM     29  C   UNL d   1      31.593 -13.258   8.843  0.00  0.00     0.150 C 
BRANCH  29  30
ATOM     30  C   UNL d   1      31.827 -14.627   9.480  0.00  0.00     0.254 C 
BRANCH  30  31
ATOM     31  N   UNL d   1      30.554 -15.241  10.076  0.00  0.00    -0.070 N 
ATOM     32  H   UNL d   1      29.926 -15.479   9.294  0.00  0.00     0.279 HD
BRANCH  31  33
ATOM     33  C   UNL d   1      30.779 -16.495  10.917  0.00  0.00     0.230 C 
ATOM     34  C   UNL d   1      31.890 -16.396  11.942  0.00  0.00     0.034 C 
ENDBRANCH  31  33
BRANCH  31  35
ATOM     35  C   UNL d   1      29.838 -14.164  10.905  0.00  0.00     0.230 C 
ATOM     36  C   UNL d   1      28.476 -14.632  11.388  0.00  0.00     0.034 C 
ENDBRANCH  31  35
ENDBRANCH  30  31
ENDBRANCH  29  30
ENDBRANCH  27  29
ENDBRANCH   4  25
TORSDOF 12
ENDMDL
MODEL 7
REMARK VINA RESULT:    -6.572      7.800     10.709
REMARK INTER + INTRA:         -12.480
REMARK INTER:                 -10.152
REMARK INTRA:                  -2.328
REMARK CONF_INDEPENDENT:        3.580
REMARK UNBOUND:                -2.328
REMARK  12 active torsions:
REMARK  status: ('A' for Active; 'I' for Inactive)
REMARK    1  A    between atoms: C_2  and  O_3 
REMARK    2  A    between atoms: O_3  and  C_4 
REMARK    3  A    between atoms: C_7  and  C_8 
REMARK       I    between atoms: C_8  and  N_10 
REMARK    4  A    between atoms: N_10  and  C_11 
REMARK    5  A    between atoms: C_11  and  N_13 
REMARK    6  A    between atoms: N_13  and  C_14 
REMARK    7  A    between atoms: C_17  and  C_18 
REMARK       I    between atoms: C_18  and  N_20 
REMARK    8  A    between atoms: N_20  and  C_21 
REMARK    9  A    between atoms: C_21  and  C_22 
REMARK   10  A    between atoms: C_22  and  N_23 
REMARK   11  A    between atoms: N_23  and  C_24 
REMARK   12  A    between atoms: N_23  and  C_26 
ROOT
ATOM      1  C   UNL d   1      30.930 -16.134  -6.441  0.00  0.00     0.034 A 
ATOM      2  C   UNL d   1      31.723 -16.519  -7.530  0.00  0.00     0.030 A 
ATOM      3  C   UNL d   1      31.843 -17.890  -7.873  0.00  0.00     0.019 A 
ATOM      4  C   UNL d   1      31.207 -18.878  -7.103  0.00  0.00     0.032 A 
ATOM      5  C   UNL d   1      30.409 -18.481  -6.039  0.00  0.00     0.019 A 
ATOM      6  C   UNL d   1      30.246 -17.136  -5.750  0.00  0.00     0.030 A 
ENDROOT
BRANCH   1   7
ATOM      7  N   UNL d   1      30.782 -14.770  -6.013  0.00  0.00    -0.333 N 
ATOM      8  H   UNL d   1      31.580 -14.379  -5.526  0.00  0.00     0.168 HD
BRANCH   7   9
ATOM      9  C   UNL d   1      29.527 -14.099  -5.991  0.00  0.00     0.179 C 
ATOM     10  S   UNL d   1      28.992 -13.114  -7.264  0.00  0.00    -0.040 SA
BRANCH   9  11
ATOM     11  N   UNL d   1      28.746 -14.352  -4.840  0.00  0.00    -0.299 N 
ATOM     12  C   UNL d   1      27.462 -14.958  -4.855  0.00  0.00     0.257 C 
ATOM     13  O   UNL d   1      26.841 -15.238  -5.875  0.00  0.00    -0.267 OA
ATOM     14  H   UNL d   1      29.154 -14.118  -3.950  0.00  0.00     0.171 HD
BRANCH  12  15
ATOM     15  C   UNL d   1      26.726 -15.285  -3.600  0.00  0.00     0.033 A 
ATOM     16  C   UNL d   1      25.367 -14.914  -3.502  0.00  0.00     0.020 A 
ATOM     17  C   UNL d   1      24.615 -15.200  -2.352  0.00  0.00     0.039 A 
ATOM     18  C   UNL d   1      25.210 -15.850  -1.260  0.00  0.00     0.086 A 
ATOM     19  C   UNL d   1      26.554 -16.249  -1.380  0.00  0.00     0.045 A 
ATOM     20  C   UNL d   1      27.302 -15.950  -2.532  0.00  0.00     0.039 A 
ATOM     21 BR   UNL d   1      27.524 -17.327  -0.145  0.00  0.00    -0.048 Br
BRANCH  18  22
ATOM     22  O   UNL d   1      24.362 -16.114  -0.213  0.00  0.00    -0.350 OA
BRANCH  22  23
ATOM     23  C   UNL d   1      23.213 -16.904  -0.532  0.00  0.00     0.171 C 
ATOM     24  C   UNL d   1      23.627 -18.324  -0.861  0.00  0.00     0.034 C 
ENDBRANCH  22  23
ENDBRANCH  18  22
ENDBRANCH  12  15
ENDBRANCH   9  11
ENDBRANCH   7   9
ENDBRANCH   1   7
BRANCH   4  25
ATOM     25  C   UNL d   1      31.375 -20.328  -7.425  0.00  0.00     0.251 C 
ATOM     26  O   UNL d   1      30.843 -21.189  -6.749  0.00  0.00    -0.268 OA
ATOM     27  N   UNL d   1      32.131 -20.637  -8.569  0.00  0.00    -0.355 N 
ATOM     28  H   UNL d   1      32.228 -19.924  -9.272  0.00  0.00     0.162 HD
BRANCH  27  29
ATOM     29  C   UNL d   1      32.080 -21.997  -9.021  0.00  0.00     0.150 C 
BRANCH  29  30
ATOM     30  C   UNL d   1      32.814 -23.030  -8.167  0.00  0.00     0.254 C 
BRANCH  30  31
ATOM     31  N   UNL d   1      31.906 -23.725  -7.146  0.00  0.00    -0.070 N 
ATOM     32  H   UNL d   1      31.058 -23.149  -7.039  0.00  0.00     0.279 HD
BRANCH  31  33
ATOM     33  C   UNL d   1      31.485 -25.144  -7.522  0.00  0.00     0.230 C 
ATOM     34  C   UNL d   1      31.534 -25.462  -9.002  0.00  0.00     0.034 C 
ENDBRANCH  31  33
BRANCH  31  35
ATOM     35  C   UNL d   1      32.616 -23.723  -5.784  0.00  0.00     0.230 C 
ATOM     36  C   UNL d   1      31.655 -23.432  -4.644  0.00  0.00     0.034 C 
ENDBRANCH  31  35
ENDBRANCH  30  31
ENDBRANCH  29  30
ENDBRANCH  27  29
ENDBRANCH   4  25
TORSDOF 12
ENDMDL
MODEL 8
REMARK VINA RESULT:    -6.509      5.853     10.260
REMARK INTER + INTRA:         -12.521
REMARK INTER:                 -10.088
REMARK INTRA:                  -2.432
REMARK CONF_INDEPENDENT:        3.580
REMARK UNBOUND:                -2.432
REMARK  12 active torsions:
REMARK  status: ('A' for Active; 'I' for Inactive)
REMARK    1  A    between atoms: C_2  and  O_3 
REMARK    2  A    between atoms: O_3  and  C_4 
REMARK    3  A    between atoms: C_7  and  C_8 
REMARK       I    between atoms: C_8  and  N_10 
REMARK    4  A    between atoms: N_10  and  C_11 
REMARK    5  A    between atoms: C_11  and  N_13 
REMARK    6  A    between atoms: N_13  and  C_14 
REMARK    7  A    between atoms: C_17  and  C_18 
REMARK       I    between atoms: C_18  and  N_20 
REMARK    8  A    between atoms: N_20  and  C_21 
REMARK    9  A    between atoms: C_21  and  C_22 
REMARK   10  A    between atoms: C_22  and  N_23 
REMARK   11  A    between atoms: N_23  and  C_24 
REMARK   12  A    between atoms: N_23  and  C_26 
ROOT
ATOM      1  C   UNL d   1      26.212 -12.813  -3.119  0.00  0.00     0.034 A 
ATOM      2  C   UNL d   1      26.882 -11.947  -2.243  0.00  0.00     0.030 A 
ATOM      3  C   UNL d   1      27.223 -12.381  -0.937  0.00  0.00     0.019 A 
ATOM      4  C   UNL d   1      26.857 -13.662  -0.490  0.00  0.00     0.032 A 
ATOM      5  C   UNL d   1      26.210 -14.515  -1.374  0.00  0.00     0.019 A 
ATOM      6  C   UNL d   1      25.937 -14.105  -2.670  0.00  0.00     0.030 A 
ENDROOT
BRANCH   1   7
ATOM      7  N   UNL d   1      25.806 -12.437  -4.446  0.00  0.00    -0.333 N 
ATOM      8  H   UNL d   1      24.810 -12.492  -4.627  0.00  0.00     0.168 HD
BRANCH   7   9
ATOM      9  C   UNL d   1      26.726 -12.290  -5.521  0.00  0.00     0.179 C 
ATOM     10  S   UNL d   1      26.554 -11.101  -6.718  0.00  0.00    -0.040 SA
BRANCH   9  11
ATOM     11  N   UNL d   1      27.816 -13.190  -5.490  0.00  0.00    -0.299 N 
ATOM     12  C   UNL d   1      27.706 -14.596  -5.659  0.00  0.00     0.257 C 
ATOM     13  O   UNL d   1      26.644 -15.200  -5.751  0.00  0.00    -0.267 OA
ATOM     14  H   UNL d   1      28.734 -12.792  -5.377  0.00  0.00     0.171 HD
BRANCH  12  15
ATOM     15  C   UNL d   1      28.904 -15.483  -5.710  0.00  0.00     0.033 A 
ATOM     16  C   UNL d   1      29.672 -15.508  -6.895  0.00  0.00     0.020 A 
ATOM     17  C   UNL d   1      30.816 -16.313  -7.005  0.00  0.00     0.039 A 
ATOM     18  C   UNL d   1      31.210 -17.132  -5.936  0.00  0.00     0.086 A 
ATOM     19  C   UNL d   1      30.462 -17.074  -4.746  0.00  0.00     0.045 A 
ATOM     20  C   UNL d   1      29.312 -16.271  -4.648  0.00  0.00     0.039 A 
ATOM     21 BR   UNL d   1      30.906 -17.908  -3.093  0.00  0.00    -0.048 Br
BRANCH  18  22
ATOM     22  O   UNL d   1      32.369 -17.838  -6.147  0.00  0.00    -0.350 OA
BRANCH  22  23
ATOM     23  C   UNL d   1      32.295 -18.864  -7.141  0.00  0.00     0.171 C 
ATOM     24  C   UNL d   1      31.063 -19.720  -6.921  0.00  0.00     0.034 C 
ENDBRANCH  22  23
ENDBRANCH  18  22
ENDBRANCH  12  15
ENDBRANCH   9  11
ENDBRANCH   7   9
ENDBRANCH   1   7
BRANCH   4  25
ATOM     25  C   UNL d   1      27.163 -14.106   0.903  0.00  0.00     0.251 C 
ATOM     26  O   UNL d   1      27.875 -15.069   1.117  0.00  0.00    -0.268 OA
ATOM     27  N   UNL d   1      26.631 -13.326   1.945  0.00  0.00    -0.355 N 
ATOM     28  H   UNL d   1      26.378 -12.375   1.735  0.00  0.00     0.162 HD
BRANCH  27  29
ATOM     29  C   UNL d   1      27.128 -13.594   3.263  0.00  0.00     0.150 C 
BRANCH  29  30
ATOM     30  C   UNL d   1      28.594 -13.251   3.523  0.00  0.00     0.254 C 
BRANCH  30  31
ATOM     31  N   UNL d   1      29.534 -14.451   3.356  0.00  0.00    -0.070 N 
ATOM     32  H   UNL d   1      28.977 -15.235   2.986  0.00  0.00     0.279 HD
BRANCH  31  33
ATOM     33  C   UNL d   1      30.719 -14.214   2.422  0.00  0.00     0.230 C 
ATOM     34  C   UNL d   1      31.901 -15.138   2.629  0.00  0.00     0.034 C 
ENDBRANCH  31  33
BRANCH  31  35
ATOM     35  C   UNL d   1      30.028 -14.878   4.747  0.00  0.00     0.230 C 
ATOM     36  C   UNL d   1      29.092 -14.412   5.849  0.00  0.00     0.034 C 
ENDBRANCH  31  35
ENDBRANCH  30  31
ENDBRANCH  29  30
ENDBRANCH  27  29
ENDBRANCH   4  25
TORSDOF 12
ENDMDL
MODEL 9
REMARK VINA RESULT:    -6.405      4.121      7.440
REMARK INTER + INTRA:         -12.631
REMARK INTER:                  -9.984
REMARK INTRA:                  -2.646
REMARK CONF_INDEPENDENT:        3.580
REMARK UNBOUND:                -2.646
REMARK  12 active torsions:
REMARK  status: ('A' for Active; 'I' for Inactive)
REMARK    1  A    between atoms: C_2  and  O_3 
REMARK    2  A    between atoms: O_3  and  C_4 
REMARK    3  A    between atoms: C_7  and  C_8 
REMARK       I    between atoms: C_8  and  N_10 
REMARK    4  A    between atoms: N_10  and  C_11 
REMARK    5  A    between atoms: C_11  and  N_13 
REMARK    6  A    between atoms: N_13  and  C_14 
REMARK    7  A    between atoms: C_17  and  C_18 
REMARK       I    between atoms: C_18  and  N_20 
REMARK    8  A    between atoms: N_20  and  C_21 
REMARK    9  A    between atoms: C_21  and  C_22 
REMARK   10  A    between atoms: C_22  and  N_23 
REMARK   11  A    between atoms: N_23  and  C_24 
REMARK   12  A    between atoms: N_23  and  C_26 
ROOT
ATOM      1  C   UNL d   1      28.996 -14.179   5.964  0.00  0.00     0.034 A 
ATOM      2  C   UNL d   1      30.030 -14.341   5.033  0.00  0.00     0.030 A 
ATOM      3  C   UNL d   1      29.731 -14.450   3.651  0.00  0.00     0.019 A 
ATOM      4  C   UNL d   1      28.399 -14.441   3.204  0.00  0.00     0.032 A 
ATOM      5  C   UNL d   1      27.386 -14.261   4.136  0.00  0.00     0.019 A 
ATOM      6  C   UNL d   1      27.691 -14.092   5.477  0.00  0.00     0.030 A 
ENDROOT
BRANCH   1   7
ATOM      7  N   UNL d   1      29.216 -14.091   7.382  0.00  0.00    -0.333 N 
ATOM      8  H   UNL d   1      29.368 -14.976   7.853  0.00  0.00     0.168 HD
BRANCH   7   9
ATOM      9  C   UNL d   1      28.947 -12.914   8.134  0.00  0.00     0.179 C 
ATOM     10  S   UNL d   1      29.278 -12.789   9.793  0.00  0.00    -0.040 SA
BRANCH   9  11
ATOM     11  N   UNL d   1      28.419 -11.842   7.378  0.00  0.00    -0.299 N 
ATOM     12  C   UNL d   1      29.170 -11.047   6.472  0.00  0.00     0.257 C 
ATOM     13  O   UNL d   1      30.383 -11.134   6.318  0.00  0.00    -0.267 OA
ATOM     14  H   UNL d   1      27.431 -11.663   7.466  0.00  0.00     0.171 HD
BRANCH  12  15
ATOM     15  C   UNL d   1      28.536  -9.990   5.632  0.00  0.00     0.033 A 
ATOM     16  C   UNL d   1      28.912  -8.646   5.846  0.00  0.00     0.020 A 
ATOM     17  C   UNL d   1      28.360  -7.605   5.084  0.00  0.00     0.039 A 
ATOM     18  C   UNL d   1      27.401  -7.881   4.098  0.00  0.00     0.086 A 
ATOM     19  C   UNL d   1      27.059  -9.226   3.865  0.00  0.00     0.045 A 
ATOM     20  C   UNL d   1      27.610 -10.261   4.639  0.00  0.00     0.039 A 
ATOM     21 BR   UNL d   1      25.961  -9.881   2.454  0.00  0.00    -0.048 Br
BRANCH  18  22
ATOM     22  O   UNL d   1      26.969  -6.787   3.390  0.00  0.00    -0.350 OA
BRANCH  22  23
ATOM     23  C   UNL d   1      27.401  -6.722   2.028  0.00  0.00     0.171 C 
ATOM     24  C   UNL d   1      26.233  -6.382   1.123  0.00  0.00     0.034 C 
ENDBRANCH  22  23
ENDBRANCH  18  22
ENDBRANCH  12  15
ENDBRANCH   9  11
ENDBRANCH   7   9
ENDBRANCH   1   7
BRANCH   4  25
ATOM     25  C   UNL d   1      28.074 -14.611   1.755  0.00  0.00     0.251 C 
ATOM     26  O   UNL d   1      27.203 -13.950   1.222  0.00  0.00    -0.268 OA
ATOM     27  N   UNL d   1      28.857 -15.532   1.037  0.00  0.00    -0.355 N 
ATOM     28  H   UNL d   1      29.763 -15.765   1.407  0.00  0.00     0.162 HD
BRANCH  27  29
ATOM     29  C   UNL d   1      28.722 -15.511  -0.390  0.00  0.00     0.150 C 
BRANCH  29  30
ATOM     30  C   UNL d   1      27.726 -16.498  -0.997  0.00  0.00     0.254 C 
BRANCH  30  31
ATOM     31  N   UNL d   1      26.338 -16.433  -0.347  0.00  0.00    -0.070 N 
ATOM     32  H   UNL d   1      26.397 -15.781   0.449  0.00  0.00     0.279 HD
BRANCH  31  33
ATOM     33  C   UNL d   1      25.217 -15.968  -1.274  0.00  0.00     0.230 C 
ATOM     34  C   UNL d   1      25.634 -15.683  -2.702  0.00  0.00     0.034 C 
ENDBRANCH  31  33
BRANCH  31  35
ATOM     35  C   UNL d   1      26.010 -17.816   0.237  0.00  0.00     0.230 C 
ATOM     36  C   UNL d   1      24.517 -18.095   0.226  0.00  0.00     0.034 C 
ENDBRANCH  31  35
ENDBRANCH  30  31
ENDBRANCH  29  30
ENDBRANCH  27  29
ENDBRANCH   4  25
TORSDOF 12
ENDMDL
