MODEL 1
REMARK VINA RESULT:    -7.811      0.000      0.000
REMARK INTER + INTRA:         -10.385
REMARK INTER:                  -9.303
REMARK INTRA:                  -1.083
REMARK CONF_INDEPENDENT:        1.492
REMARK UNBOUND:                -1.083
REMARK  5 active torsions:
REMARK  status: ('A' for Active; 'I' for Inactive)
REMARK    1  A    between atoms: N_1  and  C_2 
REMARK    2  A    between atoms: C_2  and  C_15 
REMARK    3  A    between atoms: N_3  and  O_4 
REMARK    4  A    between atoms: O_4  and  C_5 
REMARK       I    between atoms: C_5  and  N_7 
REMARK    5  A    between atoms: N_7  and  C_8 
ROOT
ATOM      1  C   UNL d   1      26.245 -16.500   0.139  0.00  0.00     0.159 C 
ATOM      2  N   UNL d   1      26.403 -15.226  -0.087  0.00  0.00    -0.105 NA
ENDROOT
BRANCH   2   3
ATOM      3  O   UNL d   1      27.693 -14.714   0.305  0.00  0.00    -0.154 OA
BRANCH   3   4
ATOM      4  C   UNL d   1      27.606 -14.112   1.566  0.00  0.00     0.389 C 
ATOM      5  O   UNL d   1      27.043 -13.034   1.773  0.00  0.00    -0.236 OA
ATOM      6  N   UNL d   1      28.283 -14.825   2.559  0.00  0.00    -0.301 N 
ATOM      7  H   UNL d   1      28.900 -15.563   2.249  0.00  0.00     0.171 HD
BRANCH   6   8
ATOM      8  C   UNL d   1      28.384 -14.395   3.914  0.00  0.00     0.037 A 
ATOM      9  C   UNL d   1      27.405 -13.579   4.497  0.00  0.00     0.031 A 
ATOM     10  C   UNL d   1      27.513 -13.152   5.830  0.00  0.00     0.026 A 
ATOM     11  C   UNL d   1      28.619 -13.518   6.588  0.00  0.00     0.034 A 
ATOM     12 CL   UNL d   1      28.777 -12.951   8.207  0.00  0.00    -0.084 Cl
ATOM     13  C   UNL d   1      29.598 -14.342   6.035  0.00  0.00     0.026 A 
ATOM     14  C   UNL d   1      29.467 -14.800   4.709  0.00  0.00     0.031 A 
ENDBRANCH   6   8
ENDBRANCH   3   4
ENDBRANCH   2   3
BRANCH   1  15
ATOM     15  N   UNL d   1      27.204 -17.324   0.678  0.00  0.00    -0.382 N 
ATOM     16  H   UNL d   1      28.050 -16.897   1.026  0.00  0.00     0.157 HD
ATOM     17  H   UNL d   1      27.270 -18.293   0.385  0.00  0.00     0.157 HD
ENDBRANCH   1  15
BRANCH   1  18
ATOM     18  C   UNL d   1      24.906 -17.144  -0.188  0.00  0.00     0.012 A 
ATOM     19  C   UNL d   1      23.807 -16.330  -0.520  0.00  0.00     0.017 A 
ATOM     20  C   UNL d   1      22.549 -16.888  -0.789  0.00  0.00     0.025 A 
ATOM     21  C   UNL d   1      22.375 -18.269  -0.722  0.00  0.00     0.034 A 
ATOM     22 CL   UNL d   1      20.821 -18.950  -1.024  0.00  0.00    -0.084 Cl
ATOM     23  C   UNL d   1      23.454 -19.092  -0.406  0.00  0.00     0.025 A 
ATOM     24  C   UNL d   1      24.720 -18.533  -0.145  0.00  0.00     0.017 A 
ENDBRANCH   1  18
TORSDOF 5
ENDMDL
MODEL 2
REMARK VINA RESULT:    -7.600      1.526      8.297
REMARK INTER + INTRA:          -9.726
REMARK INTER:                  -9.092
REMARK INTRA:                  -0.634
REMARK CONF_INDEPENDENT:        1.492
REMARK UNBOUND:                -0.634
REMARK  5 active torsions:
REMARK  status: ('A' for Active; 'I' for Inactive)
REMARK    1  A    between atoms: N_1  and  C_2 
REMARK    2  A    between atoms: C_2  and  C_15 
REMARK    3  A    between atoms: N_3  and  O_4 
REMARK    4  A    between atoms: O_4  and  C_5 
REMARK       I    between atoms: C_5  and  N_7 
REMARK    5  A    between atoms: N_7  and  C_8 
ROOT
ATOM      1  C   UNL d   1      29.443 -14.080   4.347  0.00  0.00     0.159 C 
ATOM      2  N   UNL d   1      28.577 -13.629   3.483  0.00  0.00    -0.105 NA
ENDROOT
BRANCH   2   3
ATOM      3  O   UNL d   1      28.885 -13.957   2.113  0.00  0.00    -0.154 OA
BRANCH   3   4
ATOM      4  C   UNL d   1      27.728 -14.386   1.451  0.00  0.00     0.389 C 
ATOM      5  O   UNL d   1      26.723 -13.686   1.305  0.00  0.00    -0.236 OA
ATOM      6  N   UNL d   1      27.802 -15.716   1.028  0.00  0.00    -0.301 N 
ATOM      7  H   UNL d   1      28.565 -16.268   1.394  0.00  0.00     0.171 HD
BRANCH   6   8
ATOM      8  C   UNL d   1      26.736 -16.400   0.375  0.00  0.00     0.037 A 
ATOM      9  C   UNL d   1      25.888 -15.742  -0.526  0.00  0.00     0.031 A 
ATOM     10  C   UNL d   1      24.835 -16.419  -1.161  0.00  0.00     0.026 A 
ATOM     11  C   UNL d   1      24.604 -17.761  -0.881  0.00  0.00     0.034 A 
ATOM     12 CL   UNL d   1      23.279 -18.577  -1.622  0.00  0.00    -0.084 Cl
ATOM     13  C   UNL d   1      25.443 -18.440  -0.001  0.00  0.00     0.026 A 
ATOM     14  C   UNL d   1      26.522 -17.768   0.606  0.00  0.00     0.031 A 
ENDBRANCH   6   8
ENDBRANCH   3   4
ENDBRANCH   2   3
BRANCH   1  15
ATOM     15  N   UNL d   1      30.551 -14.826   4.027  0.00  0.00    -0.382 N 
ATOM     16  H   UNL d   1      30.427 -15.820   3.890  0.00  0.00     0.157 HD
ATOM     17  H   UNL d   1      31.475 -14.518   4.308  0.00  0.00     0.157 HD
ENDBRANCH   1  15
BRANCH   1  18
ATOM     18  C   UNL d   1      29.249 -13.754   5.821  0.00  0.00     0.012 A 
ATOM     19  C   UNL d   1      28.330 -12.756   6.195  0.00  0.00     0.017 A 
ATOM     20  C   UNL d   1      28.156 -12.403   7.542  0.00  0.00     0.025 A 
ATOM     21  C   UNL d   1      28.904 -13.042   8.528  0.00  0.00     0.034 A 
ATOM     22 CL   UNL d   1      28.709 -12.587  10.178  0.00  0.00    -0.084 Cl
ATOM     23  C   UNL d   1      29.810 -14.042   8.177  0.00  0.00     0.025 A 
ATOM     24  C   UNL d   1      29.980 -14.402   6.826  0.00  0.00     0.017 A 
ENDBRANCH   1  18
TORSDOF 5
ENDMDL
MODEL 3
REMARK VINA RESULT:    -7.135      1.282      1.703
REMARK INTER + INTRA:         -10.341
REMARK INTER:                  -8.627
REMARK INTRA:                  -1.714
REMARK CONF_INDEPENDENT:        1.492
REMARK UNBOUND:                -1.714
REMARK  5 active torsions:
REMARK  status: ('A' for Active; 'I' for Inactive)
REMARK    1  A    between atoms: N_1  and  C_2 
REMARK    2  A    between atoms: C_2  and  C_15 
REMARK    3  A    between atoms: N_3  and  O_4 
REMARK    4  A    between atoms: O_4  and  C_5 
REMARK       I    between atoms: C_5  and  N_7 
REMARK    5  A    between atoms: N_7  and  C_8 
ROOT
ATOM      1  C   UNL d   1      27.667 -16.600   0.047  0.00  0.00     0.159 C 
ATOM      2  N   UNL d   1      27.951 -15.354   0.303  0.00  0.00    -0.105 NA
ENDROOT
BRANCH   2   3
ATOM      3  O   UNL d   1      29.351 -15.105   0.541  0.00  0.00    -0.154 OA
BRANCH   3   4
ATOM      4  C   UNL d   1      29.519 -14.448   1.766  0.00  0.00     0.389 C 
ATOM      5  O   UNL d   1      30.461 -13.691   2.015  0.00  0.00    -0.236 OA
ATOM      6  N   UNL d   1      28.544 -14.791   2.708  0.00  0.00    -0.301 N 
ATOM      7  H   UNL d   1      27.959 -15.584   2.488  0.00  0.00     0.171 HD
BRANCH   6   8
ATOM      8  C   UNL d   1      28.524 -14.295   4.044  0.00  0.00     0.037 A 
ATOM      9  C   UNL d   1      27.789 -13.154   4.389  0.00  0.00     0.031 A 
ATOM     10  C   UNL d   1      27.779 -12.666   5.705  0.00  0.00     0.026 A 
ATOM     11  C   UNL d   1      28.528 -13.304   6.688  0.00  0.00     0.034 A 
ATOM     12 CL   UNL d   1      28.556 -12.674   8.291  0.00  0.00    -0.084 Cl
ATOM     13  C   UNL d   1      29.255 -14.449   6.371  0.00  0.00     0.026 A 
ATOM     14  C   UNL d   1      29.233 -14.959   5.057  0.00  0.00     0.031 A 
ENDBRANCH   6   8
ENDBRANCH   3   4
ENDBRANCH   2   3
BRANCH   1  15
ATOM     15  N   UNL d   1      28.592 -17.614  -0.022  0.00  0.00    -0.382 N 
ATOM     16  H   UNL d   1      28.254 -18.565   0.023  0.00  0.00     0.157 HD
ATOM     17  H   UNL d   1      29.548 -17.457   0.277  0.00  0.00     0.157 HD
ENDBRANCH   1  15
BRANCH   1  18
ATOM     18  C   UNL d   1      26.214 -16.993  -0.173  0.00  0.00     0.012 A 
ATOM     19  C   UNL d   1      25.713 -18.163   0.429  0.00  0.00     0.017 A 
ATOM     20  C   UNL d   1      24.389 -18.575   0.216  0.00  0.00     0.025 A 
ATOM     21  C   UNL d   1      23.554 -17.824  -0.608  0.00  0.00     0.034 A 
ATOM     22 CL   UNL d   1      21.937 -18.349  -0.892  0.00  0.00    -0.084 Cl
ATOM     23  C   UNL d   1      24.029 -16.657  -1.204  0.00  0.00     0.025 A 
ATOM     24  C   UNL d   1      25.356 -16.237  -0.983  0.00  0.00     0.017 A 
ENDBRANCH   1  18
TORSDOF 5
ENDMDL
MODEL 4
REMARK VINA RESULT:    -7.111      1.257      7.735
REMARK INTER + INTRA:         -10.392
REMARK INTER:                  -8.602
REMARK INTRA:                  -1.790
REMARK CONF_INDEPENDENT:        1.492
REMARK UNBOUND:                -1.790
REMARK  5 active torsions:
REMARK  status: ('A' for Active; 'I' for Inactive)
REMARK    1  A    between atoms: N_1  and  C_2 
REMARK    2  A    between atoms: C_2  and  C_15 
REMARK    3  A    between atoms: N_3  and  O_4 
REMARK    4  A    between atoms: O_4  and  C_5 
REMARK       I    between atoms: C_5  and  N_7 
REMARK    5  A    between atoms: N_7  and  C_8 
ROOT
ATOM      1  C   UNL d   1      28.459 -14.756   1.322  0.00  0.00     0.159 C 
ATOM      2  N   UNL d   1      27.407 -14.379   0.650  0.00  0.00    -0.105 NA
ENDROOT
BRANCH   2   3
ATOM      3  O   UNL d   1      27.452 -14.711  -0.752  0.00  0.00    -0.154 OA
BRANCH   3   4
ATOM      4  C   UNL d   1      26.270 -15.359  -1.129  0.00  0.00     0.389 C 
ATOM      5  O   UNL d   1      25.682 -15.146  -2.193  0.00  0.00    -0.236 OA
ATOM      6  N   UNL d   1      25.783 -16.225  -0.146  0.00  0.00    -0.301 N 
ATOM      7  H   UNL d   1      26.205 -16.155   0.770  0.00  0.00     0.171 HD
BRANCH   6   8
ATOM      8  C   UNL d   1      24.570 -16.963  -0.269  0.00  0.00     0.037 A 
ATOM      9  C   UNL d   1      23.349 -16.325  -0.526  0.00  0.00     0.031 A 
ATOM     10  C   UNL d   1      22.156 -17.056  -0.639  0.00  0.00     0.026 A 
ATOM     11  C   UNL d   1      22.170 -18.436  -0.472  0.00  0.00     0.034 A 
ATOM     12 CL   UNL d   1      20.698 -19.327  -0.560  0.00  0.00    -0.084 Cl
ATOM     13  C   UNL d   1      23.375 -19.094  -0.232  0.00  0.00     0.026 A 
ATOM     14  C   UNL d   1      24.576 -18.361  -0.156  0.00  0.00     0.031 A 
ENDBRANCH   6   8
ENDBRANCH   3   4
ENDBRANCH   2   3
BRANCH   1  15
ATOM     15  N   UNL d   1      29.527 -15.434   0.786  0.00  0.00    -0.382 N 
ATOM     16  H   UNL d   1      29.531 -15.595  -0.212  0.00  0.00     0.157 HD
ATOM     17  H   UNL d   1      30.058 -16.086   1.353  0.00  0.00     0.157 HD
ENDBRANCH   1  15
BRANCH   1  18
ATOM     18  C   UNL d   1      28.547 -14.417   2.803  0.00  0.00     0.012 A 
ATOM     19  C   UNL d   1      29.797 -14.452   3.449  0.00  0.00     0.017 A 
ATOM     20  C   UNL d   1      29.908 -14.182   4.821  0.00  0.00     0.025 A 
ATOM     21  C   UNL d   1      28.769 -13.882   5.563  0.00  0.00     0.034 A 
ATOM     22 CL   UNL d   1      28.904 -13.580   7.254  0.00  0.00    -0.084 Cl
ATOM     23  C   UNL d   1      27.524 -13.831   4.937  0.00  0.00     0.025 A 
ATOM     24  C   UNL d   1      27.412 -14.093   3.558  0.00  0.00     0.017 A 
ENDBRANCH   1  18
TORSDOF 5
ENDMDL
MODEL 5
REMARK VINA RESULT:    -6.869      4.864      7.959
REMARK INTER + INTRA:         -10.119
REMARK INTER:                  -8.361
REMARK INTRA:                  -1.758
REMARK CONF_INDEPENDENT:        1.492
REMARK UNBOUND:                -1.758
REMARK  5 active torsions:
REMARK  status: ('A' for Active; 'I' for Inactive)
REMARK    1  A    between atoms: N_1  and  C_2 
REMARK    2  A    between atoms: C_2  and  C_15 
REMARK    3  A    between atoms: N_3  and  O_4 
REMARK    4  A    between atoms: O_4  and  C_5 
REMARK       I    between atoms: C_5  and  N_7 
REMARK    5  A    between atoms: N_7  and  C_8 
ROOT
ATOM      1  C   UNL d   1      29.423 -17.260  -1.470  0.00  0.00     0.159 C 
ATOM      2  N   UNL d   1      28.348 -16.687  -1.005  0.00  0.00    -0.105 NA
ENDROOT
BRANCH   2   3
ATOM      3  O   UNL d   1      28.081 -16.972   0.383  0.00  0.00    -0.154 OA
BRANCH   3   4
ATOM      4  C   UNL d   1      26.815 -17.555   0.517  0.00  0.00     0.389 C 
ATOM      5  O   UNL d   1      26.561 -18.466   1.309  0.00  0.00    -0.236 OA
ATOM      6  N   UNL d   1      25.880 -17.044  -0.388  0.00  0.00    -0.301 N 
ATOM      7  H   UNL d   1      26.240 -16.474  -1.140  0.00  0.00     0.171 HD
BRANCH   6   8
ATOM      8  C   UNL d   1      24.536 -17.508  -0.484  0.00  0.00     0.037 A 
ATOM      9  C   UNL d   1      24.227 -18.873  -0.424  0.00  0.00     0.031 A 
ATOM     10  C   UNL d   1      22.902 -19.325  -0.527  0.00  0.00     0.026 A 
ATOM     11  C   UNL d   1      21.870 -18.412  -0.716  0.00  0.00     0.034 A 
ATOM     12 CL   UNL d   1      20.251 -18.970  -0.894  0.00  0.00    -0.084 Cl
ATOM     13  C   UNL d   1      22.152 -17.048  -0.763  0.00  0.00     0.026 A 
ATOM     14  C   UNL d   1      23.478 -16.595  -0.622  0.00  0.00     0.031 A 
ENDBRANCH   6   8
ENDBRANCH   3   4
ENDBRANCH   2   3
BRANCH   1  15
ATOM     15  N   UNL d   1      30.268 -18.053  -0.731  0.00  0.00    -0.382 N 
ATOM     16  H   UNL d   1      30.003 -18.267   0.220  0.00  0.00     0.157 HD
ATOM     17  H   UNL d   1      31.259 -18.083  -0.943  0.00  0.00     0.157 HD
ENDBRANCH   1  15
BRANCH   1  18
ATOM     18  C   UNL d   1      29.782 -17.073  -2.937  0.00  0.00     0.012 A 
ATOM     19  C   UNL d   1      30.770 -17.888  -3.519  0.00  0.00     0.017 A 
ATOM     20  C   UNL d   1      31.152 -17.716  -4.857  0.00  0.00     0.025 A 
ATOM     21  C   UNL d   1      30.553 -16.721  -5.626  0.00  0.00     0.034 A 
ATOM     22 CL   UNL d   1      31.045 -16.492  -7.262  0.00  0.00    -0.084 Cl
ATOM     23  C   UNL d   1      29.564 -15.911  -5.070  0.00  0.00     0.025 A 
ATOM     24  C   UNL d   1      29.173 -16.089  -3.728  0.00  0.00     0.017 A 
ENDBRANCH   1  18
TORSDOF 5
ENDMDL
MODEL 6
REMARK VINA RESULT:    -6.849      1.749      7.757
REMARK INTER + INTRA:         -10.086
REMARK INTER:                  -8.341
REMARK INTRA:                  -1.745
REMARK CONF_INDEPENDENT:        1.492
REMARK UNBOUND:                -1.745
REMARK  5 active torsions:
REMARK  status: ('A' for Active; 'I' for Inactive)
REMARK    1  A    between atoms: N_1  and  C_2 
REMARK    2  A    between atoms: C_2  and  C_15 
REMARK    3  A    between atoms: N_3  and  O_4 
REMARK    4  A    between atoms: O_4  and  C_5 
REMARK       I    between atoms: C_5  and  N_7 
REMARK    5  A    between atoms: N_7  and  C_8 
ROOT
ATOM      1  C   UNL d   1      27.852 -14.878   0.560  0.00  0.00     0.159 C 
ATOM      2  N   UNL d   1      27.110 -14.430  -0.415  0.00  0.00    -0.105 NA
ENDROOT
BRANCH   2   3
ATOM      3  O   UNL d   1      27.204 -15.201  -1.630  0.00  0.00    -0.154 OA
BRANCH   3   4
ATOM      4  C   UNL d   1      26.014 -15.908  -1.841  0.00  0.00     0.389 C 
ATOM      5  O   UNL d   1      25.484 -16.044  -2.947  0.00  0.00    -0.236 OA
ATOM      6  N   UNL d   1      25.448 -16.391  -0.657  0.00  0.00    -0.301 N 
ATOM      7  H   UNL d   1      25.830 -16.034   0.208  0.00  0.00     0.171 HD
BRANCH   6   8
ATOM      8  C   UNL d   1      24.213 -17.100  -0.600  0.00  0.00     0.037 A 
ATOM      9  C   UNL d   1      24.162 -18.453  -0.240  0.00  0.00     0.031 A 
ATOM     10  C   UNL d   1      22.944 -19.148  -0.194  0.00  0.00     0.026 A 
ATOM     11  C   UNL d   1      21.762 -18.500  -0.533  0.00  0.00     0.034 A 
ATOM     12 CL   UNL d   1      20.273 -19.367  -0.525  0.00  0.00    -0.084 Cl
ATOM     13  C   UNL d   1      21.786 -17.150  -0.879  0.00  0.00     0.026 A 
ATOM     14  C   UNL d   1      23.006 -16.446  -0.888  0.00  0.00     0.031 A 
ENDBRANCH   6   8
ENDBRANCH   3   4
ENDBRANCH   2   3
BRANCH   1  15
ATOM     15  N   UNL d   1      28.648 -15.996   0.485  0.00  0.00    -0.382 N 
ATOM     16  H   UNL d   1      29.341 -16.131   1.208  0.00  0.00     0.157 HD
ATOM     17  H   UNL d   1      28.835 -16.434  -0.410  0.00  0.00     0.157 HD
ENDBRANCH   1  15
BRANCH   1  18
ATOM     18  C   UNL d   1      27.875 -14.118   1.877  0.00  0.00     0.012 A 
ATOM     19  C   UNL d   1      28.074 -14.821   3.080  0.00  0.00     0.017 A 
ATOM     20  C   UNL d   1      28.061 -14.156   4.315  0.00  0.00     0.025 A 
ATOM     21  C   UNL d   1      27.842 -12.781   4.361  0.00  0.00     0.034 A 
ATOM     22 CL   UNL d   1      27.798 -11.972   5.881  0.00  0.00    -0.084 Cl
ATOM     23  C   UNL d   1      27.654 -12.067   3.178  0.00  0.00     0.025 A 
ATOM     24  C   UNL d   1      27.676 -12.731   1.936  0.00  0.00     0.017 A 
ENDBRANCH   1  18
TORSDOF 5
ENDMDL
MODEL 7
REMARK VINA RESULT:    -6.714      6.138      8.974
REMARK INTER + INTRA:          -9.592
REMARK INTER:                  -8.206
REMARK INTRA:                  -1.386
REMARK CONF_INDEPENDENT:        1.492
REMARK UNBOUND:                -1.386
REMARK  5 active torsions:
REMARK  status: ('A' for Active; 'I' for Inactive)
REMARK    1  A    between atoms: N_1  and  C_2 
REMARK    2  A    between atoms: C_2  and  C_15 
REMARK    3  A    between atoms: N_3  and  O_4 
REMARK    4  A    between atoms: O_4  and  C_5 
REMARK       I    between atoms: C_5  and  N_7 
REMARK    5  A    between atoms: N_7  and  C_8 
ROOT
ATOM      1  C   UNL d   1      28.427 -16.950  -1.015  0.00  0.00     0.159 C 
ATOM      2  N   UNL d   1      28.925 -16.674  -2.188  0.00  0.00    -0.105 NA
ENDROOT
BRANCH   2   3
ATOM      3  O   UNL d   1      30.354 -16.476  -2.190  0.00  0.00    -0.154 OA
BRANCH   3   4
ATOM      4  C   UNL d   1      30.938 -17.215  -3.225  0.00  0.00     0.389 C 
ATOM      5  O   UNL d   1      32.133 -17.520  -3.260  0.00  0.00    -0.236 OA
ATOM      6  N   UNL d   1      30.042 -17.517  -4.255  0.00  0.00    -0.301 N 
ATOM      7  H   UNL d   1      29.156 -17.031  -4.243  0.00  0.00     0.171 HD
BRANCH   6   8
ATOM      8  C   UNL d   1      30.405 -18.217  -5.442  0.00  0.00     0.037 A 
ATOM      9  C   UNL d   1      30.408 -19.617  -5.493  0.00  0.00     0.031 A 
ATOM     10  C   UNL d   1      30.774 -20.302  -6.662  0.00  0.00     0.026 A 
ATOM     11  C   UNL d   1      31.166 -19.589  -7.790  0.00  0.00     0.034 A 
ATOM     12 CL   UNL d   1      31.664 -20.430  -9.208  0.00  0.00    -0.084 Cl
ATOM     13  C   UNL d   1      31.156 -18.196  -7.767  0.00  0.00     0.026 A 
ATOM     14  C   UNL d   1      30.751 -17.511  -6.604  0.00  0.00     0.031 A 
ENDBRANCH   6   8
ENDBRANCH   3   4
ENDBRANCH   2   3
BRANCH   1  15
ATOM     15  N   UNL d   1      29.164 -17.075   0.138  0.00  0.00    -0.382 N 
ATOM     16  H   UNL d   1      29.764 -17.882   0.230  0.00  0.00     0.157 HD
ATOM     17  H   UNL d   1      28.844 -16.646   1.000  0.00  0.00     0.157 HD
ENDBRANCH   1  15
BRANCH   1  18
ATOM     18  C   UNL d   1      26.922 -17.132  -0.879  0.00  0.00     0.012 A 
ATOM     19  C   UNL d   1      26.414 -17.980   0.122  0.00  0.00     0.017 A 
ATOM     20  C   UNL d   1      25.034 -18.200   0.250  0.00  0.00     0.025 A 
ATOM     21  C   UNL d   1      24.149 -17.579  -0.627  0.00  0.00     0.034 A 
ATOM     22 CL   UNL d   1      22.457 -17.874  -0.486  0.00  0.00    -0.084 Cl
ATOM     23  C   UNL d   1      24.634 -16.726  -1.618  0.00  0.00     0.025 A 
ATOM     24  C   UNL d   1      26.018 -16.497  -1.742  0.00  0.00     0.017 A 
ENDBRANCH   1  18
TORSDOF 5
ENDMDL
MODEL 8
REMARK VINA RESULT:    -6.080      5.074      6.743
REMARK INTER + INTRA:          -9.808
REMARK INTER:                  -7.572
REMARK INTRA:                  -2.237
REMARK CONF_INDEPENDENT:        1.492
REMARK UNBOUND:                -2.237
REMARK  5 active torsions:
REMARK  status: ('A' for Active; 'I' for Inactive)
REMARK    1  A    between atoms: N_1  and  C_2 
REMARK    2  A    between atoms: C_2  and  C_15 
REMARK    3  A    between atoms: N_3  and  O_4 
REMARK    4  A    between atoms: O_4  and  C_5 
REMARK       I    between atoms: C_5  and  N_7 
REMARK    5  A    between atoms: N_7  and  C_8 
ROOT
ATOM      1  C   UNL d   1      25.909 -16.780  -0.559  0.00  0.00     0.159 C 
ATOM      2  N   UNL d   1      26.838 -17.409  -1.224  0.00  0.00    -0.105 NA
ENDROOT
BRANCH   2   3
ATOM      3  O   UNL d   1      28.120 -16.749  -1.215  0.00  0.00    -0.154 OA
BRANCH   3   4
ATOM      4  C   UNL d   1      28.022 -15.504  -1.849  0.00  0.00     0.389 C 
ATOM      5  O   UNL d   1      28.538 -14.471  -1.415  0.00  0.00    -0.236 OA
ATOM      6  N   UNL d   1      27.222 -15.537  -2.995  0.00  0.00    -0.301 N 
ATOM      7  H   UNL d   1      26.663 -16.367  -3.136  0.00  0.00     0.171 HD
BRANCH   6   8
ATOM      8  C   UNL d   1      26.927 -14.390  -3.789  0.00  0.00     0.037 A 
ATOM      9  C   UNL d   1      25.841 -13.556  -3.494  0.00  0.00     0.031 A 
ATOM     10  C   UNL d   1      25.552 -12.432  -4.283  0.00  0.00     0.026 A 
ATOM     11  C   UNL d   1      26.335 -12.144  -5.395  0.00  0.00     0.034 A 
ATOM     12 CL   UNL d   1      25.948 -10.794  -6.393  0.00  0.00    -0.084 Cl
ATOM     13  C   UNL d   1      27.430 -12.951  -5.699  0.00  0.00     0.026 A 
ATOM     14  C   UNL d   1      27.741 -14.056  -4.882  0.00  0.00     0.031 A 
ENDBRANCH   6   8
ENDBRANCH   3   4
ENDBRANCH   2   3
BRANCH   1  15
ATOM     15  N   UNL d   1      26.099 -15.603   0.125  0.00  0.00    -0.382 N 
ATOM     16  H   UNL d   1      25.280 -15.086   0.411  0.00  0.00     0.157 HD
ATOM     17  H   UNL d   1      26.952 -15.069   0.000  0.00  0.00     0.157 HD
ENDBRANCH   1  15
BRANCH   1  18
ATOM     18  C   UNL d   1      24.501 -17.355  -0.538  0.00  0.00     0.012 A 
ATOM     19  C   UNL d   1      24.310 -18.707  -0.195  0.00  0.00     0.017 A 
ATOM     20  C   UNL d   1      23.029 -19.280  -0.204  0.00  0.00     0.025 A 
ATOM     21  C   UNL d   1      21.927 -18.507  -0.562  0.00  0.00     0.034 A 
ATOM     22 CL   UNL d   1      20.359 -19.221  -0.600  0.00  0.00    -0.084 Cl
ATOM     23  C   UNL d   1      22.096 -17.164  -0.892  0.00  0.00     0.025 A 
ATOM     24  C   UNL d   1      23.380 -16.585  -0.876  0.00  0.00     0.017 A 
ENDBRANCH   1  18
TORSDOF 5
ENDMDL
MODEL 9
REMARK VINA RESULT:    -6.049      4.840      6.742
REMARK INTER + INTRA:          -9.805
REMARK INTER:                  -7.540
REMARK INTRA:                  -2.265
REMARK CONF_INDEPENDENT:        1.492
REMARK UNBOUND:                -2.265
REMARK  5 active torsions:
REMARK  status: ('A' for Active; 'I' for Inactive)
REMARK    1  A    between atoms: N_1  and  C_2 
REMARK    2  A    between atoms: C_2  and  C_15 
REMARK    3  A    between atoms: N_3  and  O_4 
REMARK    4  A    between atoms: O_4  and  C_5 
REMARK       I    between atoms: C_5  and  N_7 
REMARK    5  A    between atoms: N_7  and  C_8 
ROOT
ATOM      1  C   UNL d   1      25.941 -16.776  -0.090  0.00  0.00     0.159 C 
ATOM      2  N   UNL d   1      26.974 -17.570  -0.043  0.00  0.00    -0.105 NA
ENDROOT
BRANCH   2   3
ATOM      3  O   UNL d   1      28.232 -16.891   0.142  0.00  0.00    -0.154 OA
BRANCH   3   4
ATOM      4  C   UNL d   1      28.481 -16.041  -0.942  0.00  0.00     0.389 C 
ATOM      5  O   UNL d   1      28.871 -14.876  -0.825  0.00  0.00    -0.236 OA
ATOM      6  N   UNL d   1      28.179 -16.626  -2.176  0.00  0.00    -0.301 N 
ATOM      7  H   UNL d   1      27.654 -17.489  -2.153  0.00  0.00     0.171 HD
BRANCH   6   8
ATOM      8  C   UNL d   1      28.300 -15.950  -3.424  0.00  0.00     0.037 A 
ATOM      9  C   UNL d   1      29.448 -16.076  -4.216  0.00  0.00     0.031 A 
ATOM     10  C   UNL d   1      29.565 -15.402  -5.442  0.00  0.00     0.026 A 
ATOM     11  C   UNL d   1      28.539 -14.570  -5.877  0.00  0.00     0.034 A 
ATOM     12 CL   UNL d   1      28.705 -13.702  -7.356  0.00  0.00    -0.084 Cl
ATOM     13  C   UNL d   1      27.381 -14.441  -5.113  0.00  0.00     0.026 A 
ATOM     14  C   UNL d   1      27.251 -15.149  -3.902  0.00  0.00     0.031 A 
ENDBRANCH   6   8
ENDBRANCH   3   4
ENDBRANCH   2   3
BRANCH   1  15
ATOM     15  N   UNL d   1      25.999 -15.410   0.045  0.00  0.00    -0.382 N 
ATOM     16  H   UNL d   1      26.909 -14.985   0.156  0.00  0.00     0.157 HD
ATOM     17  H   UNL d   1      25.209 -14.898   0.424  0.00  0.00     0.157 HD
ENDBRANCH   1  15
BRANCH   1  18
ATOM     18  C   UNL d   1      24.563 -17.374  -0.330  0.00  0.00     0.012 A 
ATOM     19  C   UNL d   1      23.460 -16.521  -0.521  0.00  0.00     0.017 A 
ATOM     20  C   UNL d   1      22.170 -17.039  -0.706  0.00  0.00     0.025 A 
ATOM     21  C   UNL d   1      21.968 -18.418  -0.696  0.00  0.00     0.034 A 
ATOM     22 CL   UNL d   1      20.378 -19.050  -0.895  0.00  0.00    -0.084 Cl
ATOM     23  C   UNL d   1      23.051 -19.278  -0.520  0.00  0.00     0.025 A 
ATOM     24  C   UNL d   1      24.348 -18.760  -0.343  0.00  0.00     0.017 A 
ENDBRANCH   1  18
TORSDOF 5
ENDMDL
