MODEL 1
REMARK VINA RESULT:   -10.788      0.000      0.000
REMARK INTER + INTRA:         -16.070
REMARK INTER:                 -13.472
REMARK INTRA:                  -2.598
REMARK CONF_INDEPENDENT:        2.685
REMARK UNBOUND:                -2.598
REMARK  9 active torsions:
REMARK  status: ('A' for Active; 'I' for Inactive)
REMARK    1  A    between atoms: C_2  and  C_3 
REMARK    2  A    between atoms: C_3  and  C_5 
REMARK    3  A    between atoms: C_8  and  N_9 
REMARK       I    between atoms: N_9  and  C_10 
REMARK    4  A    between atoms: C_10  and  C_12 
REMARK    5  A    between atoms: C_12  and  S_13 
REMARK    6  A    between atoms: S_13  and  C_14 
REMARK    7  A    between atoms: C_17  and  C_18 
REMARK    8  A    between atoms: C_20  and  C_21 
REMARK    9  A    between atoms: N_30  and  N_31 
ROOT
ATOM      1  C   UNL d   1      27.773 -14.251   0.397  0.00  0.00     0.210 A 
ATOM      2  N   UNL d   1      26.696 -13.646   0.840  0.00  0.00    -0.120 NA
ATOM      3  N   UNL d   1      26.851 -13.485   2.208  0.00  0.00    -0.125 NA
ATOM      4  C   UNL d   1      28.050 -13.929   2.550  0.00  0.00     0.203 A 
ATOM      5  N   UNL d   1      28.676 -14.428   1.427  0.00  0.00    -0.215 N 
ENDROOT
BRANCH   1   6
ATOM      6  S   UNL d   1      28.144 -14.716  -1.213  0.00  0.00    -0.079 SA
BRANCH   6   7
ATOM      7  C   UNL d   1      26.772 -14.102  -2.288  0.00  0.00     0.185 C 
BRANCH   7   8
ATOM      8  C   UNL d   1      25.644 -15.149  -2.221  0.00  0.00     0.231 C 
ATOM      9  N   UNL d   1      25.236 -15.591  -0.964  0.00  0.00    -0.327 N 
ATOM     10  H   UNL d   1      25.715 -15.255  -0.136  0.00  0.00     0.169 HD
ATOM     11  O   UNL d   1      25.149 -15.571  -3.278  0.00  0.00    -0.272 OA
BRANCH   9  12
ATOM     12  C   UNL d   1      24.247 -16.605  -0.758  0.00  0.00     0.034 A 
ATOM     13  C   UNL d   1      24.624 -17.929  -0.523  0.00  0.00     0.030 A 
ATOM     14  C   UNL d   1      23.649 -18.942  -0.428  0.00  0.00     0.010 A 
ATOM     15  C   UNL d   1      22.276 -18.647  -0.478  0.00  0.00    -0.054 A 
ATOM     16  C   UNL d   1      21.912 -17.327  -0.715  0.00  0.00     0.010 A 
ATOM     17  C   UNL d   1      22.876 -16.334  -0.824  0.00  0.00     0.030 A 
BRANCH  15  18
ATOM     18  C   UNL d   1      21.164 -19.652  -0.209  0.00  0.00     0.014 C 
ATOM     19  C   UNL d   1      20.056 -19.475  -1.269  0.00  0.00     0.015 C 
BRANCH  18  20
ATOM     20  C   UNL d   1      20.581 -19.520   1.206  0.00  0.00     0.004 C 
ATOM     21  C   UNL d   1      19.083 -19.736   1.266  0.00  0.00     0.006 C 
ENDBRANCH  18  20
ENDBRANCH  15  18
ENDBRANCH   9  12
ENDBRANCH   7   8
ENDBRANCH   6   7
ENDBRANCH   1   6
BRANCH   5  22
ATOM     22  N   UNL d   1      29.874 -15.225   1.389  0.00  0.00    -0.335 N 
ATOM     23  H   UNL d   1      29.798 -16.156   0.992  0.00  0.00     0.177 HD
ATOM     24  H   UNL d   1      30.442 -15.200   2.231  0.00  0.00     0.177 HD
ENDBRANCH   5  22
BRANCH   4  25
ATOM     25  C   UNL d   1      28.636 -13.920   3.926  0.00  0.00     0.128 A 
ATOM     26  C   UNL d   1      28.004 -13.374   5.069  0.00  0.00     0.069 A 
ATOM     27  C   UNL d   1      28.889 -13.551   6.112  0.00  0.00     0.062 A 
ATOM     28  N   UNL d   1      29.977 -14.170   5.547  0.00  0.00    -0.277 N 
ATOM     29  N   UNL d   1      29.831 -14.440   4.235  0.00  0.00    -0.171 NA
ATOM     30  H   UNL d   1      30.822 -14.486   6.012  0.00  0.00     0.189 HD
BRANCH  27  31
ATOM     31  C   UNL d   1      28.732 -13.346   7.546  0.00  0.00    -0.008 A 
ATOM     32  C   UNL d   1      28.468 -12.083   8.089  0.00  0.00     0.015 A 
ATOM     33  C   UNL d   1      28.453 -11.905   9.479  0.00  0.00     0.024 A 
ATOM     34  C   UNL d   1      28.630 -13.001  10.323  0.00  0.00     0.034 A 
ATOM     35 CL   UNL d   1      28.537 -12.794  12.028  0.00  0.00    -0.084 Cl
ATOM     36  C   UNL d   1      28.855 -14.268   9.793  0.00  0.00     0.024 A 
ATOM     37  C   UNL d   1      28.905 -14.437   8.408  0.00  0.00     0.015 A 
ENDBRANCH  27  31
ENDBRANCH   4  25
TORSDOF 9
ENDMDL
MODEL 2
REMARK VINA RESULT:   -10.535      1.289      1.742
REMARK INTER + INTRA:         -15.109
REMARK INTER:                 -13.219
REMARK INTRA:                  -1.889
REMARK CONF_INDEPENDENT:        2.685
REMARK UNBOUND:                -1.889
REMARK  9 active torsions:
REMARK  status: ('A' for Active; 'I' for Inactive)
REMARK    1  A    between atoms: C_2  and  C_3 
REMARK    2  A    between atoms: C_3  and  C_5 
REMARK    3  A    between atoms: C_8  and  N_9 
REMARK       I    between atoms: N_9  and  C_10 
REMARK    4  A    between atoms: C_10  and  C_12 
REMARK    5  A    between atoms: C_12  and  S_13 
REMARK    6  A    between atoms: S_13  and  C_14 
REMARK    7  A    between atoms: C_17  and  C_18 
REMARK    8  A    between atoms: C_20  and  C_21 
REMARK    9  A    between atoms: N_30  and  N_31 
ROOT
ATOM      1  C   UNL d   1      27.113 -13.612   0.650  0.00  0.00     0.210 A 
ATOM      2  N   UNL d   1      26.190 -12.818   1.139  0.00  0.00    -0.120 NA
ATOM      3  N   UNL d   1      26.281 -12.887   2.521  0.00  0.00    -0.125 NA
ATOM      4  C   UNL d   1      27.307 -13.663   2.835  0.00  0.00     0.203 A 
ATOM      5  N   UNL d   1      27.869 -14.149   1.674  0.00  0.00    -0.215 N 
ENDROOT
BRANCH   1   6
ATOM      6  S   UNL d   1      27.472 -13.936  -0.997  0.00  0.00    -0.079 SA
BRANCH   6   7
ATOM      7  C   UNL d   1      28.155 -15.652  -1.078  0.00  0.00     0.185 C 
BRANCH   7   8
ATOM      8  C   UNL d   1      27.012 -16.611  -0.701  0.00  0.00     0.231 C 
ATOM      9  N   UNL d   1      25.746 -16.361  -1.230  0.00  0.00    -0.327 N 
ATOM     10  H   UNL d   1      25.599 -15.538  -1.805  0.00  0.00     0.169 HD
ATOM     11  O   UNL d   1      27.247 -17.558   0.066  0.00  0.00    -0.272 OA
BRANCH   9  12
ATOM     12  C   UNL d   1      24.583 -17.132  -0.912  0.00  0.00     0.034 A 
ATOM     13  C   UNL d   1      23.315 -16.543  -0.922  0.00  0.00     0.030 A 
ATOM     14  C   UNL d   1      22.186 -17.276  -0.506  0.00  0.00     0.010 A 
ATOM     15  C   UNL d   1      22.280 -18.633  -0.154  0.00  0.00    -0.054 A 
ATOM     16  C   UNL d   1      23.545 -19.207  -0.145  0.00  0.00     0.010 A 
ATOM     17  C   UNL d   1      24.658 -18.477  -0.541  0.00  0.00     0.030 A 
BRANCH  15  18
ATOM     18  C   UNL d   1      21.089 -19.537   0.137  0.00  0.00     0.014 C 
ATOM     19  C   UNL d   1      20.003 -19.302  -0.934  0.00  0.00     0.015 C 
BRANCH  18  20
ATOM     20  C   UNL d   1      20.515 -19.316   1.544  0.00  0.00     0.004 C 
ATOM     21  C   UNL d   1      19.532 -20.388   1.971  0.00  0.00     0.006 C 
ENDBRANCH  18  20
ENDBRANCH  15  18
ENDBRANCH   9  12
ENDBRANCH   7   8
ENDBRANCH   6   7
ENDBRANCH   1   6
BRANCH   5  22
ATOM     22  N   UNL d   1      28.834 -15.212   1.561  0.00  0.00    -0.335 N 
ATOM     23  H   UNL d   1      28.509 -16.092   1.173  0.00  0.00     0.177 HD
ATOM     24  H   UNL d   1      29.442 -15.335   2.365  0.00  0.00     0.177 HD
ENDBRANCH   5  22
BRANCH   4  25
ATOM     25  C   UNL d   1      27.777 -13.987   4.217  0.00  0.00     0.128 A 
ATOM     26  C   UNL d   1      28.131 -13.027   5.196  0.00  0.00     0.069 A 
ATOM     27  C   UNL d   1      28.526 -13.745   6.306  0.00  0.00     0.062 A 
ATOM     28  N   UNL d   1      28.398 -15.061   5.934  0.00  0.00    -0.277 N 
ATOM     29  N   UNL d   1      27.909 -15.232   4.691  0.00  0.00    -0.171 NA
ATOM     30  H   UNL d   1      28.571 -15.885   6.501  0.00  0.00     0.189 HD
BRANCH  27  31
ATOM     31  C   UNL d   1      28.838 -13.315   7.662  0.00  0.00    -0.008 A 
ATOM     32  C   UNL d   1      29.097 -14.231   8.689  0.00  0.00     0.015 A 
ATOM     33  C   UNL d   1      29.265 -13.781  10.005  0.00  0.00     0.024 A 
ATOM     34  C   UNL d   1      29.245 -12.414  10.282  0.00  0.00     0.034 A 
ATOM     35 CL   UNL d   1      29.525 -11.860  11.886  0.00  0.00    -0.084 Cl
ATOM     36  C   UNL d   1      29.027 -11.494   9.262  0.00  0.00     0.024 A 
ATOM     37  C   UNL d   1      28.824 -11.945   7.957  0.00  0.00     0.015 A 
ENDBRANCH  27  31
ENDBRANCH   4  25
TORSDOF 9
ENDMDL
MODEL 3
REMARK VINA RESULT:    -9.702      6.915     10.057
REMARK INTER + INTRA:         -14.277
REMARK INTER:                 -12.387
REMARK INTRA:                  -1.890
REMARK CONF_INDEPENDENT:        2.685
REMARK UNBOUND:                -1.890
REMARK  9 active torsions:
REMARK  status: ('A' for Active; 'I' for Inactive)
REMARK    1  A    between atoms: C_2  and  C_3 
REMARK    2  A    between atoms: C_3  and  C_5 
REMARK    3  A    between atoms: C_8  and  N_9 
REMARK       I    between atoms: N_9  and  C_10 
REMARK    4  A    between atoms: C_10  and  C_12 
REMARK    5  A    between atoms: C_12  and  S_13 
REMARK    6  A    between atoms: S_13  and  C_14 
REMARK    7  A    between atoms: C_17  and  C_18 
REMARK    8  A    between atoms: C_20  and  C_21 
REMARK    9  A    between atoms: N_30  and  N_31 
ROOT
ATOM      1  C   UNL d   1      26.074 -14.352  -2.639  0.00  0.00     0.210 A 
ATOM      2  N   UNL d   1      24.897 -13.948  -3.052  0.00  0.00    -0.120 NA
ATOM      3  N   UNL d   1      23.962 -14.849  -2.565  0.00  0.00    -0.125 NA
ATOM      4  C   UNL d   1      24.589 -15.735  -1.807  0.00  0.00     0.203 A 
ATOM      5  N   UNL d   1      25.939 -15.458  -1.824  0.00  0.00    -0.215 N 
ENDROOT
BRANCH   1   6
ATOM      6  S   UNL d   1      27.606 -13.636  -2.936  0.00  0.00    -0.079 SA
BRANCH   6   7
ATOM      7  C   UNL d   1      27.727 -13.341  -4.756  0.00  0.00     0.185 C 
BRANCH   7   8
ATOM      8  C   UNL d   1      28.172 -14.667  -5.399  0.00  0.00     0.231 C 
ATOM      9  N   UNL d   1      29.397 -15.205  -5.009  0.00  0.00    -0.327 N 
ATOM     10  H   UNL d   1      29.981 -14.695  -4.355  0.00  0.00     0.169 HD
ATOM     11  O   UNL d   1      27.440 -15.202  -6.247  0.00  0.00    -0.272 OA
BRANCH   9  12
ATOM     12  C   UNL d   1      29.961 -16.394  -5.571  0.00  0.00     0.034 A 
ATOM     13  C   UNL d   1      30.116 -17.545  -4.793  0.00  0.00     0.030 A 
ATOM     14  C   UNL d   1      30.768 -18.678  -5.318  0.00  0.00     0.010 A 
ATOM     15  C   UNL d   1      31.201 -18.722  -6.655  0.00  0.00    -0.054 A 
ATOM     16  C   UNL d   1      31.045 -17.573  -7.419  0.00  0.00     0.010 A 
ATOM     17  C   UNL d   1      30.415 -16.452  -6.892  0.00  0.00     0.030 A 
BRANCH  15  18
ATOM     18  C   UNL d   1      31.753 -19.963  -7.345  0.00  0.00     0.014 C 
ATOM     19  C   UNL d   1      31.172 -20.047  -8.773  0.00  0.00     0.015 C 
BRANCH  18  20
ATOM     20  C   UNL d   1      31.453 -21.251  -6.565  0.00  0.00     0.004 C 
ATOM     21  C   UNL d   1      32.597 -21.703  -5.680  0.00  0.00     0.006 C 
ENDBRANCH  18  20
ENDBRANCH  15  18
ENDBRANCH   9  12
ENDBRANCH   7   8
ENDBRANCH   6   7
ENDBRANCH   1   6
BRANCH   5  22
ATOM     22  N   UNL d   1      27.001 -16.305  -1.346  0.00  0.00    -0.335 N 
ATOM     23  H   UNL d   1      27.721 -16.565  -2.012  0.00  0.00     0.177 HD
ATOM     24  H   UNL d   1      26.708 -17.082  -0.759  0.00  0.00     0.177 HD
ENDBRANCH   5  22
BRANCH   4  25
ATOM     25  C   UNL d   1      23.955 -16.868  -1.065  0.00  0.00     0.128 A 
ATOM     26  C   UNL d   1      22.560 -17.041  -0.892  0.00  0.00     0.069 A 
ATOM     27  C   UNL d   1      22.411 -18.186  -0.137  0.00  0.00     0.062 A 
ATOM     28  N   UNL d   1      23.692 -18.618   0.100  0.00  0.00    -0.277 N 
ATOM     29  N   UNL d   1      24.641 -17.861  -0.485  0.00  0.00    -0.171 NA
ATOM     30  H   UNL d   1      23.983 -19.451   0.601  0.00  0.00     0.189 HD
BRANCH  27  31
ATOM     31  C   UNL d   1      21.222 -18.950   0.217  0.00  0.00    -0.008 A 
ATOM     32  C   UNL d   1      20.894 -19.236   1.547  0.00  0.00     0.015 A 
ATOM     33  C   UNL d   1      19.815 -20.082   1.838  0.00  0.00     0.024 A 
ATOM     34  C   UNL d   1      19.024 -20.582   0.804  0.00  0.00     0.034 A 
ATOM     35 CL   UNL d   1      17.656 -21.560   1.168  0.00  0.00    -0.084 Cl
ATOM     36  C   UNL d   1      19.319 -20.272  -0.520  0.00  0.00     0.024 A 
ATOM     37  C   UNL d   1      20.415 -19.458  -0.810  0.00  0.00     0.015 A 
ENDBRANCH  27  31
ENDBRANCH   4  25
TORSDOF 9
ENDMDL
MODEL 4
REMARK VINA RESULT:    -8.535      3.882      9.537
REMARK INTER + INTRA:         -13.525
REMARK INTER:                 -11.220
REMARK INTRA:                  -2.305
REMARK CONF_INDEPENDENT:        2.685
REMARK UNBOUND:                -2.305
REMARK  9 active torsions:
REMARK  status: ('A' for Active; 'I' for Inactive)
REMARK    1  A    between atoms: C_2  and  C_3 
REMARK    2  A    between atoms: C_3  and  C_5 
REMARK    3  A    between atoms: C_8  and  N_9 
REMARK       I    between atoms: N_9  and  C_10 
REMARK    4  A    between atoms: C_10  and  C_12 
REMARK    5  A    between atoms: C_12  and  S_13 
REMARK    6  A    between atoms: S_13  and  C_14 
REMARK    7  A    between atoms: C_17  and  C_18 
REMARK    8  A    between atoms: C_20  and  C_21 
REMARK    9  A    between atoms: N_30  and  N_31 
ROOT
ATOM      1  C   UNL d   1      26.425 -14.016  -3.010  0.00  0.00     0.210 A 
ATOM      2  N   UNL d   1      25.290 -13.791  -3.628  0.00  0.00    -0.120 NA
ATOM      3  N   UNL d   1      24.377 -14.723  -3.160  0.00  0.00    -0.125 NA
ATOM      4  C   UNL d   1      24.961 -15.443  -2.215  0.00  0.00     0.203 A 
ATOM      5  N   UNL d   1      26.270 -15.029  -2.084  0.00  0.00    -0.215 N 
ENDROOT
BRANCH   1   6
ATOM      6  S   UNL d   1      27.915 -13.181  -3.187  0.00  0.00    -0.079 SA
BRANCH   6   7
ATOM      7  C   UNL d   1      27.899 -11.778  -1.984  0.00  0.00     0.185 C 
BRANCH   7   8
ATOM      8  C   UNL d   1      28.069 -12.386  -0.579  0.00  0.00     0.231 C 
ATOM      9  N   UNL d   1      27.584 -11.662   0.509  0.00  0.00    -0.327 N 
ATOM     10  H   UNL d   1      27.178 -10.745   0.359  0.00  0.00     0.169 HD
ATOM     11  O   UNL d   1      28.639 -13.481  -0.461  0.00  0.00    -0.272 OA
BRANCH   9  12
ATOM     12  C   UNL d   1      27.732 -12.076   1.871  0.00  0.00     0.034 A 
ATOM     13  C   UNL d   1      28.474 -11.308   2.772  0.00  0.00     0.030 A 
ATOM     14  C   UNL d   1      28.707 -11.772   4.081  0.00  0.00     0.010 A 
ATOM     15  C   UNL d   1      28.135 -12.967   4.550  0.00  0.00    -0.054 A 
ATOM     16  C   UNL d   1      27.401 -13.725   3.646  0.00  0.00     0.010 A 
ATOM     17  C   UNL d   1      27.187 -13.271   2.351  0.00  0.00     0.030 A 
BRANCH  15  18
ATOM     18  C   UNL d   1      28.193 -13.447   5.994  0.00  0.00     0.014 C 
ATOM     19  C   UNL d   1      28.058 -12.232   6.937  0.00  0.00     0.015 C 
BRANCH  18  20
ATOM     20  C   UNL d   1      29.480 -14.227   6.302  0.00  0.00     0.004 C 
ATOM     21  C   UNL d   1      29.950 -15.096   5.154  0.00  0.00     0.006 C 
ENDBRANCH  18  20
ENDBRANCH  15  18
ENDBRANCH   9  12
ENDBRANCH   7   8
ENDBRANCH   6   7
ENDBRANCH   1   6
BRANCH   5  22
ATOM     22  N   UNL d   1      27.319 -15.698  -1.361  0.00  0.00    -0.335 N 
ATOM     23  H   UNL d   1      28.266 -15.361  -1.504  0.00  0.00     0.177 HD
ATOM     24  H   UNL d   1      27.259 -16.712  -1.343  0.00  0.00     0.177 HD
ENDBRANCH   5  22
BRANCH   4  25
ATOM     25  C   UNL d   1      24.327 -16.544  -1.425  0.00  0.00     0.128 A 
ATOM     26  C   UNL d   1      22.932 -16.723  -1.265  0.00  0.00     0.069 A 
ATOM     27  C   UNL d   1      22.782 -17.829  -0.454  0.00  0.00     0.062 A 
ATOM     28  N   UNL d   1      24.064 -18.233  -0.174  0.00  0.00    -0.277 N 
ATOM     29  N   UNL d   1      25.015 -17.496  -0.783  0.00  0.00    -0.171 NA
ATOM     30  H   UNL d   1      24.356 -19.036   0.375  0.00  0.00     0.189 HD
BRANCH  27  31
ATOM     31  C   UNL d   1      21.596 -18.587  -0.080  0.00  0.00    -0.008 A 
ATOM     32  C   UNL d   1      21.340 -18.956   1.246  0.00  0.00     0.015 A 
ATOM     33  C   UNL d   1      20.258 -19.795   1.545  0.00  0.00     0.024 A 
ATOM     34  C   UNL d   1      19.393 -20.204   0.530  0.00  0.00     0.034 A 
ATOM     35 CL   UNL d   1      18.023 -21.172   0.911  0.00  0.00    -0.084 Cl
ATOM     36  C   UNL d   1      19.617 -19.812  -0.785  0.00  0.00     0.024 A 
ATOM     37  C   UNL d   1      20.715 -19.005  -1.087  0.00  0.00     0.015 A 
ENDBRANCH  27  31
ENDBRANCH   4  25
TORSDOF 9
ENDMDL
MODEL 5
REMARK VINA RESULT:    -8.360      6.878     10.202
REMARK INTER + INTRA:         -13.334
REMARK INTER:                 -11.044
REMARK INTRA:                  -2.290
REMARK CONF_INDEPENDENT:        2.685
REMARK UNBOUND:                -2.290
REMARK  9 active torsions:
REMARK  status: ('A' for Active; 'I' for Inactive)
REMARK    1  A    between atoms: C_2  and  C_3 
REMARK    2  A    between atoms: C_3  and  C_5 
REMARK    3  A    between atoms: C_8  and  N_9 
REMARK       I    between atoms: N_9  and  C_10 
REMARK    4  A    between atoms: C_10  and  C_12 
REMARK    5  A    between atoms: C_12  and  S_13 
REMARK    6  A    between atoms: S_13  and  C_14 
REMARK    7  A    between atoms: C_17  and  C_18 
REMARK    8  A    between atoms: C_20  and  C_21 
REMARK    9  A    between atoms: N_30  and  N_31 
ROOT
ATOM      1  C   UNL d   1      27.076 -14.828  -3.080  0.00  0.00     0.210 A 
ATOM      2  N   UNL d   1      25.963 -14.446  -3.659  0.00  0.00    -0.120 NA
ATOM      3  N   UNL d   1      24.934 -15.182  -3.091  0.00  0.00    -0.125 NA
ATOM      4  C   UNL d   1      25.440 -15.939  -2.130  0.00  0.00     0.203 A 
ATOM      5  N   UNL d   1      26.805 -15.747  -2.085  0.00  0.00    -0.215 N 
ENDROOT
BRANCH   1   6
ATOM      6  S   UNL d   1      28.672 -14.269  -3.376  0.00  0.00    -0.079 SA
BRANCH   6   7
ATOM      7  C   UNL d   1      29.152 -14.857  -5.061  0.00  0.00     0.185 C 
BRANCH   7   8
ATOM      8  C   UNL d   1      29.638 -16.311  -4.911  0.00  0.00     0.231 C 
ATOM      9  N   UNL d   1      30.208 -16.928  -6.023  0.00  0.00    -0.327 N 
ATOM     10  H   UNL d   1      30.246 -16.430  -6.906  0.00  0.00     0.169 HD
ATOM     11  O   UNL d   1      29.495 -16.885  -3.820  0.00  0.00    -0.272 OA
BRANCH   9  12
ATOM     12  C   UNL d   1      30.642 -18.291  -6.043  0.00  0.00     0.034 A 
ATOM     13  C   UNL d   1      30.780 -18.977  -7.253  0.00  0.00     0.030 A 
ATOM     14  C   UNL d   1      31.103 -20.348  -7.262  0.00  0.00     0.010 A 
ATOM     15  C   UNL d   1      31.382 -21.045  -6.074  0.00  0.00    -0.054 A 
ATOM     16  C   UNL d   1      31.240 -20.355  -4.877  0.00  0.00     0.010 A 
ATOM     17  C   UNL d   1      30.906 -19.008  -4.871  0.00  0.00     0.030 A 
BRANCH  15  18
ATOM     18  C   UNL d   1      31.906 -22.474  -6.012  0.00  0.00     0.014 C 
ATOM     19  C   UNL d   1      32.722 -22.657  -4.714  0.00  0.00     0.015 C 
BRANCH  18  20
ATOM     20  C   UNL d   1      32.755 -22.842  -7.238  0.00  0.00     0.004 C 
ATOM     21  C   UNL d   1      32.177 -23.981  -8.054  0.00  0.00     0.006 C 
ENDBRANCH  18  20
ENDBRANCH  15  18
ENDBRANCH   9  12
ENDBRANCH   7   8
ENDBRANCH   6   7
ENDBRANCH   1   6
BRANCH   5  22
ATOM     22  N   UNL d   1      27.766 -16.544  -1.369  0.00  0.00    -0.335 N 
ATOM     23  H   UNL d   1      28.471 -17.024  -1.920  0.00  0.00     0.177 HD
ATOM     24  H   UNL d   1      27.386 -17.122  -0.625  0.00  0.00     0.177 HD
ENDBRANCH   5  22
BRANCH   4  25
ATOM     25  C   UNL d   1      24.675 -16.870  -1.244  0.00  0.00     0.128 A 
ATOM     26  C   UNL d   1      23.274 -17.061  -1.291  0.00  0.00     0.069 A 
ATOM     27  C   UNL d   1      22.982 -17.975  -0.300  0.00  0.00     0.062 A 
ATOM     28  N   UNL d   1      24.194 -18.266   0.275  0.00  0.00    -0.277 N 
ATOM     29  N   UNL d   1      25.238 -17.641  -0.305  0.00  0.00    -0.171 NA
ATOM     30  H   UNL d   1      24.384 -18.925   1.024  0.00  0.00     0.189 HD
BRANCH  27  31
ATOM     31  C   UNL d   1      21.747 -18.679   0.019  0.00  0.00    -0.008 A 
ATOM     32  C   UNL d   1      21.368 -18.950   1.339  0.00  0.00     0.015 A 
ATOM     33  C   UNL d   1      20.241 -19.741   1.597  0.00  0.00     0.024 A 
ATOM     34  C   UNL d   1      19.455 -20.200   0.541  0.00  0.00     0.034 A 
ATOM     35 CL   UNL d   1      18.030 -21.108   0.864  0.00  0.00    -0.084 Cl
ATOM     36  C   UNL d   1      19.801 -19.904  -0.774  0.00  0.00     0.024 A 
ATOM     37  C   UNL d   1      20.944 -19.145  -1.032  0.00  0.00     0.015 A 
ENDBRANCH  27  31
ENDBRANCH   4  25
TORSDOF 9
ENDMDL
MODEL 6
REMARK VINA RESULT:    -8.253      7.039     10.273
REMARK INTER + INTRA:         -13.483
REMARK INTER:                 -10.938
REMARK INTRA:                  -2.545
REMARK CONF_INDEPENDENT:        2.685
REMARK UNBOUND:                -2.545
REMARK  9 active torsions:
REMARK  status: ('A' for Active; 'I' for Inactive)
REMARK    1  A    between atoms: C_2  and  C_3 
REMARK    2  A    between atoms: C_3  and  C_5 
REMARK    3  A    between atoms: C_8  and  N_9 
REMARK       I    between atoms: N_9  and  C_10 
REMARK    4  A    between atoms: C_10  and  C_12 
REMARK    5  A    between atoms: C_12  and  S_13 
REMARK    6  A    between atoms: S_13  and  C_14 
REMARK    7  A    between atoms: C_17  and  C_18 
REMARK    8  A    between atoms: C_20  and  C_21 
REMARK    9  A    between atoms: N_30  and  N_31 
ROOT
ATOM      1  C   UNL d   1      26.837 -14.753  -3.250  0.00  0.00     0.210 A 
ATOM      2  N   UNL d   1      25.684 -14.262  -3.637  0.00  0.00    -0.120 NA
ATOM      3  N   UNL d   1      24.693 -15.024  -3.038  0.00  0.00    -0.125 NA
ATOM      4  C   UNL d   1      25.270 -15.912  -2.244  0.00  0.00     0.203 A 
ATOM      5  N   UNL d   1      26.638 -15.778  -2.346  0.00  0.00    -0.215 N 
ENDROOT
BRANCH   1   6
ATOM      6  S   UNL d   1      28.413 -14.221  -3.673  0.00  0.00    -0.079 SA
BRANCH   6   7
ATOM      7  C   UNL d   1      28.419 -13.929  -5.498  0.00  0.00     0.185 C 
BRANCH   7   8
ATOM      8  C   UNL d   1      27.816 -12.532  -5.733  0.00  0.00     0.231 C 
ATOM      9  N   UNL d   1      26.796 -12.108  -4.882  0.00  0.00    -0.327 N 
ATOM     10  H   UNL d   1      26.447 -12.738  -4.168  0.00  0.00     0.169 HD
ATOM     11  O   UNL d   1      28.242 -11.840  -6.671  0.00  0.00    -0.272 OA
BRANCH   9  12
ATOM     12  C   UNL d   1      26.104 -10.864  -5.025  0.00  0.00     0.034 A 
ATOM     13  C   UNL d   1      25.793 -10.365  -6.293  0.00  0.00     0.030 A 
ATOM     14  C   UNL d   1      25.208  -9.091  -6.434  0.00  0.00     0.010 A 
ATOM     15  C   UNL d   1      24.841  -8.324  -5.316  0.00  0.00    -0.054 A 
ATOM     16  C   UNL d   1      25.157  -8.827  -4.060  0.00  0.00     0.010 A 
ATOM     17  C   UNL d   1      25.748 -10.077  -3.926  0.00  0.00     0.030 A 
BRANCH  15  18
ATOM     18  C   UNL d   1      24.051  -7.023  -5.380  0.00  0.00     0.014 C 
ATOM     19  C   UNL d   1      22.542  -7.344  -5.315  0.00  0.00     0.015 C 
BRANCH  18  20
ATOM     20  C   UNL d   1      24.373  -6.202  -6.637  0.00  0.00     0.004 C 
ATOM     21  C   UNL d   1      23.290  -6.266  -7.696  0.00  0.00     0.006 C 
ENDBRANCH  18  20
ENDBRANCH  15  18
ENDBRANCH   9  12
ENDBRANCH   7   8
ENDBRANCH   6   7
ENDBRANCH   1   6
BRANCH   5  22
ATOM     22  N   UNL d   1      27.635 -16.692  -1.854  0.00  0.00    -0.335 N 
ATOM     23  H   UNL d   1      28.356 -16.984  -2.506  0.00  0.00     0.177 HD
ATOM     24  H   UNL d   1      27.282 -17.458  -1.287  0.00  0.00     0.177 HD
ENDBRANCH   5  22
BRANCH   4  25
ATOM     25  C   UNL d   1      24.568 -16.918  -1.387  0.00  0.00     0.128 A 
ATOM     26  C   UNL d   1      23.163 -17.041  -1.272  0.00  0.00     0.069 A 
ATOM     27  C   UNL d   1      22.944 -18.064  -0.373  0.00  0.00     0.062 A 
ATOM     28  N   UNL d   1      24.199 -18.478  -0.003  0.00  0.00    -0.277 N 
ATOM     29  N   UNL d   1      25.197 -17.828  -0.633  0.00  0.00    -0.171 NA
ATOM     30  H   UNL d   1      24.441 -19.236   0.627  0.00  0.00     0.189 HD
BRANCH  27  31
ATOM     31  C   UNL d   1      21.719 -18.750   0.016  0.00  0.00    -0.008 A 
ATOM     32  C   UNL d   1      21.376 -18.950   1.358  0.00  0.00     0.015 A 
ATOM     33  C   UNL d   1      20.257 -19.726   1.689  0.00  0.00     0.024 A 
ATOM     34  C   UNL d   1      19.444 -20.241   0.680  0.00  0.00     0.034 A 
ATOM     35 CL   UNL d   1      18.030 -21.131   1.089  0.00  0.00    -0.084 Cl
ATOM     36  C   UNL d   1      19.755 -20.015  -0.657  0.00  0.00     0.024 A 
ATOM     37  C   UNL d   1      20.889 -19.271  -0.986  0.00  0.00     0.015 A 
ENDBRANCH  27  31
ENDBRANCH   4  25
TORSDOF 9
ENDMDL
MODEL 7
REMARK VINA RESULT:    -8.191      3.816      9.839
REMARK INTER + INTRA:         -13.313
REMARK INTER:                 -10.876
REMARK INTRA:                  -2.437
REMARK CONF_INDEPENDENT:        2.685
REMARK UNBOUND:                -2.437
REMARK  9 active torsions:
REMARK  status: ('A' for Active; 'I' for Inactive)
REMARK    1  A    between atoms: C_2  and  C_3 
REMARK    2  A    between atoms: C_3  and  C_5 
REMARK    3  A    between atoms: C_8  and  N_9 
REMARK       I    between atoms: N_9  and  C_10 
REMARK    4  A    between atoms: C_10  and  C_12 
REMARK    5  A    between atoms: C_12  and  S_13 
REMARK    6  A    between atoms: S_13  and  C_14 
REMARK    7  A    between atoms: C_17  and  C_18 
REMARK    8  A    between atoms: C_20  and  C_21 
REMARK    9  A    between atoms: N_30  and  N_31 
ROOT
ATOM      1  C   UNL d   1      28.039 -16.241  -0.865  0.00  0.00     0.210 A 
ATOM      2  N   UNL d   1      28.122 -16.936   0.245  0.00  0.00    -0.120 NA
ATOM      3  N   UNL d   1      26.833 -17.322   0.582  0.00  0.00    -0.125 NA
ATOM      4  C   UNL d   1      26.010 -16.915  -0.371  0.00  0.00     0.203 A 
ATOM      5  N   UNL d   1      26.734 -16.219  -1.316  0.00  0.00    -0.215 N 
ENDROOT
BRANCH   1   6
ATOM      6  S   UNL d   1      29.309 -15.502  -1.752  0.00  0.00    -0.079 SA
BRANCH   6   7
ATOM      7  C   UNL d   1      30.779 -15.419  -0.635  0.00  0.00     0.185 C 
BRANCH   7   8
ATOM      8  C   UNL d   1      30.436 -14.425   0.490  0.00  0.00     0.231 C 
ATOM      9  N   UNL d   1      29.670 -14.887   1.560  0.00  0.00    -0.327 N 
ATOM     10  H   UNL d   1      29.322 -15.839   1.550  0.00  0.00     0.169 HD
ATOM     11  O   UNL d   1      30.834 -13.253   0.402  0.00  0.00    -0.272 OA
BRANCH   9  12
ATOM     12  C   UNL d   1      29.225 -14.058   2.637  0.00  0.00     0.034 A 
ATOM     13  C   UNL d   1      29.210 -14.541   3.948  0.00  0.00     0.030 A 
ATOM     14  C   UNL d   1      28.672 -13.761   4.990  0.00  0.00     0.010 A 
ATOM     15  C   UNL d   1      28.217 -12.451   4.767  0.00  0.00    -0.054 A 
ATOM     16  C   UNL d   1      28.233 -11.980   3.460  0.00  0.00     0.010 A 
ATOM     17  C   UNL d   1      28.750 -12.758   2.433  0.00  0.00     0.030 A 
BRANCH  15  18
ATOM     18  C   UNL d   1      27.786 -11.484   5.862  0.00  0.00     0.014 C 
ATOM     19  C   UNL d   1      28.244 -10.059   5.489  0.00  0.00     0.015 C 
BRANCH  18  20
ATOM     20  C   UNL d   1      28.332 -11.881   7.242  0.00  0.00     0.004 C 
ATOM     21  C   UNL d   1      29.846 -11.875   7.319  0.00  0.00     0.006 C 
ENDBRANCH  18  20
ENDBRANCH  15  18
ENDBRANCH   9  12
ENDBRANCH   7   8
ENDBRANCH   6   7
ENDBRANCH   1   6
BRANCH   5  22
ATOM     22  N   UNL d   1      26.208 -15.401  -2.377  0.00  0.00    -0.335 N 
ATOM     23  H   UNL d   1      26.806 -14.661  -2.731  0.00  0.00     0.177 HD
ATOM     24  H   UNL d   1      25.242 -15.106  -2.262  0.00  0.00     0.177 HD
ENDBRANCH   5  22
BRANCH   4  25
ATOM     25  C   UNL d   1      24.533 -17.143  -0.419  0.00  0.00     0.128 A 
ATOM     26  C   UNL d   1      23.889 -18.348  -0.048  0.00  0.00     0.069 A 
ATOM     27  C   UNL d   1      22.543 -18.141  -0.264  0.00  0.00     0.062 A 
ATOM     28  N   UNL d   1      22.460 -16.859  -0.750  0.00  0.00    -0.277 N 
ATOM     29  N   UNL d   1      23.645 -16.221  -0.813  0.00  0.00    -0.171 NA
ATOM     30  H   UNL d   1      21.622 -16.343  -0.998  0.00  0.00     0.189 HD
BRANCH  27  31
ATOM     31  C   UNL d   1      21.382 -18.949   0.085  0.00  0.00    -0.008 A 
ATOM     32  C   UNL d   1      20.584 -19.559  -0.889  0.00  0.00     0.015 A 
ATOM     33  C   UNL d   1      19.405 -20.219  -0.519  0.00  0.00     0.024 A 
ATOM     34  C   UNL d   1      19.063 -20.330   0.829  0.00  0.00     0.034 A 
ATOM     35 CL   UNL d   1      17.654 -21.204   1.287  0.00  0.00    -0.084 Cl
ATOM     36  C   UNL d   1      19.870 -19.760   1.808  0.00  0.00     0.024 A 
ATOM     37  C   UNL d   1      21.026 -19.072   1.435  0.00  0.00     0.015 A 
ENDBRANCH  27  31
ENDBRANCH   4  25
TORSDOF 9
ENDMDL
MODEL 8
REMARK VINA RESULT:    -7.943      6.944      9.814
REMARK INTER + INTRA:         -13.550
REMARK INTER:                 -10.628
REMARK INTRA:                  -2.923
REMARK CONF_INDEPENDENT:        2.685
REMARK UNBOUND:                -2.923
REMARK  9 active torsions:
REMARK  status: ('A' for Active; 'I' for Inactive)
REMARK    1  A    between atoms: C_2  and  C_3 
REMARK    2  A    between atoms: C_3  and  C_5 
REMARK    3  A    between atoms: C_8  and  N_9 
REMARK       I    between atoms: N_9  and  C_10 
REMARK    4  A    between atoms: C_10  and  C_12 
REMARK    5  A    between atoms: C_12  and  S_13 
REMARK    6  A    between atoms: S_13  and  C_14 
REMARK    7  A    between atoms: C_17  and  C_18 
REMARK    8  A    between atoms: C_20  and  C_21 
REMARK    9  A    between atoms: N_30  and  N_31 
ROOT
ATOM      1  C   UNL d   1      28.824 -13.632  -6.077  0.00  0.00     0.210 A 
ATOM      2  N   UNL d   1      28.112 -14.490  -6.769  0.00  0.00    -0.120 NA
ATOM      3  N   UNL d   1      27.364 -15.226  -5.862  0.00  0.00    -0.125 NA
ATOM      4  C   UNL d   1      27.586 -14.745  -4.648  0.00  0.00     0.203 A 
ATOM      5  N   UNL d   1      28.511 -13.727  -4.735  0.00  0.00    -0.215 N 
ENDROOT
BRANCH   1   6
ATOM      6  S   UNL d   1      29.939 -12.464  -6.659  0.00  0.00    -0.079 SA
BRANCH   6   7
ATOM      7  C   UNL d   1      31.164 -13.358  -7.715  0.00  0.00     0.185 C 
BRANCH   7   8
ATOM      8  C   UNL d   1      31.425 -14.721  -7.048  0.00  0.00     0.231 C 
ATOM      9  N   UNL d   1      30.503 -15.744  -7.268  0.00  0.00    -0.327 N 
ATOM     10  H   UNL d   1      29.671 -15.557  -7.816  0.00  0.00     0.169 HD
ATOM     11  O   UNL d   1      32.428 -14.860  -6.331  0.00  0.00    -0.272 OA
BRANCH   9  12
ATOM     12  C   UNL d   1      30.588 -17.037  -6.660  0.00  0.00     0.034 A 
ATOM     13  C   UNL d   1      30.814 -18.175  -7.438  0.00  0.00     0.030 A 
ATOM     14  C   UNL d   1      30.790 -19.456  -6.851  0.00  0.00     0.010 A 
ATOM     15  C   UNL d   1      30.627 -19.626  -5.466  0.00  0.00    -0.054 A 
ATOM     16  C   UNL d   1      30.400 -18.488  -4.702  0.00  0.00     0.010 A 
ATOM     17  C   UNL d   1      30.409 -17.229  -5.287  0.00  0.00     0.030 A 
BRANCH  15  18
ATOM     18  C   UNL d   1      30.763 -20.955  -4.735  0.00  0.00     0.014 C 
ATOM     19  C   UNL d   1      31.256 -20.693  -3.296  0.00  0.00     0.015 C 
BRANCH  18  20
ATOM     20  C   UNL d   1      31.706 -21.929  -5.457  0.00  0.00     0.004 C 
ATOM     21  C   UNL d   1      33.173 -21.595  -5.279  0.00  0.00     0.006 C 
ENDBRANCH  18  20
ENDBRANCH  15  18
ENDBRANCH   9  12
ENDBRANCH   7   8
ENDBRANCH   6   7
ENDBRANCH   1   6
BRANCH   5  22
ATOM     22  N   UNL d   1      29.216 -13.105  -3.645  0.00  0.00    -0.335 N 
ATOM     23  H   UNL d   1      30.067 -12.601  -3.872  0.00  0.00     0.177 HD
ATOM     24  H   UNL d   1      29.303 -13.669  -2.804  0.00  0.00     0.177 HD
ENDBRANCH   5  22
BRANCH   4  25
ATOM     25  C   UNL d   1      26.961 -15.231  -3.379  0.00  0.00     0.128 A 
ATOM     26  C   UNL d   1      25.693 -15.854  -3.290  0.00  0.00     0.069 A 
ATOM     27  C   UNL d   1      25.493 -16.118  -1.951  0.00  0.00     0.062 A 
ATOM     28  N   UNL d   1      26.621 -15.641  -1.329  0.00  0.00    -0.277 N 
ATOM     29  N   UNL d   1      27.540 -15.137  -2.176  0.00  0.00    -0.171 NA
ATOM     30  H   UNL d   1      26.849 -15.683  -0.340  0.00  0.00     0.189 HD
BRANCH  27  31
ATOM     31  C   UNL d   1      24.460 -16.886  -1.270  0.00  0.00    -0.008 A 
ATOM     32  C   UNL d   1      24.672 -18.204  -0.849  0.00  0.00     0.015 A 
ATOM     33  C   UNL d   1      23.612 -18.950  -0.316  0.00  0.00     0.024 A 
ATOM     34  C   UNL d   1      22.362 -18.356  -0.139  0.00  0.00     0.034 A 
ATOM     35 CL   UNL d   1      21.083 -19.251   0.584  0.00  0.00    -0.084 Cl
ATOM     36  C   UNL d   1      22.151 -17.035  -0.519  0.00  0.00     0.024 A 
ATOM     37  C   UNL d   1      23.198 -16.304  -1.082  0.00  0.00     0.015 A 
ENDBRANCH  27  31
ENDBRANCH   4  25
TORSDOF 9
ENDMDL
MODEL 9
REMARK VINA RESULT:    -7.917      2.585      4.229
REMARK INTER + INTRA:         -14.149
REMARK INTER:                 -10.601
REMARK INTRA:                  -3.547
REMARK CONF_INDEPENDENT:        2.685
REMARK UNBOUND:                -3.547
REMARK  9 active torsions:
REMARK  status: ('A' for Active; 'I' for Inactive)
REMARK    1  A    between atoms: C_2  and  C_3 
REMARK    2  A    between atoms: C_3  and  C_5 
REMARK    3  A    between atoms: C_8  and  N_9 
REMARK       I    between atoms: N_9  and  C_10 
REMARK    4  A    between atoms: C_10  and  C_12 
REMARK    5  A    between atoms: C_12  and  S_13 
REMARK    6  A    between atoms: S_13  and  C_14 
REMARK    7  A    between atoms: C_17  and  C_18 
REMARK    8  A    between atoms: C_20  and  C_21 
REMARK    9  A    between atoms: N_30  and  N_31 
ROOT
ATOM      1  C   UNL d   1      27.985 -12.171  -3.573  0.00  0.00     0.210 A 
ATOM      2  N   UNL d   1      27.089 -11.456  -2.936  0.00  0.00    -0.120 NA
ATOM      3  N   UNL d   1      27.059 -11.909  -1.626  0.00  0.00    -0.125 NA
ATOM      4  C   UNL d   1      27.992 -12.838  -1.483  0.00  0.00     0.203 A 
ATOM      5  N   UNL d   1      28.609 -13.040  -2.699  0.00  0.00    -0.215 N 
ENDROOT
BRANCH   1   6
ATOM      6  S   UNL d   1      28.452 -12.064  -5.221  0.00  0.00    -0.079 SA
BRANCH   6   7
ATOM      7  C   UNL d   1      27.442 -13.299  -6.155  0.00  0.00     0.185 C 
BRANCH   7   8
ATOM      8  C   UNL d   1      27.073 -14.420  -5.167  0.00  0.00     0.231 C 
ATOM      9  N   UNL d   1      26.262 -14.093  -4.081  0.00  0.00    -0.327 N 
ATOM     10  H   UNL d   1      25.977 -13.130  -3.943  0.00  0.00     0.169 HD
ATOM     11  O   UNL d   1      27.516 -15.563  -5.358  0.00  0.00    -0.272 OA
BRANCH   9  12
ATOM     12  C   UNL d   1      25.895 -15.019  -3.053  0.00  0.00     0.034 A 
ATOM     13  C   UNL d   1      24.593 -15.040  -2.547  0.00  0.00     0.030 A 
ATOM     14  C   UNL d   1      24.263 -15.877  -1.463  0.00  0.00     0.010 A 
ATOM     15  C   UNL d   1      25.197 -16.775  -0.917  0.00  0.00    -0.054 A 
ATOM     16  C   UNL d   1      26.490 -16.744  -1.426  0.00  0.00     0.010 A 
ATOM     17  C   UNL d   1      26.815 -15.905  -2.485  0.00  0.00     0.030 A 
BRANCH  15  18
ATOM     18  C   UNL d   1      24.874 -17.830   0.131  0.00  0.00     0.014 C 
ATOM     19  C   UNL d   1      26.189 -18.452   0.647  0.00  0.00     0.015 C 
BRANCH  18  20
ATOM     20  C   UNL d   1      23.936 -18.923  -0.405  0.00  0.00     0.004 C 
ATOM     21  C   UNL d   1      22.476 -18.519  -0.408  0.00  0.00     0.006 C 
ENDBRANCH  18  20
ENDBRANCH  15  18
ENDBRANCH   9  12
ENDBRANCH   7   8
ENDBRANCH   6   7
ENDBRANCH   1   6
BRANCH   5  22
ATOM     22  N   UNL d   1      29.494 -14.119  -3.051  0.00  0.00    -0.335 N 
ATOM     23  H   UNL d   1      29.350 -14.561  -3.953  0.00  0.00     0.177 HD
ATOM     24  H   UNL d   1      29.681 -14.788  -2.309  0.00  0.00     0.177 HD
ENDBRANCH   5  22
BRANCH   4  25
ATOM     25  C   UNL d   1      28.319 -13.573  -0.223  0.00  0.00     0.128 A 
ATOM     26  C   UNL d   1      28.292 -13.006   1.074  0.00  0.00     0.069 A 
ATOM     27  C   UNL d   1      28.680 -14.011   1.936  0.00  0.00     0.062 A 
ATOM     28  N   UNL d   1      28.920 -15.093   1.126  0.00  0.00    -0.277 N 
ATOM     29  N   UNL d   1      28.670 -14.865  -0.179  0.00  0.00    -0.171 NA
ATOM     30  H   UNL d   1      29.197 -16.029   1.406  0.00  0.00     0.189 HD
BRANCH  27  31
ATOM     31  C   UNL d   1      28.682 -14.076   3.391  0.00  0.00    -0.008 A 
ATOM     32  C   UNL d   1      27.558 -13.731   4.151  0.00  0.00     0.015 A 
ATOM     33  C   UNL d   1      27.643 -13.683   5.548  0.00  0.00     0.024 A 
ATOM     34  C   UNL d   1      28.828 -14.047   6.187  0.00  0.00     0.034 A 
ATOM     35 CL   UNL d   1      28.907 -14.057   7.906  0.00  0.00    -0.084 Cl
ATOM     36  C   UNL d   1      29.939 -14.428   5.443  0.00  0.00     0.024 A 
ATOM     37  C   UNL d   1      29.865 -14.442   4.049  0.00  0.00     0.015 A 
ENDBRANCH  27  31
ENDBRANCH   4  25
TORSDOF 9
ENDMDL
