MODEL 1
REMARK VINA RESULT:    -9.128      0.000      0.000
REMARK INTER + INTRA:         -13.956
REMARK INTER:                 -11.812
REMARK INTRA:                  -2.144
REMARK CONF_INDEPENDENT:        2.685
REMARK UNBOUND:                -2.144
REMARK  9 active torsions:
REMARK  status: ('A' for Active; 'I' for Inactive)
REMARK    1  A    between atoms: C_2  and  C_3 
REMARK    2  A    between atoms: C_6  and  N_7 
REMARK       I    between atoms: N_7  and  C_8 
REMARK    3  A    between atoms: C_8  and  C_10 
REMARK       I    between atoms: C_10  and  N_12 
REMARK    4  A    between atoms: N_12  and  N_13 
REMARK    5  A    between atoms: C_14  and  C_15 
REMARK    6  A    between atoms: C_19  and  O_20 
REMARK    7  A    between atoms: O_20  and  C_21 
REMARK    8  A    between atoms: C_21  and  C_22 
REMARK       I    between atoms: C_22  and  N_24 
REMARK    9  A    between atoms: N_24  and  C_25 
ROOT
ATOM      1  C   UNL d   1      30.527 -17.576  -3.746  0.00  0.00    -0.014 A 
ATOM      2  C   UNL d   1      30.812 -18.091  -5.015  0.00  0.00     0.013 A 
ATOM      3  C   UNL d   1      30.403 -17.386  -6.156  0.00  0.00     0.004 A 
ATOM      4  C   UNL d   1      29.669 -16.203  -6.022  0.00  0.00     0.037 A 
ATOM      5  C   UNL d   1      29.358 -15.705  -4.752  0.00  0.00     0.070 A 
ATOM      6  C   UNL d   1      29.777 -16.404  -3.621  0.00  0.00     0.049 A 
ENDROOT
BRANCH   1   7
ATOM      7  C   UNL d   1      31.112 -18.163  -2.507  0.00  0.00     0.150 C 
ATOM      8  N   UNL d   1      30.703 -17.785  -1.334  0.00  0.00    -0.183 NA
BRANCH   8   9
ATOM      9  N   UNL d   1      31.314 -18.314  -0.218  0.00  0.00    -0.239 N 
ATOM     10  C   UNL d   1      32.678 -18.640  -0.243  0.00  0.00     0.329 C 
ATOM     11  O   UNL d   1      33.460 -18.501  -1.186  0.00  0.00    -0.261 OA
ATOM     12  H   UNL d   1      30.781 -18.496   0.634  0.00  0.00     0.192 HD
BRANCH  10  13
ATOM     13  C   UNL d   1      33.201 -19.237   1.079  0.00  0.00     0.315 C 
ATOM     14  N   UNL d   1      32.279 -19.950   1.863  0.00  0.00    -0.319 N 
ATOM     15  H   UNL d   1      31.327 -20.004   1.507  0.00  0.00     0.169 HD
ATOM     16  O   UNL d   1      34.387 -19.017   1.326  0.00  0.00    -0.262 OA
BRANCH  14  17
ATOM     17  C   UNL d   1      32.544 -20.513   3.149  0.00  0.00     0.035 A 
ATOM     18  C   UNL d   1      31.500 -20.825   4.038  0.00  0.00     0.030 A 
ATOM     19  C   UNL d   1      31.777 -21.294   5.340  0.00  0.00     0.009 A 
ATOM     20  C   UNL d   1      33.095 -21.555   5.738  0.00  0.00    -0.058 A 
ATOM     21  C   UNL d   1      34.127 -21.250   4.859  0.00  0.00     0.009 A 
ATOM     22  C   UNL d   1      33.848 -20.748   3.587  0.00  0.00     0.030 A 
BRANCH  20  23
ATOM     23  C   UNL d   1      33.408 -22.331   6.994  0.00  0.00     0.034 C 
ATOM     24  C   UNL d   1      34.848 -22.828   6.918  0.00  0.00     0.010 C 
ENDBRANCH  20  23
ENDBRANCH  14  17
ENDBRANCH  10  13
ENDBRANCH   8   9
ENDBRANCH   1   7
BRANCH   5  25
ATOM     25  O   UNL d   1      28.681 -14.520  -4.720  0.00  0.00    -0.342 OA
BRANCH  25  26
ATOM     26  C   UNL d   1      27.369 -14.487  -5.302  0.00  0.00     0.278 C 
BRANCH  26  27
ATOM     27  C   UNL d   1      26.394 -15.162  -4.335  0.00  0.00     0.246 C 
ATOM     28  O   UNL d   1      25.214 -15.334  -4.643  0.00  0.00    -0.271 OA
ATOM     29  N   UNL d   1      26.924 -15.518  -3.094  0.00  0.00    -0.325 N 
ATOM     30  H   UNL d   1      27.833 -15.179  -2.807  0.00  0.00     0.169 HD
BRANCH  29  31
ATOM     31  C   UNL d   1      26.154 -16.220  -2.132  0.00  0.00     0.035 A 
ATOM     32  C   UNL d   1      24.775 -16.017  -2.021  0.00  0.00     0.036 A 
ATOM     33  C   UNL d   1      24.049 -16.657  -0.998  0.00  0.00    -0.059 A 
ATOM     34  C   UNL d   1      22.614 -16.324  -0.714  0.00  0.00     0.048 C 
ATOM     35  C   UNL d   1      24.697 -17.553  -0.139  0.00  0.00     0.013 A 
ATOM     36  C   UNL d   1      26.074 -17.739  -0.227  0.00  0.00    -0.059 A 
ATOM     37  C   UNL d   1      26.812 -18.573   0.773  0.00  0.00     0.048 C 
ATOM     38  C   UNL d   1      26.789 -17.071  -1.224  0.00  0.00     0.036 A 
ENDBRANCH  29  31
ENDBRANCH  26  27
ENDBRANCH  25  26
ENDBRANCH   5  25
TORSDOF 9
ENDMDL
MODEL 2
REMARK VINA RESULT:    -9.117      5.434      6.099
REMARK INTER + INTRA:         -14.778
REMARK INTER:                 -11.802
REMARK INTRA:                  -2.976
REMARK CONF_INDEPENDENT:        2.685
REMARK UNBOUND:                -2.976
REMARK  9 active torsions:
REMARK  status: ('A' for Active; 'I' for Inactive)
REMARK    1  A    between atoms: C_2  and  C_3 
REMARK    2  A    between atoms: C_6  and  N_7 
REMARK       I    between atoms: N_7  and  C_8 
REMARK    3  A    between atoms: C_8  and  C_10 
REMARK       I    between atoms: C_10  and  N_12 
REMARK    4  A    between atoms: N_12  and  N_13 
REMARK    5  A    between atoms: C_14  and  C_15 
REMARK    6  A    between atoms: C_19  and  O_20 
REMARK    7  A    between atoms: O_20  and  C_21 
REMARK    8  A    between atoms: C_21  and  C_22 
REMARK       I    between atoms: C_22  and  N_24 
REMARK    9  A    between atoms: N_24  and  C_25 
ROOT
ATOM      1  C   UNL d   1      28.996 -15.357  -1.851  0.00  0.00    -0.014 A 
ATOM      2  C   UNL d   1      29.667 -16.210  -2.735  0.00  0.00     0.013 A 
ATOM      3  C   UNL d   1      29.513 -16.035  -4.116  0.00  0.00     0.004 A 
ATOM      4  C   UNL d   1      28.652 -15.046  -4.606  0.00  0.00     0.037 A 
ATOM      5  C   UNL d   1      27.957 -14.215  -3.720  0.00  0.00     0.070 A 
ATOM      6  C   UNL d   1      28.122 -14.386  -2.347  0.00  0.00     0.049 A 
ENDROOT
BRANCH   1   7
ATOM      7  C   UNL d   1      29.279 -15.355  -0.388  0.00  0.00     0.150 C 
ATOM      8  N   UNL d   1      28.426 -14.857   0.455  0.00  0.00    -0.183 NA
BRANCH   8   9
ATOM      9  N   UNL d   1      28.757 -14.826   1.791  0.00  0.00    -0.239 N 
ATOM     10  C   UNL d   1      28.071 -13.979   2.674  0.00  0.00     0.329 C 
ATOM     11  O   UNL d   1      27.144 -13.212   2.402  0.00  0.00    -0.261 OA
ATOM     12  H   UNL d   1      29.518 -15.401   2.156  0.00  0.00     0.192 HD
BRANCH  10  13
ATOM     13  C   UNL d   1      28.576 -14.052   4.129  0.00  0.00     0.315 C 
ATOM     14  N   UNL d   1      27.962 -13.196   5.058  0.00  0.00    -0.319 N 
ATOM     15  H   UNL d   1      27.240 -12.576   4.696  0.00  0.00     0.169 HD
ATOM     16  O   UNL d   1      29.487 -14.854   4.333  0.00  0.00    -0.262 OA
BRANCH  14  17
ATOM     17  C   UNL d   1      28.334 -13.058   6.431  0.00  0.00     0.035 A 
ATOM     18  C   UNL d   1      28.155 -11.843   7.116  0.00  0.00     0.030 A 
ATOM     19  C   UNL d   1      28.611 -11.690   8.444  0.00  0.00     0.009 A 
ATOM     20  C   UNL d   1      29.158 -12.776   9.139  0.00  0.00    -0.058 A 
ATOM     21  C   UNL d   1      29.331 -13.978   8.463  0.00  0.00     0.009 A 
ATOM     22  C   UNL d   1      28.916 -14.111   7.138  0.00  0.00     0.030 A 
BRANCH  20  23
ATOM     23  C   UNL d   1      29.374 -12.738  10.632  0.00  0.00     0.034 C 
ATOM     24  C   UNL d   1      28.022 -12.858  11.328  0.00  0.00     0.010 C 
ENDBRANCH  20  23
ENDBRANCH  14  17
ENDBRANCH  10  13
ENDBRANCH   8   9
ENDBRANCH   1   7
BRANCH   5  25
ATOM     25  O   UNL d   1      27.177 -13.250  -4.290  0.00  0.00    -0.342 OA
BRANCH  25  26
ATOM     26  C   UNL d   1      25.785 -13.227  -3.942  0.00  0.00     0.278 C 
BRANCH  26  27
ATOM     27  C   UNL d   1      25.388 -14.616  -3.442  0.00  0.00     0.246 C 
ATOM     28  O   UNL d   1      25.155 -15.532  -4.232  0.00  0.00    -0.271 OA
ATOM     29  N   UNL d   1      25.271 -14.749  -2.057  0.00  0.00    -0.325 N 
ATOM     30  H   UNL d   1      25.272 -13.931  -1.461  0.00  0.00     0.169 HD
BRANCH  29  31
ATOM     31  C   UNL d   1      24.987 -15.999  -1.452  0.00  0.00     0.035 A 
ATOM     32  C   UNL d   1      23.686 -16.512  -1.428  0.00  0.00     0.036 A 
ATOM     33  C   UNL d   1      23.414 -17.711  -0.742  0.00  0.00    -0.059 A 
ATOM     34  C   UNL d   1      22.013 -18.199  -0.519  0.00  0.00     0.048 C 
ATOM     35  C   UNL d   1      24.460 -18.426  -0.145  0.00  0.00     0.013 A 
ATOM     36  C   UNL d   1      25.753 -17.907  -0.142  0.00  0.00    -0.059 A 
ATOM     37  C   UNL d   1      26.857 -18.575   0.616  0.00  0.00     0.048 C 
ATOM     38  C   UNL d   1      26.003 -16.700  -0.797  0.00  0.00     0.036 A 
ENDBRANCH  29  31
ENDBRANCH  26  27
ENDBRANCH  25  26
ENDBRANCH   5  25
TORSDOF 9
ENDMDL
MODEL 3
REMARK VINA RESULT:    -8.865      5.407      6.220
REMARK INTER + INTRA:         -14.734
REMARK INTER:                 -11.550
REMARK INTRA:                  -3.184
REMARK CONF_INDEPENDENT:        2.685
REMARK UNBOUND:                -3.184
REMARK  9 active torsions:
REMARK  status: ('A' for Active; 'I' for Inactive)
REMARK    1  A    between atoms: C_2  and  C_3 
REMARK    2  A    between atoms: C_6  and  N_7 
REMARK       I    between atoms: N_7  and  C_8 
REMARK    3  A    between atoms: C_8  and  C_10 
REMARK       I    between atoms: C_10  and  N_12 
REMARK    4  A    between atoms: N_12  and  N_13 
REMARK    5  A    between atoms: C_14  and  C_15 
REMARK    6  A    between atoms: C_19  and  O_20 
REMARK    7  A    between atoms: O_20  and  C_21 
REMARK    8  A    between atoms: C_21  and  C_22 
REMARK       I    between atoms: C_22  and  N_24 
REMARK    9  A    between atoms: N_24  and  C_25 
ROOT
ATOM      1  C   UNL d   1      29.124 -15.169  -1.918  0.00  0.00    -0.014 A 
ATOM      2  C   UNL d   1      29.791 -16.036  -2.791  0.00  0.00     0.013 A 
ATOM      3  C   UNL d   1      29.592 -15.913  -4.173  0.00  0.00     0.004 A 
ATOM      4  C   UNL d   1      28.692 -14.964  -4.670  0.00  0.00     0.037 A 
ATOM      5  C   UNL d   1      28.002 -14.119  -3.793  0.00  0.00     0.070 A 
ATOM      6  C   UNL d   1      28.212 -14.238  -2.420  0.00  0.00     0.049 A 
ENDROOT
BRANCH   1   7
ATOM      7  C   UNL d   1      29.450 -15.110  -0.465  0.00  0.00     0.150 C 
ATOM      8  N   UNL d   1      28.509 -15.014   0.426  0.00  0.00    -0.183 NA
BRANCH   8   9
ATOM      9  N   UNL d   1      28.862 -14.904   1.752  0.00  0.00    -0.239 N 
ATOM     10  C   UNL d   1      28.091 -14.130   2.630  0.00  0.00     0.329 C 
ATOM     11  O   UNL d   1      27.065 -13.498   2.363  0.00  0.00    -0.261 OA
ATOM     12  H   UNL d   1      29.700 -15.365   2.111  0.00  0.00     0.192 HD
BRANCH  10  13
ATOM     13  C   UNL d   1      28.632 -14.097   4.075  0.00  0.00     0.315 C 
ATOM     14  N   UNL d   1      27.940 -13.291   4.994  0.00  0.00    -0.319 N 
ATOM     15  H   UNL d   1      27.141 -12.774   4.633  0.00  0.00     0.169 HD
ATOM     16  O   UNL d   1      29.636 -14.779   4.278  0.00  0.00    -0.262 OA
BRANCH  14  17
ATOM     17  C   UNL d   1      28.322 -13.068   6.352  0.00  0.00     0.035 A 
ATOM     18  C   UNL d   1      28.154 -11.810   6.960  0.00  0.00     0.030 A 
ATOM     19  C   UNL d   1      28.620 -11.575   8.272  0.00  0.00     0.009 A 
ATOM     20  C   UNL d   1      29.167 -12.617   9.032  0.00  0.00    -0.058 A 
ATOM     21  C   UNL d   1      29.330 -13.861   8.433  0.00  0.00     0.009 A 
ATOM     22  C   UNL d   1      28.904 -14.076   7.122  0.00  0.00     0.030 A 
BRANCH  20  23
ATOM     23  C   UNL d   1      29.394 -12.484  10.517  0.00  0.00     0.034 C 
ATOM     24  C   UNL d   1      28.190 -13.065  11.252  0.00  0.00     0.010 C 
ENDBRANCH  20  23
ENDBRANCH  14  17
ENDBRANCH  10  13
ENDBRANCH   8   9
ENDBRANCH   1   7
BRANCH   5  25
ATOM     25  O   UNL d   1      27.182 -13.194  -4.371  0.00  0.00    -0.342 OA
BRANCH  25  26
ATOM     26  C   UNL d   1      25.814 -13.565  -4.596  0.00  0.00     0.278 C 
BRANCH  26  27
ATOM     27  C   UNL d   1      25.530 -14.858  -3.830  0.00  0.00     0.246 C 
ATOM     28  O   UNL d   1      25.526 -15.948  -4.406  0.00  0.00    -0.271 OA
ATOM     29  N   UNL d   1      25.241 -14.705  -2.473  0.00  0.00    -0.325 N 
ATOM     30  H   UNL d   1      25.055 -13.788  -2.088  0.00  0.00     0.169 HD
BRANCH  29  31
ATOM     31  C   UNL d   1      25.036 -15.825  -1.627  0.00  0.00     0.035 A 
ATOM     32  C   UNL d   1      26.093 -16.389  -0.906  0.00  0.00     0.036 A 
ATOM     33  C   UNL d   1      25.883 -17.556  -0.145  0.00  0.00    -0.059 A 
ATOM     34  C   UNL d   1      27.018 -18.309   0.484  0.00  0.00     0.048 C 
ATOM     35  C   UNL d   1      24.599 -18.107  -0.054  0.00  0.00     0.013 A 
ATOM     36  C   UNL d   1      23.549 -17.565  -0.791  0.00  0.00    -0.059 A 
ATOM     37  C   UNL d   1      22.205 -18.223  -0.829  0.00  0.00     0.048 C 
ATOM     38  C   UNL d   1      23.778 -16.428  -1.569  0.00  0.00     0.036 A 
ENDBRANCH  29  31
ENDBRANCH  26  27
ENDBRANCH  25  26
ENDBRANCH   5  25
TORSDOF 9
ENDMDL
MODEL 4
REMARK VINA RESULT:    -8.744      4.317      8.746
REMARK INTER + INTRA:         -14.314
REMARK INTER:                 -11.429
REMARK INTRA:                  -2.885
REMARK CONF_INDEPENDENT:        2.685
REMARK UNBOUND:                -2.885
REMARK  9 active torsions:
REMARK  status: ('A' for Active; 'I' for Inactive)
REMARK    1  A    between atoms: C_2  and  C_3 
REMARK    2  A    between atoms: C_6  and  N_7 
REMARK       I    between atoms: N_7  and  C_8 
REMARK    3  A    between atoms: C_8  and  C_10 
REMARK       I    between atoms: C_10  and  N_12 
REMARK    4  A    between atoms: N_12  and  N_13 
REMARK    5  A    between atoms: C_14  and  C_15 
REMARK    6  A    between atoms: C_19  and  O_20 
REMARK    7  A    between atoms: O_20  and  C_21 
REMARK    8  A    between atoms: C_21  and  C_22 
REMARK       I    between atoms: C_22  and  N_24 
REMARK    9  A    between atoms: N_24  and  C_25 
ROOT
ATOM      1  C   UNL d   1      26.469 -13.749  -4.944  0.00  0.00    -0.014 A 
ATOM      2  C   UNL d   1      26.679 -12.391  -5.208  0.00  0.00     0.013 A 
ATOM      3  C   UNL d   1      27.649 -12.010  -6.145  0.00  0.00     0.004 A 
ATOM      4  C   UNL d   1      28.436 -12.981  -6.773  0.00  0.00     0.037 A 
ATOM      5  C   UNL d   1      28.246 -14.337  -6.485  0.00  0.00     0.070 A 
ATOM      6  C   UNL d   1      27.273 -14.712  -5.560  0.00  0.00     0.049 A 
ENDROOT
BRANCH   1   7
ATOM      7  C   UNL d   1      25.321 -14.225  -4.122  0.00  0.00     0.150 C 
ATOM      8  N   UNL d   1      25.514 -14.765  -2.956  0.00  0.00    -0.183 NA
BRANCH   8   9
ATOM      9  N   UNL d   1      24.426 -15.241  -2.260  0.00  0.00    -0.239 N 
ATOM     10  C   UNL d   1      24.408 -16.562  -1.789  0.00  0.00     0.329 C 
ATOM     11  O   UNL d   1      25.294 -17.411  -1.915  0.00  0.00    -0.261 OA
ATOM     12  H   UNL d   1      23.611 -14.649  -2.092  0.00  0.00     0.192 HD
BRANCH  10  13
ATOM     13  C   UNL d   1      23.111 -16.942  -1.045  0.00  0.00     0.315 C 
ATOM     14  N   UNL d   1      22.765 -18.303  -1.026  0.00  0.00    -0.319 N 
ATOM     15  H   UNL d   1      23.389 -18.937  -1.522  0.00  0.00     0.169 HD
ATOM     16  O   UNL d   1      22.493 -16.002  -0.546  0.00  0.00    -0.262 OA
BRANCH  14  17
ATOM     17  C   UNL d   1      21.573 -18.848  -0.458  0.00  0.00     0.035 A 
ATOM     18  C   UNL d   1      20.508 -19.276  -1.271  0.00  0.00     0.030 A 
ATOM     19  C   UNL d   1      19.298 -19.726  -0.697  0.00  0.00     0.009 A 
ATOM     20  C   UNL d   1      19.172 -19.851   0.692  0.00  0.00    -0.058 A 
ATOM     21  C   UNL d   1      20.226 -19.432   1.496  0.00  0.00     0.009 A 
ATOM     22  C   UNL d   1      21.403 -18.950   0.923  0.00  0.00     0.030 A 
BRANCH  20  23
ATOM     23  C   UNL d   1      18.025 -20.602   1.322  0.00  0.00     0.034 C 
ATOM     24  C   UNL d   1      18.166 -22.084   0.989  0.00  0.00     0.010 C 
ENDBRANCH  20  23
ENDBRANCH  14  17
ENDBRANCH  10  13
ENDBRANCH   8   9
ENDBRANCH   1   7
BRANCH   5  25
ATOM     25  O   UNL d   1      29.027 -15.214  -7.181  0.00  0.00    -0.342 OA
BRANCH  25  26
ATOM     26  C   UNL d   1      30.270 -15.616  -6.586  0.00  0.00     0.278 C 
BRANCH  26  27
ATOM     27  C   UNL d   1      29.963 -16.420  -5.322  0.00  0.00     0.246 C 
ATOM     28  O   UNL d   1      30.015 -17.651  -5.325  0.00  0.00    -0.271 OA
ATOM     29  N   UNL d   1      29.588 -15.670  -4.206  0.00  0.00    -0.325 N 
ATOM     30  H   UNL d   1      29.362 -14.688  -4.299  0.00  0.00     0.169 HD
BRANCH  29  31
ATOM     31  C   UNL d   1      29.351 -16.280  -2.947  0.00  0.00     0.035 A 
ATOM     32  C   UNL d   1      28.300 -15.859  -2.126  0.00  0.00     0.036 A 
ATOM     33  C   UNL d   1      28.143 -16.417  -0.842  0.00  0.00    -0.059 A 
ATOM     34  C   UNL d   1      27.160 -15.866   0.148  0.00  0.00     0.048 C 
ATOM     35  C   UNL d   1      28.996 -17.443  -0.419  0.00  0.00     0.013 A 
ATOM     36  C   UNL d   1      30.060 -17.848  -1.220  0.00  0.00    -0.059 A 
ATOM     37  C   UNL d   1      31.072 -18.834  -0.729  0.00  0.00     0.048 C 
ATOM     38  C   UNL d   1      30.226 -17.263  -2.478  0.00  0.00     0.036 A 
ENDBRANCH  29  31
ENDBRANCH  26  27
ENDBRANCH  25  26
ENDBRANCH   5  25
TORSDOF 9
ENDMDL
MODEL 5
REMARK VINA RESULT:    -8.627      5.748      6.575
REMARK INTER + INTRA:         -14.427
REMARK INTER:                 -11.312
REMARK INTRA:                  -3.115
REMARK CONF_INDEPENDENT:        2.685
REMARK UNBOUND:                -3.115
REMARK  9 active torsions:
REMARK  status: ('A' for Active; 'I' for Inactive)
REMARK    1  A    between atoms: C_2  and  C_3 
REMARK    2  A    between atoms: C_6  and  N_7 
REMARK       I    between atoms: N_7  and  C_8 
REMARK    3  A    between atoms: C_8  and  C_10 
REMARK       I    between atoms: C_10  and  N_12 
REMARK    4  A    between atoms: N_12  and  N_13 
REMARK    5  A    between atoms: C_14  and  C_15 
REMARK    6  A    between atoms: C_19  and  O_20 
REMARK    7  A    between atoms: O_20  and  C_21 
REMARK    8  A    between atoms: C_21  and  C_22 
REMARK       I    between atoms: C_22  and  N_24 
REMARK    9  A    between atoms: N_24  and  C_25 
ROOT
ATOM      1  C   UNL d   1      28.828 -14.614  -0.917  0.00  0.00    -0.014 A 
ATOM      2  C   UNL d   1      29.848 -15.103  -1.741  0.00  0.00     0.013 A 
ATOM      3  C   UNL d   1      29.832 -14.808  -3.111  0.00  0.00     0.004 A 
ATOM      4  C   UNL d   1      28.774 -14.072  -3.657  0.00  0.00     0.037 A 
ATOM      5  C   UNL d   1      27.739 -13.610  -2.836  0.00  0.00     0.070 A 
ATOM      6  C   UNL d   1      27.766 -13.897  -1.472  0.00  0.00     0.049 A 
ENDROOT
BRANCH   1   7
ATOM      7  C   UNL d   1      28.899 -14.715   0.568  0.00  0.00     0.150 C 
ATOM      8  N   UNL d   1      27.882 -15.140   1.256  0.00  0.00    -0.183 NA
BRANCH   8   9
ATOM      9  N   UNL d   1      27.975 -15.161   2.630  0.00  0.00    -0.239 N 
ATOM     10  C   UNL d   1      27.936 -13.965   3.362  0.00  0.00     0.329 C 
ATOM     11  O   UNL d   1      27.814 -12.821   2.916  0.00  0.00    -0.261 OA
ATOM     12  H   UNL d   1      28.093 -16.041   3.134  0.00  0.00     0.192 HD
BRANCH  10  13
ATOM     13  C   UNL d   1      28.070 -14.162   4.886  0.00  0.00     0.315 C 
ATOM     14  N   UNL d   1      28.333 -13.015   5.653  0.00  0.00    -0.319 N 
ATOM     15  H   UNL d   1      28.434 -12.140   5.142  0.00  0.00     0.169 HD
ATOM     16  O   UNL d   1      27.943 -15.320   5.283  0.00  0.00    -0.262 OA
BRANCH  14  17
ATOM     17  C   UNL d   1      28.564 -12.996   7.063  0.00  0.00     0.035 A 
ATOM     18  C   UNL d   1      29.188 -14.075   7.714  0.00  0.00     0.030 A 
ATOM     19  C   UNL d   1      29.328 -14.086   9.119  0.00  0.00     0.009 A 
ATOM     20  C   UNL d   1      28.941 -12.978   9.883  0.00  0.00    -0.058 A 
ATOM     21  C   UNL d   1      28.328 -11.909   9.239  0.00  0.00     0.009 A 
ATOM     22  C   UNL d   1      28.155 -11.922   7.855  0.00  0.00     0.030 A 
BRANCH  20  23
ATOM     23  C   UNL d   1      29.345 -12.828  11.329  0.00  0.00     0.034 C 
ATOM     24  C   UNL d   1      28.175 -13.248  12.213  0.00  0.00     0.010 C 
ENDBRANCH  20  23
ENDBRANCH  14  17
ENDBRANCH  10  13
ENDBRANCH   8   9
ENDBRANCH   1   7
BRANCH   5  25
ATOM     25  O   UNL d   1      26.776 -12.860  -3.448  0.00  0.00    -0.342 OA
BRANCH  25  26
ATOM     26  C   UNL d   1      25.772 -13.554  -4.203  0.00  0.00     0.278 C 
BRANCH  26  27
ATOM     27  C   UNL d   1      25.484 -14.889  -3.514  0.00  0.00     0.246 C 
ATOM     28  O   UNL d   1      25.530 -15.949  -4.140  0.00  0.00    -0.271 OA
ATOM     29  N   UNL d   1      25.132 -14.808  -2.166  0.00  0.00    -0.325 N 
ATOM     30  H   UNL d   1      24.909 -13.915  -1.746  0.00  0.00     0.169 HD
BRANCH  29  31
ATOM     31  C   UNL d   1      24.915 -15.972  -1.384  0.00  0.00     0.035 A 
ATOM     32  C   UNL d   1      25.962 -16.579  -0.685  0.00  0.00     0.036 A 
ATOM     33  C   UNL d   1      25.741 -17.785   0.008  0.00  0.00    -0.059 A 
ATOM     34  C   UNL d   1      26.867 -18.576   0.606  0.00  0.00     0.048 C 
ATOM     35  C   UNL d   1      24.454 -18.334   0.057  0.00  0.00     0.013 A 
ATOM     36  C   UNL d   1      23.413 -17.749  -0.659  0.00  0.00    -0.059 A 
ATOM     37  C   UNL d   1      22.067 -18.398  -0.745  0.00  0.00     0.048 C 
ATOM     38  C   UNL d   1      23.653 -16.572  -1.371  0.00  0.00     0.036 A 
ENDBRANCH  29  31
ENDBRANCH  26  27
ENDBRANCH  25  26
ENDBRANCH   5  25
TORSDOF 9
ENDMDL
MODEL 6
REMARK VINA RESULT:    -8.627      5.830      6.507
REMARK INTER + INTRA:         -14.565
REMARK INTER:                 -11.311
REMARK INTRA:                  -3.254
REMARK CONF_INDEPENDENT:        2.685
REMARK UNBOUND:                -3.254
REMARK  9 active torsions:
REMARK  status: ('A' for Active; 'I' for Inactive)
REMARK    1  A    between atoms: C_2  and  C_3 
REMARK    2  A    between atoms: C_6  and  N_7 
REMARK       I    between atoms: N_7  and  C_8 
REMARK    3  A    between atoms: C_8  and  C_10 
REMARK       I    between atoms: C_10  and  N_12 
REMARK    4  A    between atoms: N_12  and  N_13 
REMARK    5  A    between atoms: C_14  and  C_15 
REMARK    6  A    between atoms: C_19  and  O_20 
REMARK    7  A    between atoms: O_20  and  C_21 
REMARK    8  A    between atoms: C_21  and  C_22 
REMARK       I    between atoms: C_22  and  N_24 
REMARK    9  A    between atoms: N_24  and  C_25 
ROOT
ATOM      1  C   UNL d   1      28.895 -13.804  -0.875  0.00  0.00    -0.014 A 
ATOM      2  C   UNL d   1      29.956 -13.910  -1.782  0.00  0.00     0.013 A 
ATOM      3  C   UNL d   1      29.773 -13.502  -3.111  0.00  0.00     0.004 A 
ATOM      4  C   UNL d   1      28.522 -13.042  -3.537  0.00  0.00     0.037 A 
ATOM      5  C   UNL d   1      27.454 -12.967  -2.636  0.00  0.00     0.070 A 
ATOM      6  C   UNL d   1      27.644 -13.362  -1.313  0.00  0.00     0.049 A 
ENDROOT
BRANCH   1   7
ATOM      7  C   UNL d   1      29.084 -14.021   0.587  0.00  0.00     0.150 C 
ATOM      8  N   UNL d   1      28.172 -14.615   1.295  0.00  0.00    -0.183 NA
BRANCH   8   9
ATOM      9  N   UNL d   1      28.366 -14.741   2.653  0.00  0.00    -0.239 N 
ATOM     10  C   UNL d   1      27.984 -13.709   3.523  0.00  0.00     0.329 C 
ATOM     11  O   UNL d   1      27.456 -12.636   3.221  0.00  0.00    -0.261 OA
ATOM     12  H   UNL d   1      28.807 -15.574   3.044  0.00  0.00     0.192 HD
BRANCH  10  13
ATOM     13  C   UNL d   1      28.286 -14.000   5.007  0.00  0.00     0.315 C 
ATOM     14  N   UNL d   1      28.169 -12.924   5.902  0.00  0.00    -0.319 N 
ATOM     15  H   UNL d   1      27.911 -12.025   5.500  0.00  0.00     0.169 HD
ATOM     16  O   UNL d   1      28.616 -15.158   5.263  0.00  0.00    -0.262 OA
BRANCH  14  17
ATOM     17  C   UNL d   1      28.476 -12.968   7.297  0.00  0.00     0.035 A 
ATOM     18  C   UNL d   1      28.179 -11.885   8.143  0.00  0.00     0.030 A 
ATOM     19  C   UNL d   1      28.570 -11.902   9.500  0.00  0.00     0.009 A 
ATOM     20  C   UNL d   1      29.171 -13.039  10.055  0.00  0.00    -0.058 A 
ATOM     21  C   UNL d   1      29.461 -14.111   9.219  0.00  0.00     0.009 A 
ATOM     22  C   UNL d   1      29.109 -14.072   7.870  0.00  0.00     0.030 A 
BRANCH  20  23
ATOM     23  C   UNL d   1      29.325 -13.210  11.546  0.00  0.00     0.034 C 
ATOM     24  C   UNL d   1      28.159 -14.044  12.069  0.00  0.00     0.010 C 
ENDBRANCH  20  23
ENDBRANCH  14  17
ENDBRANCH  10  13
ENDBRANCH   8   9
ENDBRANCH   1   7
BRANCH   5  25
ATOM     25  O   UNL d   1      26.287 -12.461  -3.130  0.00  0.00    -0.342 OA
BRANCH  25  26
ATOM     26  C   UNL d   1      25.596 -13.230  -4.126  0.00  0.00     0.278 C 
BRANCH  26  27
ATOM     27  C   UNL d   1      25.317 -14.621  -3.555  0.00  0.00     0.246 C 
ATOM     28  O   UNL d   1      25.230 -15.604  -4.293  0.00  0.00    -0.271 OA
ATOM     29  N   UNL d   1      25.130 -14.680  -2.173  0.00  0.00    -0.325 N 
ATOM     30  H   UNL d   1      25.008 -13.832  -1.634  0.00  0.00     0.169 HD
BRANCH  29  31
ATOM     31  C   UNL d   1      24.942 -15.915  -1.501  0.00  0.00     0.035 A 
ATOM     32  C   UNL d   1      23.669 -16.479  -1.369  0.00  0.00     0.036 A 
ATOM     33  C   UNL d   1      23.496 -17.658  -0.618  0.00  0.00    -0.059 A 
ATOM     34  C   UNL d   1      22.135 -18.194  -0.282  0.00  0.00     0.048 C 
ATOM     35  C   UNL d   1      24.610 -18.303  -0.066  0.00  0.00     0.013 A 
ATOM     36  C   UNL d   1      25.875 -17.732  -0.171  0.00  0.00    -0.059 A 
ATOM     37  C   UNL d   1      27.056 -18.320   0.537  0.00  0.00     0.048 C 
ATOM     38  C   UNL d   1      26.029 -16.544  -0.889  0.00  0.00     0.036 A 
ENDBRANCH  29  31
ENDBRANCH  26  27
ENDBRANCH  25  26
ENDBRANCH   5  25
TORSDOF 9
ENDMDL
MODEL 7
REMARK VINA RESULT:    -8.611      4.878      5.832
REMARK INTER + INTRA:         -14.422
REMARK INTER:                 -11.296
REMARK INTRA:                  -3.126
REMARK CONF_INDEPENDENT:        2.685
REMARK UNBOUND:                -3.126
REMARK  9 active torsions:
REMARK  status: ('A' for Active; 'I' for Inactive)
REMARK    1  A    between atoms: C_2  and  C_3 
REMARK    2  A    between atoms: C_6  and  N_7 
REMARK       I    between atoms: N_7  and  C_8 
REMARK    3  A    between atoms: C_8  and  C_10 
REMARK       I    between atoms: C_10  and  N_12 
REMARK    4  A    between atoms: N_12  and  N_13 
REMARK    5  A    between atoms: C_14  and  C_15 
REMARK    6  A    between atoms: C_19  and  O_20 
REMARK    7  A    between atoms: O_20  and  C_21 
REMARK    8  A    between atoms: C_21  and  C_22 
REMARK       I    between atoms: C_22  and  N_24 
REMARK    9  A    between atoms: N_24  and  C_25 
ROOT
ATOM      1  C   UNL d   1      29.937 -14.781  -2.817  0.00  0.00    -0.014 A 
ATOM      2  C   UNL d   1      30.959 -14.392  -3.690  0.00  0.00     0.013 A 
ATOM      3  C   UNL d   1      30.697 -14.299  -5.064  0.00  0.00     0.004 A 
ATOM      4  C   UNL d   1      29.436 -14.643  -5.562  0.00  0.00     0.037 A 
ATOM      5  C   UNL d   1      28.424 -15.061  -4.690  0.00  0.00     0.070 A 
ATOM      6  C   UNL d   1      28.686 -15.142  -3.324  0.00  0.00     0.049 A 
ENDROOT
BRANCH   1   7
ATOM      7  C   UNL d   1      30.091 -14.698  -1.337  0.00  0.00     0.150 C 
ATOM      8  N   UNL d   1      29.370 -15.439  -0.550  0.00  0.00    -0.183 NA
BRANCH   8   9
ATOM      9  N   UNL d   1      29.506 -15.285   0.812  0.00  0.00    -0.239 N 
ATOM     10  C   UNL d   1      28.901 -14.203   1.468  0.00  0.00     0.329 C 
ATOM     11  O   UNL d   1      28.209 -13.316   0.962  0.00  0.00    -0.261 OA
ATOM     12  H   UNL d   1      30.065 -15.941   1.360  0.00  0.00     0.192 HD
BRANCH  10  13
ATOM     13  C   UNL d   1      29.165 -14.168   2.987  0.00  0.00     0.315 C 
ATOM     14  N   UNL d   1      28.230 -13.481   3.779  0.00  0.00    -0.319 N 
ATOM     15  H   UNL d   1      27.454 -13.041   3.287  0.00  0.00     0.169 HD
ATOM     16  O   UNL d   1      30.189 -14.740   3.360  0.00  0.00    -0.262 OA
BRANCH  14  17
ATOM     17  C   UNL d   1      28.332 -13.270   5.188  0.00  0.00     0.035 A 
ATOM     18  C   UNL d   1      28.029 -12.022   5.762  0.00  0.00     0.030 A 
ATOM     19  C   UNL d   1      28.223 -11.797   7.143  0.00  0.00     0.009 A 
ATOM     20  C   UNL d   1      28.623 -12.843   7.986  0.00  0.00    -0.058 A 
ATOM     21  C   UNL d   1      28.918 -14.077   7.419  0.00  0.00     0.009 A 
ATOM     22  C   UNL d   1      28.764 -14.281   6.048  0.00  0.00     0.030 A 
BRANCH  20  23
ATOM     23  C   UNL d   1      28.549 -12.725   9.488  0.00  0.00     0.034 C 
ATOM     24  C   UNL d   1      28.427 -14.124  10.085  0.00  0.00     0.010 C 
ENDBRANCH  20  23
ENDBRANCH  14  17
ENDBRANCH  10  13
ENDBRANCH   8   9
ENDBRANCH   1   7
BRANCH   5  25
ATOM     25  O   UNL d   1      27.213 -15.330  -5.261  0.00  0.00    -0.342 OA
BRANCH  25  26
ATOM     26  C   UNL d   1      26.112 -14.475  -4.920  0.00  0.00     0.278 C 
BRANCH  26  27
ATOM     27  C   UNL d   1      25.468 -15.005  -3.637  0.00  0.00     0.246 C 
ATOM     28  O   UNL d   1      24.510 -14.425  -3.123  0.00  0.00    -0.271 OA
ATOM     29  N   UNL d   1      26.064 -16.141  -3.087  0.00  0.00    -0.325 N 
ATOM     30  H   UNL d   1      26.963 -16.463  -3.423  0.00  0.00     0.169 HD
BRANCH  29  31
ATOM     31  C   UNL d   1      25.523 -16.783  -1.944  0.00  0.00     0.035 A 
ATOM     32  C   UNL d   1      26.344 -17.202  -0.893  0.00  0.00     0.036 A 
ATOM     33  C   UNL d   1      25.796 -17.919   0.188  0.00  0.00    -0.059 A 
ATOM     34  C   UNL d   1      26.657 -18.558   1.237  0.00  0.00     0.048 C 
ATOM     35  C   UNL d   1      24.415 -18.148   0.242  0.00  0.00     0.013 A 
ATOM     36  C   UNL d   1      23.596 -17.758  -0.814  0.00  0.00    -0.059 A 
ATOM     37  C   UNL d   1      22.145 -18.124  -0.849  0.00  0.00     0.048 C 
ATOM     38  C   UNL d   1      24.158 -17.078  -1.896  0.00  0.00     0.036 A 
ENDBRANCH  29  31
ENDBRANCH  26  27
ENDBRANCH  25  26
ENDBRANCH   5  25
TORSDOF 9
ENDMDL
MODEL 8
REMARK VINA RESULT:    -8.509      5.552      8.584
REMARK INTER + INTRA:         -14.284
REMARK INTER:                 -11.193
REMARK INTRA:                  -3.091
REMARK CONF_INDEPENDENT:        2.685
REMARK UNBOUND:                -3.091
REMARK  9 active torsions:
REMARK  status: ('A' for Active; 'I' for Inactive)
REMARK    1  A    between atoms: C_2  and  C_3 
REMARK    2  A    between atoms: C_6  and  N_7 
REMARK       I    between atoms: N_7  and  C_8 
REMARK    3  A    between atoms: C_8  and  C_10 
REMARK       I    between atoms: C_10  and  N_12 
REMARK    4  A    between atoms: N_12  and  N_13 
REMARK    5  A    between atoms: C_14  and  C_15 
REMARK    6  A    between atoms: C_19  and  O_20 
REMARK    7  A    between atoms: O_20  and  C_21 
REMARK    8  A    between atoms: C_21  and  C_22 
REMARK       I    between atoms: C_22  and  N_24 
REMARK    9  A    between atoms: N_24  and  C_25 
ROOT
ATOM      1  C   UNL d   1      29.462 -16.237  -2.522  0.00  0.00    -0.014 A 
ATOM      2  C   UNL d   1      30.267 -15.272  -1.907  0.00  0.00     0.013 A 
ATOM      3  C   UNL d   1      31.235 -14.595  -2.662  0.00  0.00     0.004 A 
ATOM      4  C   UNL d   1      31.426 -14.921  -4.009  0.00  0.00     0.037 A 
ATOM      5  C   UNL d   1      30.640 -15.908  -4.615  0.00  0.00     0.070 A 
ATOM      6  C   UNL d   1      29.672 -16.571  -3.862  0.00  0.00     0.049 A 
ENDROOT
BRANCH   1   7
ATOM      7  C   UNL d   1      28.285 -16.837  -1.833  0.00  0.00     0.150 C 
ATOM      8  N   UNL d   1      27.243 -16.117  -1.544  0.00  0.00    -0.183 NA
BRANCH   8   9
ATOM      9  N   UNL d   1      26.204 -16.702  -0.855  0.00  0.00    -0.239 N 
ATOM     10  C   UNL d   1      25.072 -17.168  -1.539  0.00  0.00     0.329 C 
ATOM     11  O   UNL d   1      24.867 -17.131  -2.755  0.00  0.00    -0.261 OA
ATOM     12  H   UNL d   1      26.233 -16.788   0.163  0.00  0.00     0.192 HD
BRANCH  10  13
ATOM     13  C   UNL d   1      23.995 -17.780  -0.619  0.00  0.00     0.315 C 
ATOM     14  N   UNL d   1      22.824 -18.248  -1.238  0.00  0.00    -0.319 N 
ATOM     15  H   UNL d   1      22.766 -18.132  -2.247  0.00  0.00     0.169 HD
ATOM     16  O   UNL d   1      24.266 -17.786   0.581  0.00  0.00    -0.262 OA
BRANCH  14  17
ATOM     17  C   UNL d   1      21.683 -18.777  -0.559  0.00  0.00     0.035 A 
ATOM     18  C   UNL d   1      20.548 -19.207  -1.269  0.00  0.00     0.030 A 
ATOM     19  C   UNL d   1      19.391 -19.642  -0.585  0.00  0.00     0.009 A 
ATOM     20  C   UNL d   1      19.387 -19.749   0.812  0.00  0.00    -0.058 A 
ATOM     21  C   UNL d   1      20.511 -19.327   1.513  0.00  0.00     0.009 A 
ATOM     22  C   UNL d   1      21.636 -18.860   0.833  0.00  0.00     0.030 A 
BRANCH  20  23
ATOM     23  C   UNL d   1      18.296 -20.484   1.550  0.00  0.00     0.034 C 
ATOM     24  C   UNL d   1      17.739 -21.577   0.643  0.00  0.00     0.010 C 
ENDBRANCH  20  23
ENDBRANCH  14  17
ENDBRANCH  10  13
ENDBRANCH   8   9
ENDBRANCH   1   7
BRANCH   5  25
ATOM     25  O   UNL d   1      30.866 -16.124  -5.944  0.00  0.00    -0.342 OA
BRANCH  25  26
ATOM     26  C   UNL d   1      30.145 -15.312  -6.882  0.00  0.00     0.278 C 
BRANCH  26  27
ATOM     27  C   UNL d   1      28.851 -14.840  -6.219  0.00  0.00     0.246 C 
ATOM     28  O   UNL d   1      27.856 -15.567  -6.180  0.00  0.00    -0.271 OA
ATOM     29  N   UNL d   1      28.871 -13.538  -5.715  0.00  0.00    -0.325 N 
ATOM     30  H   UNL d   1      29.629 -12.910  -5.946  0.00  0.00     0.169 HD
BRANCH  29  31
ATOM     31  C   UNL d   1      27.767 -13.000  -5.006  0.00  0.00     0.035 A 
ATOM     32  C   UNL d   1      26.852 -13.830  -4.352  0.00  0.00     0.036 A 
ATOM     33  C   UNL d   1      25.714 -13.277  -3.734  0.00  0.00    -0.059 A 
ATOM     34  C   UNL d   1      24.607 -14.133  -3.193  0.00  0.00     0.048 C 
ATOM     35  C   UNL d   1      25.539 -11.888  -3.713  0.00  0.00     0.013 A 
ATOM     36  C   UNL d   1      26.432 -11.057  -4.385  0.00  0.00    -0.059 A 
ATOM     37  C   UNL d   1      26.185  -9.586  -4.505  0.00  0.00     0.048 C 
ATOM     38  C   UNL d   1      27.538 -11.621  -5.024  0.00  0.00     0.036 A 
ENDBRANCH  29  31
ENDBRANCH  26  27
ENDBRANCH  25  26
ENDBRANCH   5  25
TORSDOF 9
ENDMDL
MODEL 9
REMARK VINA RESULT:    -8.117      6.040      7.009
REMARK INTER + INTRA:         -13.763
REMARK INTER:                 -10.802
REMARK INTRA:                  -2.961
REMARK CONF_INDEPENDENT:        2.685
REMARK UNBOUND:                -2.961
REMARK  9 active torsions:
REMARK  status: ('A' for Active; 'I' for Inactive)
REMARK    1  A    between atoms: C_2  and  C_3 
REMARK    2  A    between atoms: C_6  and  N_7 
REMARK       I    between atoms: N_7  and  C_8 
REMARK    3  A    between atoms: C_8  and  C_10 
REMARK       I    between atoms: C_10  and  N_12 
REMARK    4  A    between atoms: N_12  and  N_13 
REMARK    5  A    between atoms: C_14  and  C_15 
REMARK    6  A    between atoms: C_19  and  O_20 
REMARK    7  A    between atoms: O_20  and  C_21 
REMARK    8  A    between atoms: C_21  and  C_22 
REMARK       I    between atoms: C_22  and  N_24 
REMARK    9  A    between atoms: N_24  and  C_25 
ROOT
ATOM      1  C   UNL d   1      27.626 -12.289  -0.358  0.00  0.00    -0.014 A 
ATOM      2  C   UNL d   1      28.286 -11.095  -0.672  0.00  0.00     0.013 A 
ATOM      3  C   UNL d   1      27.923 -10.388  -1.826  0.00  0.00     0.004 A 
ATOM      4  C   UNL d   1      26.944 -10.902  -2.684  0.00  0.00     0.037 A 
ATOM      5  C   UNL d   1      26.307 -12.111  -2.384  0.00  0.00     0.070 A 
ATOM      6  C   UNL d   1      26.664 -12.805  -1.229  0.00  0.00     0.049 A 
ENDROOT
BRANCH   1   7
ATOM      7  C   UNL d   1      27.818 -12.974   0.952  0.00  0.00     0.150 C 
ATOM      8  N   UNL d   1      27.793 -12.303   2.064  0.00  0.00    -0.183 NA
BRANCH   8   9
ATOM      9  N   UNL d   1      28.032 -12.970   3.245  0.00  0.00    -0.239 N 
ATOM     10  C   UNL d   1      27.996 -12.285   4.468  0.00  0.00     0.329 C 
ATOM     11  O   UNL d   1      27.756 -11.088   4.645  0.00  0.00    -0.261 OA
ATOM     12  H   UNL d   1      28.259 -13.966   3.247  0.00  0.00     0.192 HD
BRANCH  10  13
ATOM     13  C   UNL d   1      28.303 -13.173   5.691  0.00  0.00     0.315 C 
ATOM     14  N   UNL d   1      28.527 -12.516   6.913  0.00  0.00    -0.319 N 
ATOM     15  H   UNL d   1      28.488 -11.499   6.895  0.00  0.00     0.169 HD
ATOM     16  O   UNL d   1      28.334 -14.384   5.471  0.00  0.00    -0.262 OA
BRANCH  14  17
ATOM     17  C   UNL d   1      28.898 -13.150   8.138  0.00  0.00     0.035 A 
ATOM     18  C   UNL d   1      28.155 -12.949   9.316  0.00  0.00     0.030 A 
ATOM     19  C   UNL d   1      28.583 -13.505  10.541  0.00  0.00     0.009 A 
ATOM     20  C   UNL d   1      29.698 -14.352  10.590  0.00  0.00    -0.058 A 
ATOM     21  C   UNL d   1      30.429 -14.553   9.425  0.00  0.00     0.009 A 
ATOM     22  C   UNL d   1      30.025 -13.968   8.225  0.00  0.00     0.030 A 
BRANCH  20  23
ATOM     23  C   UNL d   1      30.004 -15.195  11.802  0.00  0.00     0.034 C 
ATOM     24  C   UNL d   1      30.941 -16.326  11.390  0.00  0.00     0.010 C 
ENDBRANCH  20  23
ENDBRANCH  14  17
ENDBRANCH  10  13
ENDBRANCH   8   9
ENDBRANCH   1   7
BRANCH   5  25
ATOM     25  O   UNL d   1      25.333 -12.509  -3.253  0.00  0.00    -0.342 OA
BRANCH  25  26
ATOM     26  C   UNL d   1      25.658 -13.546  -4.190  0.00  0.00     0.278 C 
BRANCH  26  27
ATOM     27  C   UNL d   1      25.428 -14.898  -3.513  0.00  0.00     0.246 C 
ATOM     28  O   UNL d   1      25.530 -15.950  -4.147  0.00  0.00    -0.271 OA
ATOM     29  N   UNL d   1      25.060 -14.845  -2.168  0.00  0.00    -0.325 N 
ATOM     30  H   UNL d   1      24.790 -13.967  -1.743  0.00  0.00     0.169 HD
BRANCH  29  31
ATOM     31  C   UNL d   1      24.892 -16.024  -1.397  0.00  0.00     0.035 A 
ATOM     32  C   UNL d   1      25.966 -16.600  -0.712  0.00  0.00     0.036 A 
ATOM     33  C   UNL d   1      25.794 -17.820  -0.030  0.00  0.00    -0.059 A 
ATOM     34  C   UNL d   1      26.953 -18.575   0.551  0.00  0.00     0.048 C 
ATOM     35  C   UNL d   1      24.529 -18.417   0.022  0.00  0.00     0.013 A 
ATOM     36  C   UNL d   1      23.461 -17.863  -0.680  0.00  0.00    -0.059 A 
ATOM     37  C   UNL d   1      22.140 -18.561  -0.763  0.00  0.00     0.048 C 
ATOM     38  C   UNL d   1      23.653 -16.671  -1.381  0.00  0.00     0.036 A 
ENDBRANCH  29  31
ENDBRANCH  26  27
ENDBRANCH  25  26
ENDBRANCH   5  25
TORSDOF 9
ENDMDL
