MODEL 1
REMARK VINA RESULT:   -30.261      0.000      0.000
REMARK INTER + INTRA:         -31.743
REMARK INTER:                 -31.454
REMARK INTRA:                  -0.289
REMARK CONF_INDEPENDENT:        1.193
REMARK UNBOUND:                -0.289
REMARK  4 active torsions:
REMARK  status: ('A' for Active; 'I' for Inactive)
REMARK    1  A    between atoms: C_2  and  C_3 
REMARK    2  A    between atoms: C_3  and  C_4 
REMARK    3  A    between atoms: C_4  and  N_5 
REMARK       I    between atoms: N_5  and  C_6 
REMARK       I    between atoms: C_6  and  N_8 
REMARK    4  A    between atoms: N_8  and  C_9 
ROOT
ATOM      1  N   UNL d   1      23.775 -17.629  -0.596  0.00  0.00    -0.343 N 
ATOM      2  C   UNL d   1      22.674 -18.422  -0.849  0.00  0.00     0.321 C 
ATOM      3  O   UNL d   1      22.529 -18.969  -1.945  0.00  0.00    -0.247 OA
ATOM      4  N   UNL d   1      21.783 -18.534   0.198  0.00  0.00    -0.291 N 
ATOM      5  H   UNL d   1      23.897 -17.188   0.303  0.00  0.00     0.164 HD
ATOM      6  H   UNL d   1      21.746 -17.826   0.914  0.00  0.00     0.172 HD
ENDROOT
BRANCH   1   7
ATOM      7  C   UNL d   1      24.780 -17.436  -1.642  0.00  0.00     0.124 C 
BRANCH   7   8
ATOM      8  C   UNL d   1      25.984 -16.602  -1.203  0.00  0.00     0.019 C 
BRANCH   8   9
ATOM      9  C   UNL d   1      26.481 -17.001   0.194  0.00  0.00    -0.003 C 
ATOM     10  C   UNL d   1      26.648 -18.511   0.314  0.00  0.00     0.005 C 
ENDBRANCH   8   9
ENDBRANCH   7   8
ENDBRANCH   1   7
BRANCH   4  11
ATOM     11  C   UNL d   1      20.625 -19.292   0.050  0.00  0.00     0.161 A 
ATOM     12  C   UNL d   1      20.007 -20.076   1.051  0.00  0.00     0.087 A 
ATOM     13  C   UNL d   1      18.924 -20.656   0.446  0.00  0.00     0.078 A 
ATOM     14  C   UNL d   1      17.870 -21.574   0.924  0.00  0.00     0.079 C 
ATOM     15  O   UNL d   1      18.872 -20.236  -0.849  0.00  0.00    -0.216 OA
ATOM     16  N   UNL d   1      19.905 -19.325  -1.081  0.00  0.00    -0.110 NA
ENDBRANCH   4  11
TORSDOF 4
ENDMDL
MODEL 2
REMARK VINA RESULT:   -30.193      1.441      2.060
REMARK INTER + INTRA:         -31.635
REMARK INTER:                 -31.386
REMARK INTRA:                  -0.249
REMARK CONF_INDEPENDENT:        1.193
REMARK UNBOUND:                -0.249
REMARK  4 active torsions:
REMARK  status: ('A' for Active; 'I' for Inactive)
REMARK    1  A    between atoms: C_2  and  C_3 
REMARK    2  A    between atoms: C_3  and  C_4 
REMARK    3  A    between atoms: C_4  and  N_5 
REMARK       I    between atoms: N_5  and  C_6 
REMARK       I    between atoms: C_6  and  N_8 
REMARK    4  A    between atoms: N_8  and  C_9 
ROOT
ATOM      1  N   UNL d   1      23.781 -17.677  -0.509  0.00  0.00    -0.343 N 
ATOM      2  C   UNL d   1      22.436 -17.982  -0.571  0.00  0.00     0.321 C 
ATOM      3  O   UNL d   1      21.609 -17.127  -0.899  0.00  0.00    -0.247 OA
ATOM      4  N   UNL d   1      22.117 -19.281  -0.237  0.00  0.00    -0.291 N 
ATOM      5  H   UNL d   1      24.458 -18.379  -0.248  0.00  0.00     0.164 HD
ATOM      6  H   UNL d   1      22.735 -19.826   0.343  0.00  0.00     0.172 HD
ENDROOT
BRANCH   1   7
ATOM      7  C   UNL d   1      24.228 -16.324  -0.837  0.00  0.00     0.124 C 
BRANCH   7   8
ATOM      8  C   UNL d   1      25.169 -16.253  -2.041  0.00  0.00     0.019 C 
BRANCH   8   9
ATOM      9  C   UNL d   1      25.208 -14.846  -2.657  0.00  0.00    -0.003 C 
ATOM     10  C   UNL d   1      25.570 -14.898  -4.136  0.00  0.00     0.005 C 
ENDBRANCH   8   9
ENDBRANCH   7   8
ENDBRANCH   1   7
BRANCH   4  11
ATOM     11  C   UNL d   1      20.788 -19.697  -0.244  0.00  0.00     0.161 A 
ATOM     12  C   UNL d   1      20.160 -20.501   0.734  0.00  0.00     0.087 A 
ATOM     13  C   UNL d   1      18.873 -20.671   0.297  0.00  0.00     0.078 A 
ATOM     14  C   UNL d   1      17.706 -21.393   0.846  0.00  0.00     0.079 C 
ATOM     15  O   UNL d   1      18.717 -19.994  -0.875  0.00  0.00    -0.216 OA
ATOM     16  N   UNL d   1      19.905 -19.325  -1.182  0.00  0.00    -0.110 NA
ENDBRANCH   4  11
TORSDOF 4
ENDMDL
MODEL 3
REMARK VINA RESULT:   -29.907      0.626      1.002
REMARK INTER + INTRA:         -31.384
REMARK INTER:                 -31.100
REMARK INTRA:                  -0.284
REMARK CONF_INDEPENDENT:        1.193
REMARK UNBOUND:                -0.284
REMARK  4 active torsions:
REMARK  status: ('A' for Active; 'I' for Inactive)
REMARK    1  A    between atoms: C_2  and  C_3 
REMARK    2  A    between atoms: C_3  and  C_4 
REMARK    3  A    between atoms: C_4  and  N_5 
REMARK       I    between atoms: N_5  and  C_6 
REMARK       I    between atoms: C_6  and  N_8 
REMARK    4  A    between atoms: N_8  and  C_9 
ROOT
ATOM      1  N   UNL d   1      23.814 -17.789   0.023  0.00  0.00    -0.343 N 
ATOM      2  C   UNL d   1      22.723 -18.531  -0.383  0.00  0.00     0.321 C 
ATOM      3  O   UNL d   1      22.704 -19.069  -1.494  0.00  0.00    -0.247 OA
ATOM      4  N   UNL d   1      21.693 -18.603   0.531  0.00  0.00    -0.291 N 
ATOM      5  H   UNL d   1      23.832 -17.356   0.935  0.00  0.00     0.164 HD
ATOM      6  H   UNL d   1      21.590 -17.895   1.240  0.00  0.00     0.172 HD
ENDROOT
BRANCH   1   7
ATOM      7  C   UNL d   1      24.960 -17.642  -0.873  0.00  0.00     0.124 C 
BRANCH   7   8
ATOM      8  C   UNL d   1      26.265 -18.214  -0.316  0.00  0.00     0.019 C 
BRANCH   8   9
ATOM      9  C   UNL d   1      27.265 -17.109   0.053  0.00  0.00    -0.003 C 
ATOM     10  C   UNL d   1      26.666 -15.724  -0.158  0.00  0.00     0.005 C 
ENDBRANCH   8   9
ENDBRANCH   7   8
ENDBRANCH   1   7
BRANCH   4  11
ATOM     11  C   UNL d   1      20.533 -19.307   0.220  0.00  0.00     0.161 A 
ATOM     12  C   UNL d   1      19.819 -20.164   1.089  0.00  0.00     0.087 A 
ATOM     13  C   UNL d   1      18.773 -20.648   0.347  0.00  0.00     0.078 A 
ATOM     14  C   UNL d   1      17.664 -21.575   0.650  0.00  0.00     0.079 C 
ATOM     15  O   UNL d   1      18.835 -20.103  -0.900  0.00  0.00    -0.216 OA
ATOM     16  N   UNL d   1      19.904 -19.206  -0.960  0.00  0.00    -0.110 NA
ENDBRANCH   4  11
TORSDOF 4
ENDMDL
