MODEL 1
REMARK VINA RESULT:    -8.215      0.000      0.000
REMARK INTER + INTRA:          -9.642
REMARK INTER:                  -9.110
REMARK INTRA:                  -0.532
REMARK CONF_INDEPENDENT:        0.895
REMARK UNBOUND:                -0.532
REMARK  3 active torsions:
REMARK  status: ('A' for Active; 'I' for Inactive)
REMARK    1  A    between atoms: C_5  and  C_6 
REMARK       I    between atoms: C_6  and  N_7 
REMARK    2  A    between atoms: C_10  and  N_11 
REMARK       I    between atoms: N_11  and  C_12 
REMARK    3  A    between atoms: C_12  and  C_14 
ROOT
ATOM      1  C   UNL d   1      27.516 -16.842  -0.638  0.00  0.00     0.050 C 
ATOM      2  C   UNL d   1      26.059 -17.172  -0.742  0.00  0.00    -0.035 C 
ATOM      3  C   UNL d   1      25.590 -18.041   0.246  0.00  0.00     0.010 C 
ATOM      4  C   UNL d   1      24.249 -18.380   0.339  0.00  0.00     0.017 C 
ATOM      5  C   UNL d   1      23.327 -17.867  -0.570  0.00  0.00     0.034 C 
ATOM      6  C   UNL d   1      23.793 -17.054  -1.627  0.00  0.00     0.047 C 
ATOM      7  C   UNL d   1      25.173 -16.745  -1.754  0.00  0.00     0.042 C 
ENDROOT
BRANCH   7   8
ATOM      8  N   UNL d   1      25.597 -16.096  -2.949  0.00  0.00    -0.322 N 
ATOM      9  C   UNL d   1      25.504 -14.755  -3.294  0.00  0.00     0.258 C 
ATOM     10  O   UNL d   1      25.027 -14.453  -4.390  0.00  0.00    -0.267 OA
ATOM     11  H   UNL d   1      25.941 -16.685  -3.702  0.00  0.00     0.169 HD
BRANCH   9  12
ATOM     12  C   UNL d   1      25.951 -13.650  -2.351  0.00  0.00     0.055 C 
ATOM     13  C   UNL d   1      26.259 -14.071  -1.027  0.00  0.00     0.019 C 
ATOM     14  C   UNL d   1      26.992 -13.254  -0.157  0.00  0.00     0.003 C 
ATOM     15  C   UNL d   1      27.492 -12.038  -0.611  0.00  0.00     0.026 C 
ATOM     16  C   UNL d   1      27.191 -11.599  -1.903  0.00  0.00     0.056 C 
ATOM     17 CL   UNL d   1      28.081 -10.219  -2.470  0.00  0.00    -0.083 Cl
ATOM     18  C   UNL d   1      26.335 -12.343  -2.747  0.00  0.00     0.071 C 
ATOM     19 CL   UNL d   1      25.893 -11.626  -4.265  0.00  0.00    -0.081 Cl
ENDBRANCH   9  12
ENDBRANCH   7   8
BRANCH   5  20
ATOM     20  C   UNL d   1      21.870 -18.204  -0.451  0.00  0.00     0.249 C 
ATOM     21  N   UNL d   1      21.530 -19.373   0.199  0.00  0.00    -0.366 N 
ATOM     22  H   UNL d   1      22.172 -20.033   0.604  0.00  0.00     0.159 HD
ATOM     23  H   UNL d   1      20.545 -19.579   0.300  0.00  0.00     0.159 HD
ATOM     24  O   UNL d   1      21.004 -17.478  -0.895  0.00  0.00    -0.268 OA
ENDBRANCH   5  20
TORSDOF 3
ENDMDL
MODEL 2
REMARK VINA RESULT:    -7.686      1.917      2.048
REMARK INTER + INTRA:          -9.509
REMARK INTER:                  -8.581
REMARK INTRA:                  -0.928
REMARK CONF_INDEPENDENT:        0.895
REMARK UNBOUND:                -0.928
REMARK  3 active torsions:
REMARK  status: ('A' for Active; 'I' for Inactive)
REMARK    1  A    between atoms: C_5  and  C_6 
REMARK       I    between atoms: C_6  and  N_7 
REMARK    2  A    between atoms: C_10  and  N_11 
REMARK       I    between atoms: N_11  and  C_12 
REMARK    3  A    between atoms: C_12  and  C_14 
ROOT
ATOM      1  C   UNL d   1      27.135 -17.083  -0.540  0.00  0.00     0.050 C 
ATOM      2  C   UNL d   1      25.682 -17.430  -0.648  0.00  0.00    -0.035 C 
ATOM      3  C   UNL d   1      25.201 -18.236   0.386  0.00  0.00     0.010 C 
ATOM      4  C   UNL d   1      23.860 -18.579   0.476  0.00  0.00     0.017 C 
ATOM      5  C   UNL d   1      22.952 -18.134  -0.481  0.00  0.00     0.034 C 
ATOM      6  C   UNL d   1      23.432 -17.387  -1.580  0.00  0.00     0.047 C 
ATOM      7  C   UNL d   1      24.812 -17.077  -1.702  0.00  0.00     0.042 C 
ENDROOT
BRANCH   7   8
ATOM      8  N   UNL d   1      25.253 -16.504  -2.929  0.00  0.00    -0.322 N 
ATOM      9  C   UNL d   1      25.709 -15.217  -3.177  0.00  0.00     0.258 C 
ATOM     10  O   UNL d   1      25.225 -14.584  -4.117  0.00  0.00    -0.267 OA
ATOM     11  H   UNL d   1      25.152 -17.066  -3.769  0.00  0.00     0.169 HD
BRANCH   9  12
ATOM     12  C   UNL d   1      26.769 -14.559  -2.309  0.00  0.00     0.055 C 
ATOM     13  C   UNL d   1      26.276 -13.891  -1.152  0.00  0.00     0.019 C 
ATOM     14  C   UNL d   1      27.130 -13.538  -0.098  0.00  0.00     0.003 C 
ATOM     15  C   UNL d   1      28.470 -13.906  -0.145  0.00  0.00     0.026 C 
ATOM     16  C   UNL d   1      28.978 -14.551  -1.277  0.00  0.00     0.056 C 
ATOM     17 CL   UNL d   1      30.577 -15.214  -1.127  0.00  0.00    -0.083 Cl
ATOM     18  C   UNL d   1      28.166 -14.789  -2.408  0.00  0.00     0.071 C 
ATOM     19 CL   UNL d   1      28.938 -15.442  -3.820  0.00  0.00    -0.081 Cl
ENDBRANCH   9  12
ENDBRANCH   7   8
BRANCH   5  20
ATOM     20  C   UNL d   1      21.495 -18.474  -0.366  0.00  0.00     0.249 C 
ATOM     21  N   UNL d   1      21.142 -19.530   0.449  0.00  0.00    -0.366 N 
ATOM     22  H   UNL d   1      21.774 -20.106   0.978  0.00  0.00     0.159 HD
ATOM     23  H   UNL d   1      20.156 -19.735   0.543  0.00  0.00     0.159 HD
ATOM     24  O   UNL d   1      20.640 -17.843  -0.953  0.00  0.00    -0.268 OA
ENDBRANCH   5  20
TORSDOF 3
ENDMDL
MODEL 3
REMARK VINA RESULT:    -7.614      2.506      3.188
REMARK INTER + INTRA:          -9.500
REMARK INTER:                  -8.509
REMARK INTRA:                  -0.991
REMARK CONF_INDEPENDENT:        0.895
REMARK UNBOUND:                -0.991
REMARK  3 active torsions:
REMARK  status: ('A' for Active; 'I' for Inactive)
REMARK    1  A    between atoms: C_5  and  C_6 
REMARK       I    between atoms: C_6  and  N_7 
REMARK    2  A    between atoms: C_10  and  N_11 
REMARK       I    between atoms: N_11  and  C_12 
REMARK    3  A    between atoms: C_12  and  C_14 
ROOT
ATOM      1  C   UNL d   1      27.385 -17.623   0.303  0.00  0.00     0.050 C 
ATOM      2  C   UNL d   1      25.914 -17.643   0.022  0.00  0.00    -0.035 C 
ATOM      3  C   UNL d   1      25.373 -18.919  -0.145  0.00  0.00     0.010 C 
ATOM      4  C   UNL d   1      24.013 -19.114  -0.330  0.00  0.00     0.017 C 
ATOM      5  C   UNL d   1      23.143 -18.027  -0.368  0.00  0.00     0.034 C 
ATOM      6  C   UNL d   1      23.679 -16.723  -0.284  0.00  0.00     0.047 C 
ATOM      7  C   UNL d   1      25.077 -16.518  -0.145  0.00  0.00     0.042 C 
ENDROOT
BRANCH   7   8
ATOM      8  N   UNL d   1      25.565 -15.186  -0.272  0.00  0.00    -0.322 N 
ATOM      9  C   UNL d   1      26.562 -14.697  -1.104  0.00  0.00     0.258 C 
ATOM     10  O   UNL d   1      27.455 -13.999  -0.619  0.00  0.00    -0.267 OA
ATOM     11  H   UNL d   1      25.210 -14.496   0.383  0.00  0.00     0.169 HD
BRANCH   9  12
ATOM     12  C   UNL d   1      26.598 -15.017  -2.589  0.00  0.00     0.055 C 
ATOM     13  C   UNL d   1      25.483 -14.545  -3.338  0.00  0.00     0.019 C 
ATOM     14  C   UNL d   1      25.530 -14.462  -4.736  0.00  0.00     0.003 C 
ATOM     15  C   UNL d   1      26.707 -14.779  -5.406  0.00  0.00     0.026 C 
ATOM     16  C   UNL d   1      27.809 -15.257  -4.692  0.00  0.00     0.056 C 
ATOM     17 CL   UNL d   1      29.306 -15.356  -5.569  0.00  0.00    -0.083 Cl
ATOM     18  C   UNL d   1      27.736 -15.482  -3.299  0.00  0.00     0.071 C 
ATOM     19 CL   UNL d   1      29.104 -16.234  -2.540  0.00  0.00    -0.081 Cl
ENDBRANCH   9  12
ENDBRANCH   7   8
BRANCH   5  20
ATOM     20  C   UNL d   1      21.667 -18.237  -0.533  0.00  0.00     0.249 C 
ATOM     21  N   UNL d   1      21.102 -19.345   0.066  0.00  0.00    -0.366 N 
ATOM     22  H   UNL d   1      21.590 -20.038   0.607  0.00  0.00     0.159 HD
ATOM     23  H   UNL d   1      20.102 -19.464  -0.026  0.00  0.00     0.159 HD
ATOM     24  O   UNL d   1      20.974 -17.461  -1.158  0.00  0.00    -0.268 OA
ENDBRANCH   5  20
TORSDOF 3
ENDMDL
MODEL 4
REMARK VINA RESULT:    -7.441      3.764      6.444
REMARK INTER + INTRA:          -9.308
REMARK INTER:                  -8.335
REMARK INTRA:                  -0.973
REMARK CONF_INDEPENDENT:        0.895
REMARK UNBOUND:                -0.973
REMARK  3 active torsions:
REMARK  status: ('A' for Active; 'I' for Inactive)
REMARK    1  A    between atoms: C_5  and  C_6 
REMARK       I    between atoms: C_6  and  N_7 
REMARK    2  A    between atoms: C_10  and  N_11 
REMARK       I    between atoms: N_11  and  C_12 
REMARK    3  A    between atoms: C_12  and  C_14 
ROOT
ATOM      1  C   UNL d   1      31.182 -18.059  -1.894  0.00  0.00     0.050 C 
ATOM      2  C   UNL d   1      30.462 -17.209  -2.895  0.00  0.00    -0.035 C 
ATOM      3  C   UNL d   1      30.844 -17.427  -4.221  0.00  0.00     0.010 C 
ATOM      4  C   UNL d   1      30.216 -16.780  -5.274  0.00  0.00     0.017 C 
ATOM      5  C   UNL d   1      29.184 -15.875  -5.032  0.00  0.00     0.034 C 
ATOM      6  C   UNL d   1      28.839 -15.579  -3.694  0.00  0.00     0.047 C 
ATOM      7  C   UNL d   1      29.515 -16.202  -2.612  0.00  0.00     0.042 C 
ENDROOT
BRANCH   7   8
ATOM      8  N   UNL d   1      29.258 -15.708  -1.301  0.00  0.00    -0.322 N 
ATOM      9  C   UNL d   1      28.041 -15.505  -0.667  0.00  0.00     0.258 C 
ATOM     10  O   UNL d   1      27.824 -14.421  -0.124  0.00  0.00    -0.267 OA
ATOM     11  H   UNL d   1      30.054 -15.371  -0.767  0.00  0.00     0.169 HD
BRANCH   9  12
ATOM     12  C   UNL d   1      26.960 -16.574  -0.643  0.00  0.00     0.055 C 
ATOM     13  C   UNL d   1      27.218 -17.678   0.218  0.00  0.00     0.019 C 
ATOM     14  C   UNL d   1      26.194 -18.554   0.602  0.00  0.00     0.003 C 
ATOM     15  C   UNL d   1      24.888 -18.306   0.195  0.00  0.00     0.026 C 
ATOM     16  C   UNL d   1      24.614 -17.236  -0.661  0.00  0.00     0.056 C 
ATOM     17 CL   UNL d   1      22.936 -16.844  -0.885  0.00  0.00    -0.083 Cl
ATOM     18  C   UNL d   1      25.653 -16.427  -1.173  0.00  0.00     0.071 C 
ATOM     19 CL   UNL d   1      25.221 -15.233  -2.359  0.00  0.00    -0.081 Cl
ENDBRANCH   9  12
ENDBRANCH   7   8
BRANCH   5  20
ATOM     20  C   UNL d   1      28.479 -15.200  -6.170  0.00  0.00     0.249 C 
ATOM     21  N   UNL d   1      29.230 -14.840  -7.271  0.00  0.00    -0.366 N 
ATOM     22  H   UNL d   1      30.218 -14.984  -7.385  0.00  0.00     0.159 HD
ATOM     23  H   UNL d   1      28.742 -14.411  -8.046  0.00  0.00     0.159 HD
ATOM     24  O   UNL d   1      27.285 -14.981  -6.147  0.00  0.00    -0.268 OA
ENDBRANCH   5  20
TORSDOF 3
ENDMDL
MODEL 5
REMARK VINA RESULT:    -7.221      4.094      5.931
REMARK INTER + INTRA:          -9.251
REMARK INTER:                  -8.116
REMARK INTRA:                  -1.135
REMARK CONF_INDEPENDENT:        0.895
REMARK UNBOUND:                -1.135
REMARK  3 active torsions:
REMARK  status: ('A' for Active; 'I' for Inactive)
REMARK    1  A    between atoms: C_5  and  C_6 
REMARK       I    between atoms: C_6  and  N_7 
REMARK    2  A    between atoms: C_10  and  N_11 
REMARK       I    between atoms: N_11  and  C_12 
REMARK    3  A    between atoms: C_12  and  C_14 
ROOT
ATOM      1  C   UNL d   1      27.025 -12.901  -0.564  0.00  0.00     0.050 C 
ATOM      2  C   UNL d   1      27.370 -13.329   0.830  0.00  0.00    -0.035 C 
ATOM      3  C   UNL d   1      27.058 -12.391   1.817  0.00  0.00     0.010 C 
ATOM      4  C   UNL d   1      27.239 -12.666   3.163  0.00  0.00     0.017 C 
ATOM      5  C   UNL d   1      27.756 -13.894   3.570  0.00  0.00     0.034 C 
ATOM      6  C   UNL d   1      28.155 -14.824   2.584  0.00  0.00     0.047 C 
ATOM      7  C   UNL d   1      28.018 -14.525   1.203  0.00  0.00     0.042 C 
ENDROOT
BRANCH   7   8
ATOM      8  N   UNL d   1      28.626 -15.415   0.272  0.00  0.00    -0.322 N 
ATOM      9  C   UNL d   1      28.087 -16.536  -0.345  0.00  0.00     0.258 C 
ATOM     10  O   UNL d   1      28.720 -17.592  -0.321  0.00  0.00    -0.267 OA
ATOM     11  H   UNL d   1      29.615 -15.284   0.079  0.00  0.00     0.169 HD
BRANCH   9  12
ATOM     12  C   UNL d   1      26.729 -16.502  -1.027  0.00  0.00     0.055 C 
ATOM     13  C   UNL d   1      25.662 -17.082  -0.285  0.00  0.00     0.019 C 
ATOM     14  C   UNL d   1      24.325 -16.830  -0.617  0.00  0.00     0.003 C 
ATOM     15  C   UNL d   1      24.026 -15.943  -1.645  0.00  0.00     0.026 C 
ATOM     16  C   UNL d   1      25.057 -15.372  -2.396  0.00  0.00     0.056 C 
ATOM     17 CL   UNL d   1      24.602 -14.076  -3.461  0.00  0.00    -0.083 Cl
ATOM     18  C   UNL d   1      26.407 -15.723  -2.169  0.00  0.00     0.071 C 
ATOM     19 CL   UNL d   1      27.591 -15.085  -3.267  0.00  0.00    -0.081 Cl
ENDBRANCH   9  12
ENDBRANCH   7   8
BRANCH   5  20
ATOM     20  C   UNL d   1      27.920 -14.208   5.027  0.00  0.00     0.249 C 
ATOM     21  N   UNL d   1      28.665 -15.319   5.367  0.00  0.00    -0.366 N 
ATOM     22  H   UNL d   1      29.111 -15.951   4.725  0.00  0.00     0.159 HD
ATOM     23  H   UNL d   1      28.795 -15.507   6.352  0.00  0.00     0.159 HD
ATOM     24  O   UNL d   1      27.433 -13.511   5.893  0.00  0.00    -0.268 OA
ENDBRANCH   5  20
TORSDOF 3
ENDMDL
MODEL 6
REMARK VINA RESULT:    -6.951     10.401     12.216
REMARK INTER + INTRA:          -8.982
REMARK INTER:                  -7.846
REMARK INTRA:                  -1.136
REMARK CONF_INDEPENDENT:        0.895
REMARK UNBOUND:                -1.136
REMARK  3 active torsions:
REMARK  status: ('A' for Active; 'I' for Inactive)
REMARK    1  A    between atoms: C_5  and  C_6 
REMARK       I    between atoms: C_6  and  N_7 
REMARK    2  A    between atoms: C_10  and  N_11 
REMARK       I    between atoms: N_11  and  C_12 
REMARK    3  A    between atoms: C_12  and  C_14 
ROOT
ATOM      1  C   UNL d   1      29.280  -9.441   7.866  0.00  0.00     0.050 C 
ATOM      2  C   UNL d   1      29.071 -10.822   7.326  0.00  0.00    -0.035 C 
ATOM      3  C   UNL d   1      29.192 -10.926   5.939  0.00  0.00     0.010 C 
ATOM      4  C   UNL d   1      29.108 -12.149   5.291  0.00  0.00     0.017 C 
ATOM      5  C   UNL d   1      28.884 -13.317   6.016  0.00  0.00     0.034 C 
ATOM      6  C   UNL d   1      28.676 -13.224   7.410  0.00  0.00     0.047 C 
ATOM      7  C   UNL d   1      28.711 -11.967   8.069  0.00  0.00     0.042 C 
ENDROOT
BRANCH   7   8
ATOM      8  N   UNL d   1      28.293 -11.923   9.430  0.00  0.00    -0.322 N 
ATOM      9  C   UNL d   1      28.303 -12.935  10.380  0.00  0.00     0.258 C 
ATOM     10  O   UNL d   1      27.279 -13.154  11.029  0.00  0.00    -0.267 OA
ATOM     11  H   UNL d   1      27.844 -11.071   9.752  0.00  0.00     0.169 HD
BRANCH   9  12
ATOM     12  C   UNL d   1      29.533 -13.795  10.623  0.00  0.00     0.055 C 
ATOM     13  C   UNL d   1      29.327 -15.198  10.495  0.00  0.00     0.019 C 
ATOM     14  C   UNL d   1      30.406 -16.080  10.355  0.00  0.00     0.003 C 
ATOM     15  C   UNL d   1      31.699 -15.578  10.269  0.00  0.00     0.026 C 
ATOM     16  C   UNL d   1      31.926 -14.206  10.406  0.00  0.00     0.056 C 
ATOM     17 CL   UNL d   1      33.523 -13.650  10.007  0.00  0.00    -0.083 Cl
ATOM     18  C   UNL d   1      30.866 -13.315  10.689  0.00  0.00     0.071 C 
ATOM     19 CL   UNL d   1      31.281 -11.659  11.006  0.00  0.00    -0.081 Cl
ENDBRANCH   9  12
ENDBRANCH   7   8
BRANCH   5  20
ATOM     20  C   UNL d   1      28.828 -14.646   5.322  0.00  0.00     0.249 C 
ATOM     21  N   UNL d   1      30.016 -15.200   4.892  0.00  0.00    -0.366 N 
ATOM     22  H   UNL d   1      30.930 -14.793   4.995  0.00  0.00     0.159 HD
ATOM     23  H   UNL d   1      29.973 -16.109   4.451  0.00  0.00     0.159 HD
ATOM     24  O   UNL d   1      27.781 -15.236   5.148  0.00  0.00    -0.268 OA
ENDBRANCH   5  20
TORSDOF 3
ENDMDL
MODEL 7
REMARK VINA RESULT:    -6.906      3.552      6.369
REMARK INTER + INTRA:          -8.862
REMARK INTER:                  -7.801
REMARK INTRA:                  -1.061
REMARK CONF_INDEPENDENT:        0.895
REMARK UNBOUND:                -1.061
REMARK  3 active torsions:
REMARK  status: ('A' for Active; 'I' for Inactive)
REMARK    1  A    between atoms: C_5  and  C_6 
REMARK       I    between atoms: C_6  and  N_7 
REMARK    2  A    between atoms: C_10  and  N_11 
REMARK       I    between atoms: N_11  and  C_12 
REMARK    3  A    between atoms: C_12  and  C_14 
ROOT
ATOM      1  C   UNL d   1      29.549 -16.870  -3.393  0.00  0.00     0.050 C 
ATOM      2  C   UNL d   1      28.838 -15.630  -3.842  0.00  0.00    -0.035 C 
ATOM      3  C   UNL d   1      28.830 -15.436  -5.225  0.00  0.00     0.010 C 
ATOM      4  C   UNL d   1      28.144 -14.381  -5.806  0.00  0.00     0.017 C 
ATOM      5  C   UNL d   1      27.449 -13.470  -5.015  0.00  0.00     0.034 C 
ATOM      6  C   UNL d   1      27.513 -13.600  -3.610  0.00  0.00     0.047 C 
ATOM      7  C   UNL d   1      28.256 -14.650  -3.009  0.00  0.00     0.042 C 
ENDROOT
BRANCH   7   8
ATOM      8  N   UNL d   1      28.446 -14.602  -1.599  0.00  0.00    -0.322 N 
ATOM      9  C   UNL d   1      27.567 -14.961  -0.587  0.00  0.00     0.258 C 
ATOM     10  O   UNL d   1      27.365 -14.170   0.337  0.00  0.00    -0.267 OA
ATOM     11  H   UNL d   1      29.300 -14.170  -1.258  0.00  0.00     0.169 HD
BRANCH   9  12
ATOM     12  C   UNL d   1      26.830 -16.290  -0.598  0.00  0.00     0.055 C 
ATOM     13  C   UNL d   1      27.387 -17.300   0.236  0.00  0.00     0.019 C 
ATOM     14  C   UNL d   1      26.651 -18.438   0.591  0.00  0.00     0.003 C 
ATOM     15  C   UNL d   1      25.327 -18.556   0.181  0.00  0.00     0.026 C 
ATOM     16  C   UNL d   1      24.764 -17.583  -0.649  0.00  0.00     0.056 C 
ATOM     17 CL   UNL d   1      23.043 -17.672  -0.874  0.00  0.00    -0.083 Cl
ATOM     18  C   UNL d   1      25.533 -16.502  -1.133  0.00  0.00     0.071 C 
ATOM     19 CL   UNL d   1      24.783 -15.446  -2.290  0.00  0.00    -0.081 Cl
ENDBRANCH   9  12
ENDBRANCH   7   8
BRANCH   5  20
ATOM     20  C   UNL d   1      26.677 -12.347  -5.644  0.00  0.00     0.249 C 
ATOM     21  N   UNL d   1      25.528 -11.920  -5.009  0.00  0.00    -0.366 N 
ATOM     22  H   UNL d   1      25.150 -12.295  -4.156  0.00  0.00     0.159 HD
ATOM     23  H   UNL d   1      25.029 -11.144  -5.423  0.00  0.00     0.159 HD
ATOM     24  O   UNL d   1      27.043 -11.811  -6.670  0.00  0.00    -0.268 OA
ENDBRANCH   5  20
TORSDOF 3
ENDMDL
MODEL 8
REMARK VINA RESULT:    -6.890      4.593      6.576
REMARK INTER + INTRA:          -8.672
REMARK INTER:                  -7.784
REMARK INTRA:                  -0.888
REMARK CONF_INDEPENDENT:        0.895
REMARK UNBOUND:                -0.888
REMARK  3 active torsions:
REMARK  status: ('A' for Active; 'I' for Inactive)
REMARK    1  A    between atoms: C_5  and  C_6 
REMARK       I    between atoms: C_6  and  N_7 
REMARK    2  A    between atoms: C_10  and  N_11 
REMARK       I    between atoms: N_11  and  C_12 
REMARK    3  A    between atoms: C_12  and  C_14 
ROOT
ATOM      1  C   UNL d   1      28.565 -11.717  -0.410  0.00  0.00     0.050 C 
ATOM      2  C   UNL d   1      28.449 -12.540   0.836  0.00  0.00    -0.035 C 
ATOM      3  C   UNL d   1      28.448 -11.800   2.021  0.00  0.00     0.010 C 
ATOM      4  C   UNL d   1      28.265 -12.405   3.255  0.00  0.00     0.017 C 
ATOM      5  C   UNL d   1      28.091 -13.784   3.346  0.00  0.00     0.034 C 
ATOM      6  C   UNL d   1      28.172 -14.560   2.169  0.00  0.00     0.047 C 
ATOM      7  C   UNL d   1      28.409 -13.948   0.909  0.00  0.00     0.042 C 
ENDROOT
BRANCH   7   8
ATOM      8  N   UNL d   1      28.682 -14.802  -0.198  0.00  0.00    -0.322 N 
ATOM      9  C   UNL d   1      28.047 -15.978  -0.572  0.00  0.00     0.258 C 
ATOM     10  O   UNL d   1      28.730 -16.975  -0.811  0.00  0.00    -0.267 OA
ATOM     11  H   UNL d   1      29.503 -14.590  -0.758  0.00  0.00     0.169 HD
BRANCH   9  12
ATOM     12  C   UNL d   1      26.533 -16.076  -0.670  0.00  0.00     0.055 C 
ATOM     13  C   UNL d   1      25.919 -15.129  -1.538  0.00  0.00     0.019 C 
ATOM     14  C   UNL d   1      24.605 -15.304  -1.990  0.00  0.00     0.003 C 
ATOM     15  C   UNL d   1      23.905 -16.455  -1.646  0.00  0.00     0.026 C 
ATOM     16  C   UNL d   1      24.483 -17.391  -0.784  0.00  0.00     0.056 C 
ATOM     17 CL   UNL d   1      23.655 -18.912  -0.639  0.00  0.00    -0.083 Cl
ATOM     18  C   UNL d   1      25.752 -17.165  -0.205  0.00  0.00     0.071 C 
ATOM     19 CL   UNL d   1      26.302 -18.309   0.980  0.00  0.00    -0.081 Cl
ENDBRANCH   9  12
ENDBRANCH   7   8
BRANCH   5  20
ATOM     20  C   UNL d   1      27.859 -14.437   4.677  0.00  0.00     0.249 C 
ATOM     21  N   UNL d   1      28.630 -15.535   4.999  0.00  0.00    -0.366 N 
ATOM     22  H   UNL d   1      29.340 -15.949   4.420  0.00  0.00     0.159 HD
ATOM     23  H   UNL d   1      28.488 -15.952   5.909  0.00  0.00     0.159 HD
ATOM     24  O   UNL d   1      27.033 -14.019   5.462  0.00  0.00    -0.268 OA
ENDBRANCH   5  20
TORSDOF 3
ENDMDL
MODEL 9
REMARK VINA RESULT:    -6.707      3.574      5.650
REMARK INTER + INTRA:          -8.893
REMARK INTER:                  -7.602
REMARK INTRA:                  -1.291
REMARK CONF_INDEPENDENT:        0.895
REMARK UNBOUND:                -1.291
REMARK  3 active torsions:
REMARK  status: ('A' for Active; 'I' for Inactive)
REMARK    1  A    between atoms: C_5  and  C_6 
REMARK       I    between atoms: C_6  and  N_7 
REMARK    2  A    between atoms: C_10  and  N_11 
REMARK       I    between atoms: N_11  and  C_12 
REMARK    3  A    between atoms: C_12  and  C_14 
ROOT
ATOM      1  C   UNL d   1      28.775 -14.866  -6.711  0.00  0.00     0.050 C 
ATOM      2  C   UNL d   1      28.985 -15.533  -5.387  0.00  0.00    -0.035 C 
ATOM      3  C   UNL d   1      29.986 -16.506  -5.381  0.00  0.00     0.010 C 
ATOM      4  C   UNL d   1      30.359 -17.158  -4.215  0.00  0.00     0.017 C 
ATOM      5  C   UNL d   1      29.727 -16.865  -3.009  0.00  0.00     0.034 C 
ATOM      6  C   UNL d   1      28.655 -15.944  -3.009  0.00  0.00     0.047 C 
ATOM      7  C   UNL d   1      28.238 -15.312  -4.210  0.00  0.00     0.042 C 
ENDROOT
BRANCH   7   8
ATOM      8  N   UNL d   1      27.030 -14.559  -4.173  0.00  0.00    -0.322 N 
ATOM      9  C   UNL d   1      25.812 -14.888  -3.596  0.00  0.00     0.258 C 
ATOM     10  O   UNL d   1      24.784 -14.775  -4.266  0.00  0.00    -0.267 OA
ATOM     11  H   UNL d   1      27.004 -13.695  -4.707  0.00  0.00     0.169 HD
BRANCH   9  12
ATOM     12  C   UNL d   1      25.713 -15.408  -2.171  0.00  0.00     0.055 C 
ATOM     13  C   UNL d   1      25.160 -16.712  -2.038  0.00  0.00     0.019 C 
ATOM     14  C   UNL d   1      25.314 -17.449  -0.856  0.00  0.00     0.003 C 
ATOM     15  C   UNL d   1      26.078 -16.932   0.184  0.00  0.00     0.026 C 
ATOM     16  C   UNL d   1      26.619 -15.647   0.080  0.00  0.00     0.056 C 
ATOM     17 CL   UNL d   1      27.779 -15.204   1.296  0.00  0.00    -0.083 Cl
ATOM     18  C   UNL d   1      26.357 -14.833  -1.045  0.00  0.00     0.071 C 
ATOM     19 CL   UNL d   1      26.938 -13.197  -0.996  0.00  0.00    -0.081 Cl
ENDBRANCH   9  12
ENDBRANCH   7   8
BRANCH   5  20
ATOM     20  C   UNL d   1      30.152 -17.543  -1.740  0.00  0.00     0.249 C 
ATOM     21  N   UNL d   1      29.371 -17.359  -0.618  0.00  0.00    -0.366 N 
ATOM     22  H   UNL d   1      28.534 -16.803  -0.565  0.00  0.00     0.159 HD
ATOM     23  H   UNL d   1      29.648 -17.842   0.226  0.00  0.00     0.159 HD
ATOM     24  O   UNL d   1      31.140 -18.246  -1.688  0.00  0.00    -0.268 OA
ENDBRANCH   5  20
TORSDOF 3
ENDMDL
