MODEL 1
REMARK VINA RESULT:    -8.399      0.000      0.000
REMARK INTER + INTRA:         -13.790
REMARK INTER:                 -11.083
REMARK INTRA:                  -2.706
REMARK CONF_INDEPENDENT:        2.685
REMARK UNBOUND:                -2.706
REMARK  9 active torsions:
REMARK  status: ('A' for Active; 'I' for Inactive)
REMARK    1  A    between atoms: C_8  and  O_9 
REMARK    2  A    between atoms: O_9  and  C_10 
REMARK    3  A    between atoms: C_10  and  C_11 
REMARK       I    between atoms: C_11  and  N_13 
REMARK    4  A    between atoms: N_13  and  C_14 
REMARK    5  A    between atoms: C_14  and  N_16 
REMARK    6  A    between atoms: N_16  and  N_17 
REMARK       I    between atoms: N_17  and  C_18 
REMARK    7  A    between atoms: C_18  and  C_20 
REMARK    8  A    between atoms: C_20  and  O_21 
REMARK    9  A    between atoms: O_21  and  C_22 
ROOT
ATOM      1  N   UNL d   1      31.188 -13.906   2.642  0.00  0.00    -0.273 N 
ATOM      2  H   UNL d   1      31.385 -12.911   2.517  0.00  0.00     0.189 HD
ENDROOT
BRANCH   1   3
ATOM      3  C   UNL d   1      31.435 -14.948   1.731  0.00  0.00     0.193 C 
ATOM      4  S   UNL d   1      33.037 -15.415   1.452  0.00  0.00    -0.039 SA
BRANCH   3   5
ATOM      5  N   UNL d   1      30.309 -15.532   1.109  0.00  0.00    -0.301 N 
ATOM      6  C   UNL d   1      30.273 -16.035  -0.220  0.00  0.00     0.248 C 
ATOM      7  O   UNL d   1      31.238 -16.015  -0.992  0.00  0.00    -0.271 OA
ATOM      8  H   UNL d   1      29.456 -15.601   1.654  0.00  0.00     0.171 HD
BRANCH   6   9
ATOM      9  C   UNL d   1      28.957 -16.639  -0.732  0.00  0.00     0.278 C 
BRANCH   9  10
ATOM     10  O   UNL d   1      27.821 -16.248   0.061  0.00  0.00    -0.342 OA
BRANCH  10  11
ATOM     11  C   UNL d   1      26.549 -16.677  -0.235  0.00  0.00     0.075 A 
ATOM     12  C   UNL d   1      26.160 -17.858   0.442  0.00  0.00     0.039 A 
ATOM     13  C   UNL d   1      24.891 -18.433   0.259  0.00  0.00     0.022 A 
ATOM     14  C   UNL d   1      23.996 -17.834  -0.615  0.00  0.00     0.011 A 
ATOM     15  C   UNL d   1      24.361 -16.677  -1.293  0.00  0.00     0.028 A 
ATOM     16 BR   UNL d   1      22.278 -18.570  -0.898  0.00  0.00    -0.051 Br
ATOM     17  C   UNL d   1      25.628 -16.082  -1.111  0.00  0.00    -0.027 A 
ATOM     18  C   UNL d   1      25.881 -14.827  -1.886  0.00  0.00     0.051 C 
ENDBRANCH  10  11
ENDBRANCH   9  10
ENDBRANCH   6   9
ENDBRANCH   3   5
ENDBRANCH   1   3
BRANCH   1  19
ATOM     19  N   UNL d   1      30.576 -14.244   3.932  0.00  0.00    -0.266 N 
ATOM     20  C   UNL d   1      29.208 -14.448   4.069  0.00  0.00     0.260 C 
ATOM     21  O   UNL d   1      28.460 -14.347   3.096  0.00  0.00    -0.269 OA
ATOM     22  H   UNL d   1      31.237 -14.322   4.708  0.00  0.00     0.190 HD
BRANCH  20  23
ATOM     23  C   UNL d   1      28.706 -14.796   5.514  0.00  0.00     0.280 C 
BRANCH  23  24
ATOM     24  O   UNL d   1      29.693 -14.428   6.494  0.00  0.00    -0.341 OA
BRANCH  24  25
ATOM     25  C   UNL d   1      29.478 -13.289   7.243  0.00  0.00     0.080 A 
ATOM     26  C   UNL d   1      29.540 -12.007   6.688  0.00  0.00     0.037 A 
ATOM     27  C   UNL d   1      29.268 -10.882   7.475  0.00  0.00     0.004 A 
ATOM     28  C   UNL d   1      28.917 -11.025   8.816  0.00  0.00     0.012 A 
ATOM     29  C   UNL d   1      28.789 -12.297   9.385  0.00  0.00    -0.023 A 
ATOM     30  C   UNL d   1      28.381 -12.433  10.725  0.00  0.00     0.012 A 
ATOM     31  C   UNL d   1      29.063 -13.449   8.597  0.00  0.00     0.007 A 
ATOM     32  C   UNL d   1      28.239 -13.692  11.304  0.00  0.00     0.001 A 
ATOM     33  C   UNL d   1      28.498 -14.828  10.547  0.00  0.00     0.001 A 
ATOM     34  C   UNL d   1      28.904 -14.708   9.213  0.00  0.00     0.015 A 
ENDBRANCH  24  25
ENDBRANCH  23  24
ENDBRANCH  20  23
ENDBRANCH   1  19
TORSDOF 9
ENDMDL
MODEL 2
REMARK VINA RESULT:    -7.991      7.730      9.670
REMARK INTER + INTRA:         -13.652
REMARK INTER:                 -10.676
REMARK INTRA:                  -2.976
REMARK CONF_INDEPENDENT:        2.685
REMARK UNBOUND:                -2.976
REMARK  9 active torsions:
REMARK  status: ('A' for Active; 'I' for Inactive)
REMARK    1  A    between atoms: C_8  and  O_9 
REMARK    2  A    between atoms: O_9  and  C_10 
REMARK    3  A    between atoms: C_10  and  C_11 
REMARK       I    between atoms: C_11  and  N_13 
REMARK    4  A    between atoms: N_13  and  C_14 
REMARK    5  A    between atoms: C_14  and  N_16 
REMARK    6  A    between atoms: N_16  and  N_17 
REMARK       I    between atoms: N_17  and  C_18 
REMARK    7  A    between atoms: C_18  and  C_20 
REMARK    8  A    between atoms: C_20  and  O_21 
REMARK    9  A    between atoms: O_21  and  C_22 
ROOT
ATOM      1  N   UNL d   1      28.419 -12.739  -5.510  0.00  0.00    -0.273 N 
ATOM      2  H   UNL d   1      28.902 -12.094  -4.883  0.00  0.00     0.189 HD
ENDROOT
BRANCH   1   3
ATOM      3  C   UNL d   1      28.636 -12.917  -6.887  0.00  0.00     0.193 C 
ATOM      4  S   UNL d   1      27.891 -11.849  -7.967  0.00  0.00    -0.039 SA
BRANCH   3   5
ATOM      5  N   UNL d   1      29.473 -13.990  -7.268  0.00  0.00    -0.301 N 
ATOM      6  C   UNL d   1      30.847 -14.121  -6.931  0.00  0.00     0.248 C 
ATOM      7  O   UNL d   1      31.474 -13.294  -6.257  0.00  0.00    -0.271 OA
ATOM      8  H   UNL d   1      29.061 -14.730  -7.827  0.00  0.00     0.171 HD
BRANCH   6   9
ATOM      9  C   UNL d   1      31.604 -15.359  -7.433  0.00  0.00     0.278 C 
BRANCH   9  10
ATOM     10  O   UNL d   1      30.739 -16.490  -7.644  0.00  0.00    -0.342 OA
BRANCH  10  11
ATOM     11  C   UNL d   1      30.729 -17.563  -6.786  0.00  0.00     0.075 A 
ATOM     12  C   UNL d   1      31.148 -18.782  -7.371  0.00  0.00     0.039 A 
ATOM     13  C   UNL d   1      31.202 -19.977  -6.635  0.00  0.00     0.022 A 
ATOM     14  C   UNL d   1      30.825 -19.969  -5.300  0.00  0.00     0.011 A 
ATOM     15  C   UNL d   1      30.406 -18.783  -4.709  0.00  0.00     0.028 A 
ATOM     16 BR   UNL d   1      30.877 -21.552  -4.269  0.00  0.00    -0.051 Br
ATOM     17  C   UNL d   1      30.358 -17.573  -5.432  0.00  0.00    -0.027 A 
ATOM     18  C   UNL d   1      29.907 -16.368  -4.666  0.00  0.00     0.051 C 
ENDBRANCH  10  11
ENDBRANCH   9  10
ENDBRANCH   6   9
ENDBRANCH   3   5
ENDBRANCH   1   3
BRANCH   1  19
ATOM     19  N   UNL d   1      27.387 -13.556  -4.861  0.00  0.00    -0.266 N 
ATOM     20  C   UNL d   1      26.966 -14.770  -5.390  0.00  0.00     0.260 C 
ATOM     21  O   UNL d   1      27.454 -15.200  -6.436  0.00  0.00    -0.269 OA
ATOM     22  H   UNL d   1      27.016 -13.161  -3.995  0.00  0.00     0.190 HD
BRANCH  20  23
ATOM     23  C   UNL d   1      25.850 -15.522  -4.584  0.00  0.00     0.280 C 
BRANCH  23  24
ATOM     24  O   UNL d   1      25.808 -15.055  -3.224  0.00  0.00    -0.341 OA
BRANCH  24  25
ATOM     25  C   UNL d   1      26.336 -15.864  -2.238  0.00  0.00     0.080 A 
ATOM     26  C   UNL d   1      27.699 -15.866  -1.924  0.00  0.00     0.037 A 
ATOM     27  C   UNL d   1      28.184 -16.668  -0.886  0.00  0.00     0.004 A 
ATOM     28  C   UNL d   1      27.315 -17.462  -0.140  0.00  0.00     0.012 A 
ATOM     29  C   UNL d   1      25.939 -17.436  -0.390  0.00  0.00    -0.023 A 
ATOM     30  C   UNL d   1      25.063 -18.200   0.403  0.00  0.00     0.012 A 
ATOM     31  C   UNL d   1      25.432 -16.627  -1.444  0.00  0.00     0.007 A 
ATOM     32  C   UNL d   1      23.689 -18.179   0.174  0.00  0.00     0.001 A 
ATOM     33  C   UNL d   1      23.176 -17.390  -0.848  0.00  0.00     0.001 A 
ATOM     34  C   UNL d   1      24.036 -16.624  -1.645  0.00  0.00     0.015 A 
ENDBRANCH  24  25
ENDBRANCH  23  24
ENDBRANCH  20  23
ENDBRANCH   1  19
TORSDOF 9
ENDMDL
MODEL 3
REMARK VINA RESULT:    -7.871      8.015      9.950
REMARK INTER + INTRA:         -14.041
REMARK INTER:                 -10.556
REMARK INTRA:                  -3.485
REMARK CONF_INDEPENDENT:        2.685
REMARK UNBOUND:                -3.485
REMARK  9 active torsions:
REMARK  status: ('A' for Active; 'I' for Inactive)
REMARK    1  A    between atoms: C_8  and  O_9 
REMARK    2  A    between atoms: O_9  and  C_10 
REMARK    3  A    between atoms: C_10  and  C_11 
REMARK       I    between atoms: C_11  and  N_13 
REMARK    4  A    between atoms: N_13  and  C_14 
REMARK    5  A    between atoms: C_14  and  N_16 
REMARK    6  A    between atoms: N_16  and  N_17 
REMARK       I    between atoms: N_17  and  C_18 
REMARK    7  A    between atoms: C_18  and  C_20 
REMARK    8  A    between atoms: C_20  and  O_21 
REMARK    9  A    between atoms: O_21  and  C_22 
ROOT
ATOM      1  N   UNL d   1      27.507 -12.379  -5.847  0.00  0.00    -0.273 N 
ATOM      2  H   UNL d   1      27.423 -11.368  -5.725  0.00  0.00     0.189 HD
ENDROOT
BRANCH   1   3
ATOM      3  C   UNL d   1      28.391 -13.068  -6.696  0.00  0.00     0.193 C 
ATOM      4  S   UNL d   1      28.501 -12.584  -8.312  0.00  0.00    -0.039 SA
BRANCH   3   5
ATOM      5  N   UNL d   1      29.130 -14.127  -6.123  0.00  0.00    -0.301 N 
ATOM      6  C   UNL d   1      28.575 -15.324  -5.594  0.00  0.00     0.248 C 
ATOM      7  O   UNL d   1      27.364 -15.575  -5.575  0.00  0.00    -0.271 OA
ATOM      8  H   UNL d   1      30.139 -14.029  -6.085  0.00  0.00     0.171 HD
BRANCH   6   9
ATOM      9  C   UNL d   1      29.533 -16.372  -5.008  0.00  0.00     0.278 C 
BRANCH   9  10
ATOM     10  O   UNL d   1      30.819 -16.371  -5.655  0.00  0.00    -0.342 OA
BRANCH  10  11
ATOM     11  C   UNL d   1      31.122 -17.254  -6.664  0.00  0.00     0.075 A 
ATOM     12  C   UNL d   1      30.645 -18.570  -6.450  0.00  0.00     0.039 A 
ATOM     13  C   UNL d   1      30.863 -19.597  -7.384  0.00  0.00     0.022 A 
ATOM     14  C   UNL d   1      31.573 -19.321  -8.543  0.00  0.00     0.011 A 
ATOM     15  C   UNL d   1      32.054 -18.036  -8.768  0.00  0.00     0.028 A 
ATOM     16 BR   UNL d   1      31.894 -20.670  -9.827  0.00  0.00    -0.051 Br
ATOM     17  C   UNL d   1      31.833 -16.992  -7.846  0.00  0.00    -0.027 A 
ATOM     18  C   UNL d   1      32.387 -15.654  -8.224  0.00  0.00     0.051 C 
ENDBRANCH  10  11
ENDBRANCH   9  10
ENDBRANCH   6   9
ENDBRANCH   3   5
ENDBRANCH   1   3
BRANCH   1  19
ATOM     19  N   UNL d   1      26.580 -13.167  -5.026  0.00  0.00    -0.266 N 
ATOM     20  C   UNL d   1      25.721 -12.574  -4.108  0.00  0.00     0.260 C 
ATOM     21  O   UNL d   1      25.716 -11.352  -3.954  0.00  0.00    -0.269 OA
ATOM     22  H   UNL d   1      26.617 -14.174  -5.192  0.00  0.00     0.190 HD
BRANCH  20  23
ATOM     23  C   UNL d   1      24.797 -13.551  -3.301  0.00  0.00     0.280 C 
BRANCH  23  24
ATOM     24  O   UNL d   1      25.171 -14.918  -3.546  0.00  0.00    -0.341 OA
BRANCH  24  25
ATOM     25  C   UNL d   1      26.004 -15.541  -2.638  0.00  0.00     0.080 A 
ATOM     26  C   UNL d   1      27.369 -15.249  -2.555  0.00  0.00     0.037 A 
ATOM     27  C   UNL d   1      28.167 -15.869  -1.588  0.00  0.00     0.004 A 
ATOM     28  C   UNL d   1      27.611 -16.773  -0.685  0.00  0.00     0.012 A 
ATOM     29  C   UNL d   1      26.237 -17.040  -0.703  0.00  0.00    -0.023 A 
ATOM     30  C   UNL d   1      25.675 -17.913   0.247  0.00  0.00     0.012 A 
ATOM     31  C   UNL d   1      25.415 -16.418  -1.682  0.00  0.00     0.007 A 
ATOM     32  C   UNL d   1      24.309 -18.183   0.248  0.00  0.00     0.001 A 
ATOM     33  C   UNL d   1      23.489 -17.579  -0.697  0.00  0.00     0.001 A 
ATOM     34  C   UNL d   1      24.035 -16.709  -1.649  0.00  0.00     0.015 A 
ENDBRANCH  24  25
ENDBRANCH  23  24
ENDBRANCH  20  23
ENDBRANCH   1  19
TORSDOF 9
ENDMDL
MODEL 4
REMARK VINA RESULT:    -7.528      7.050     10.378
REMARK INTER + INTRA:         -14.104
REMARK INTER:                 -10.213
REMARK INTRA:                  -3.892
REMARK CONF_INDEPENDENT:        2.685
REMARK UNBOUND:                -3.892
REMARK  9 active torsions:
REMARK  status: ('A' for Active; 'I' for Inactive)
REMARK    1  A    between atoms: C_8  and  O_9 
REMARK    2  A    between atoms: O_9  and  C_10 
REMARK    3  A    between atoms: C_10  and  C_11 
REMARK       I    between atoms: C_11  and  N_13 
REMARK    4  A    between atoms: N_13  and  C_14 
REMARK    5  A    between atoms: C_14  and  N_16 
REMARK    6  A    between atoms: N_16  and  N_17 
REMARK       I    between atoms: N_17  and  C_18 
REMARK    7  A    between atoms: C_18  and  C_20 
REMARK    8  A    between atoms: C_20  and  O_21 
REMARK    9  A    between atoms: O_21  and  C_22 
ROOT
ATOM      1  N   UNL d   1      25.536 -11.703  -4.614  0.00  0.00    -0.273 N 
ATOM      2  H   UNL d   1      24.866 -11.344  -5.296  0.00  0.00     0.189 HD
ENDROOT
BRANCH   1   3
ATOM      3  C   UNL d   1      26.025 -11.049  -3.469  0.00  0.00     0.193 C 
ATOM      4  S   UNL d   1      26.051  -9.358  -3.453  0.00  0.00    -0.039 SA
BRANCH   3   5
ATOM      5  N   UNL d   1      26.466 -11.869  -2.406  0.00  0.00    -0.301 N 
ATOM      6  C   UNL d   1      27.543 -12.794  -2.473  0.00  0.00     0.248 C 
ATOM      7  O   UNL d   1      28.224 -12.988  -3.487  0.00  0.00    -0.271 OA
ATOM      8  H   UNL d   1      25.977 -11.791  -1.521  0.00  0.00     0.171 HD
BRANCH   6   9
ATOM      9  C   UNL d   1      27.884 -13.604  -1.214  0.00  0.00     0.278 C 
BRANCH   9  10
ATOM     10  O   UNL d   1      27.920 -15.022  -1.459  0.00  0.00    -0.342 OA
BRANCH  10  11
ATOM     11  C   UNL d   1      26.836 -15.828  -1.206  0.00  0.00     0.075 A 
ATOM     12  C   UNL d   1      25.594 -15.279  -1.608  0.00  0.00     0.039 A 
ATOM     13  C   UNL d   1      24.385 -15.971  -1.427  0.00  0.00     0.022 A 
ATOM     14  C   UNL d   1      24.403 -17.223  -0.831  0.00  0.00     0.011 A 
ATOM     15  C   UNL d   1      25.612 -17.777  -0.424  0.00  0.00     0.028 A 
ATOM     16 BR   UNL d   1      22.803 -18.193  -0.563  0.00  0.00    -0.051 Br
ATOM     17  C   UNL d   1      26.835 -17.099  -0.610  0.00  0.00    -0.027 A 
ATOM     18  C   UNL d   1      28.062 -17.820  -0.145  0.00  0.00     0.051 C 
ENDBRANCH  10  11
ENDBRANCH   9  10
ENDBRANCH   6   9
ENDBRANCH   3   5
ENDBRANCH   1   3
BRANCH   1  19
ATOM     19  N   UNL d   1      26.019 -13.060  -4.896  0.00  0.00    -0.266 N 
ATOM     20  C   UNL d   1      25.246 -14.186  -4.640  0.00  0.00     0.260 C 
ATOM     21  O   UNL d   1      24.116 -14.075  -4.159  0.00  0.00    -0.269 OA
ATOM     22  H   UNL d   1      26.957 -13.101  -5.297  0.00  0.00     0.190 HD
BRANCH  20  23
ATOM     23  C   UNL d   1      25.904 -15.566  -4.988  0.00  0.00     0.280 C 
BRANCH  23  24
ATOM     24  O   UNL d   1      26.997 -15.386  -5.907  0.00  0.00    -0.341 OA
BRANCH  24  25
ATOM     25  C   UNL d   1      28.266 -15.223  -5.389  0.00  0.00     0.080 A 
ATOM     26  C   UNL d   1      28.718 -15.945  -4.280  0.00  0.00     0.037 A 
ATOM     27  C   UNL d   1      30.028 -15.782  -3.817  0.00  0.00     0.004 A 
ATOM     28  C   UNL d   1      30.904 -14.913  -4.464  0.00  0.00     0.012 A 
ATOM     29  C   UNL d   1      30.501 -14.222  -5.611  0.00  0.00    -0.023 A 
ATOM     30  C   UNL d   1      31.409 -13.388  -6.289  0.00  0.00     0.012 A 
ATOM     31  C   UNL d   1      29.171 -14.377  -6.092  0.00  0.00     0.007 A 
ATOM     32  C   UNL d   1      31.026 -12.700  -7.439  0.00  0.00     0.001 A 
ATOM     33  C   UNL d   1      29.733 -12.844  -7.925  0.00  0.00     0.001 A 
ATOM     34  C   UNL d   1      28.818 -13.671  -7.262  0.00  0.00     0.015 A 
ENDBRANCH  24  25
ENDBRANCH  23  24
ENDBRANCH  20  23
ENDBRANCH   1  19
TORSDOF 9
ENDMDL
MODEL 5
REMARK VINA RESULT:    -7.502      6.211      9.519
REMARK INTER + INTRA:         -14.040
REMARK INTER:                 -10.187
REMARK INTRA:                  -3.853
REMARK CONF_INDEPENDENT:        2.685
REMARK UNBOUND:                -3.853
REMARK  9 active torsions:
REMARK  status: ('A' for Active; 'I' for Inactive)
REMARK    1  A    between atoms: C_8  and  O_9 
REMARK    2  A    between atoms: O_9  and  C_10 
REMARK    3  A    between atoms: C_10  and  C_11 
REMARK       I    between atoms: C_11  and  N_13 
REMARK    4  A    between atoms: N_13  and  C_14 
REMARK    5  A    between atoms: C_14  and  N_16 
REMARK    6  A    between atoms: N_16  and  N_17 
REMARK       I    between atoms: N_17  and  C_18 
REMARK    7  A    between atoms: C_18  and  C_20 
REMARK    8  A    between atoms: C_20  and  O_21 
REMARK    9  A    between atoms: O_21  and  C_22 
ROOT
ATOM      1  N   UNL d   1      29.695 -12.869  -2.535  0.00  0.00    -0.273 N 
ATOM      2  H   UNL d   1      30.645 -12.625  -2.251  0.00  0.00     0.189 HD
ENDROOT
BRANCH   1   3
ATOM      3  C   UNL d   1      28.496 -12.542  -1.877  0.00  0.00     0.193 C 
ATOM      4  S   UNL d   1      28.034 -10.918  -1.799  0.00  0.00    -0.039 SA
BRANCH   3   5
ATOM      5  N   UNL d   1      27.759 -13.614  -1.324  0.00  0.00    -0.301 N 
ATOM      6  C   UNL d   1      27.093 -13.591  -0.069  0.00  0.00     0.248 C 
ATOM      7  O   UNL d   1      27.085 -12.615   0.691  0.00  0.00    -0.271 OA
ATOM      8  H   UNL d   1      27.698 -14.470  -1.865  0.00  0.00     0.171 HD
BRANCH   6   9
ATOM      9  C   UNL d   1      26.337 -14.852   0.376  0.00  0.00     0.278 C 
BRANCH   9  10
ATOM     10  O   UNL d   1      25.896 -15.655  -0.735  0.00  0.00    -0.342 OA
BRANCH  10  11
ATOM     11  C   UNL d   1      24.881 -16.572  -0.606  0.00  0.00     0.075 A 
ATOM     12  C   UNL d   1      23.602 -16.080  -0.962  0.00  0.00     0.039 A 
ATOM     13  C   UNL d   1      22.453 -16.887  -0.894  0.00  0.00     0.022 A 
ATOM     14  C   UNL d   1      22.570 -18.198  -0.458  0.00  0.00     0.011 A 
ATOM     15  C   UNL d   1      23.817 -18.698  -0.100  0.00  0.00     0.028 A 
ATOM     16 BR   UNL d   1      21.054 -19.321  -0.347  0.00  0.00    -0.051 Br
ATOM     17  C   UNL d   1      24.981 -17.904  -0.174  0.00  0.00    -0.027 A 
ATOM     18  C   UNL d   1      26.259 -18.575   0.222  0.00  0.00     0.051 C 
ENDBRANCH  10  11
ENDBRANCH   9  10
ENDBRANCH   6   9
ENDBRANCH   3   5
ENDBRANCH   1   3
BRANCH   1  19
ATOM     19  N   UNL d   1      29.614 -13.652  -3.774  0.00  0.00    -0.266 N 
ATOM     20  C   UNL d   1      29.222 -14.985  -3.780  0.00  0.00     0.260 C 
ATOM     21  O   UNL d   1      28.927 -15.556  -2.728  0.00  0.00    -0.269 OA
ATOM     22  H   UNL d   1      29.863 -13.135  -4.619  0.00  0.00     0.190 HD
BRANCH  20  23
ATOM     23  C   UNL d   1      29.193 -15.687  -5.182  0.00  0.00     0.280 C 
BRANCH  23  24
ATOM     24  O   UNL d   1      27.887 -15.574  -5.776  0.00  0.00    -0.341 OA
BRANCH  24  25
ATOM     25  C   UNL d   1      26.929 -14.835  -5.112  0.00  0.00     0.080 A 
ATOM     26  C   UNL d   1      26.080 -15.400  -4.156  0.00  0.00     0.037 A 
ATOM     27  C   UNL d   1      25.154 -14.604  -3.474  0.00  0.00     0.004 A 
ATOM     28  C   UNL d   1      25.077 -13.235  -3.725  0.00  0.00     0.012 A 
ATOM     29  C   UNL d   1      25.954 -12.630  -4.632  0.00  0.00    -0.023 A 
ATOM     30  C   UNL d   1      25.905 -11.239  -4.839  0.00  0.00     0.012 A 
ATOM     31  C   UNL d   1      26.899 -13.428  -5.334  0.00  0.00     0.007 A 
ATOM     32  C   UNL d   1      26.777 -10.619  -5.731  0.00  0.00     0.001 A 
ATOM     33  C   UNL d   1      27.710 -11.382  -6.422  0.00  0.00     0.001 A 
ATOM     34  C   UNL d   1      27.770 -12.767  -6.225  0.00  0.00     0.015 A 
ENDBRANCH  24  25
ENDBRANCH  23  24
ENDBRANCH  20  23
ENDBRANCH   1  19
TORSDOF 9
ENDMDL
MODEL 6
REMARK VINA RESULT:    -7.384      4.328      8.184
REMARK INTER + INTRA:         -14.096
REMARK INTER:                 -10.069
REMARK INTRA:                  -4.028
REMARK CONF_INDEPENDENT:        2.685
REMARK UNBOUND:                -4.028
REMARK  9 active torsions:
REMARK  status: ('A' for Active; 'I' for Inactive)
REMARK    1  A    between atoms: C_8  and  O_9 
REMARK    2  A    between atoms: O_9  and  C_10 
REMARK    3  A    between atoms: C_10  and  C_11 
REMARK       I    between atoms: C_11  and  N_13 
REMARK    4  A    between atoms: N_13  and  C_14 
REMARK    5  A    between atoms: C_14  and  N_16 
REMARK    6  A    between atoms: N_16  and  N_17 
REMARK       I    between atoms: N_17  and  C_18 
REMARK    7  A    between atoms: C_18  and  C_20 
REMARK    8  A    between atoms: C_20  and  O_21 
REMARK    9  A    between atoms: O_21  and  C_22 
ROOT
ATOM      1  N   UNL d   1      27.655 -12.613   2.656  0.00  0.00    -0.273 N 
ATOM      2  H   UNL d   1      27.374 -11.828   3.245  0.00  0.00     0.189 HD
ENDROOT
BRANCH   1   3
ATOM      3  C   UNL d   1      27.932 -13.930   3.063  0.00  0.00     0.193 C 
ATOM      4  S   UNL d   1      27.668 -14.350   4.680  0.00  0.00    -0.039 SA
BRANCH   3   5
ATOM      5  N   UNL d   1      28.417 -14.815   2.073  0.00  0.00    -0.301 N 
ATOM      6  C   UNL d   1      27.785 -15.083   0.829  0.00  0.00     0.248 C 
ATOM      7  O   UNL d   1      26.721 -14.564   0.469  0.00  0.00    -0.271 OA
ATOM      8  H   UNL d   1      29.289 -15.298   2.263  0.00  0.00     0.171 HD
BRANCH   6   9
ATOM      9  C   UNL d   1      28.458 -16.076  -0.129  0.00  0.00     0.278 C 
BRANCH   9  10
ATOM     10  O   UNL d   1      27.590 -16.490  -1.200  0.00  0.00    -0.342 OA
BRANCH  10  11
ATOM     11  C   UNL d   1      26.353 -17.037  -0.958  0.00  0.00     0.075 A 
ATOM     12  C   UNL d   1      25.312 -16.501  -1.754  0.00  0.00     0.039 A 
ATOM     13  C   UNL d   1      23.986 -16.950  -1.640  0.00  0.00     0.022 A 
ATOM     14  C   UNL d   1      23.682 -17.939  -0.716  0.00  0.00     0.011 A 
ATOM     15  C   UNL d   1      24.690 -18.475   0.078  0.00  0.00     0.028 A 
ATOM     16 BR   UNL d   1      21.913 -18.575  -0.522  0.00  0.00    -0.051 Br
ATOM     17  C   UNL d   1      26.028 -18.043  -0.034  0.00  0.00    -0.027 A 
ATOM     18  C   UNL d   1      27.014 -18.720   0.867  0.00  0.00     0.051 C 
ENDBRANCH  10  11
ENDBRANCH   9  10
ENDBRANCH   6   9
ENDBRANCH   3   5
ENDBRANCH   1   3
BRANCH   1  19
ATOM     19  N   UNL d   1      27.772 -12.290   1.230  0.00  0.00    -0.266 N 
ATOM     20  C   UNL d   1      27.313 -11.087   0.706  0.00  0.00     0.260 C 
ATOM     21  O   UNL d   1      26.784 -10.248   1.436  0.00  0.00    -0.269 OA
ATOM     22  H   UNL d   1      28.221 -13.014   0.666  0.00  0.00     0.190 HD
BRANCH  20  23
ATOM     23  C   UNL d   1      27.503 -10.892  -0.839  0.00  0.00     0.280 C 
BRANCH  23  24
ATOM     24  O   UNL d   1      28.020 -12.093  -1.439  0.00  0.00    -0.341 OA
BRANCH  24  25
ATOM     25  C   UNL d   1      27.230 -12.758  -2.355  0.00  0.00     0.080 A 
ATOM     26  C   UNL d   1      25.931 -12.341  -2.663  0.00  0.00     0.037 A 
ATOM     27  C   UNL d   1      25.183 -13.018  -3.632  0.00  0.00     0.004 A 
ATOM     28  C   UNL d   1      25.726 -14.104  -4.314  0.00  0.00     0.012 A 
ATOM     29  C   UNL d   1      27.043 -14.509  -4.071  0.00  0.00    -0.023 A 
ATOM     30  C   UNL d   1      27.601 -15.573  -4.803  0.00  0.00     0.012 A 
ATOM     31  C   UNL d   1      27.815 -13.831  -3.088  0.00  0.00     0.007 A 
ATOM     32  C   UNL d   1      28.914 -15.982  -4.581  0.00  0.00     0.001 A 
ATOM     33  C   UNL d   1      29.685 -15.328  -3.627  0.00  0.00     0.001 A 
ATOM     34  C   UNL d   1      29.143 -14.267  -2.892  0.00  0.00     0.015 A 
ENDBRANCH  24  25
ENDBRANCH  23  24
ENDBRANCH  20  23
ENDBRANCH   1  19
TORSDOF 9
ENDMDL
MODEL 7
REMARK VINA RESULT:    -7.325      6.866      8.725
REMARK INTER + INTRA:         -14.310
REMARK INTER:                 -10.010
REMARK INTRA:                  -4.301
REMARK CONF_INDEPENDENT:        2.685
REMARK UNBOUND:                -4.301
REMARK  9 active torsions:
REMARK  status: ('A' for Active; 'I' for Inactive)
REMARK    1  A    between atoms: C_8  and  O_9 
REMARK    2  A    between atoms: O_9  and  C_10 
REMARK    3  A    between atoms: C_10  and  C_11 
REMARK       I    between atoms: C_11  and  N_13 
REMARK    4  A    between atoms: N_13  and  C_14 
REMARK    5  A    between atoms: C_14  and  N_16 
REMARK    6  A    between atoms: N_16  and  N_17 
REMARK       I    between atoms: N_17  and  C_18 
REMARK    7  A    between atoms: C_18  and  C_20 
REMARK    8  A    between atoms: C_20  and  O_21 
REMARK    9  A    between atoms: O_21  and  C_22 
ROOT
ATOM      1  N   UNL d   1      26.830 -11.437  -3.202  0.00  0.00    -0.273 N 
ATOM      2  H   UNL d   1      27.368 -10.630  -2.883  0.00  0.00     0.189 HD
ENDROOT
BRANCH   1   3
ATOM      3  C   UNL d   1      26.341 -11.681  -4.497  0.00  0.00     0.193 C 
ATOM      4  S   UNL d   1      25.649 -10.398  -5.355  0.00  0.00    -0.039 SA
BRANCH   3   5
ATOM      5  N   UNL d   1      26.468 -12.999  -4.989  0.00  0.00    -0.301 N 
ATOM      6  C   UNL d   1      25.618 -14.088  -4.652  0.00  0.00     0.248 C 
ATOM      7  O   UNL d   1      24.658 -14.000  -3.877  0.00  0.00    -0.271 OA
ATOM      8  H   UNL d   1      27.226 -13.187  -5.636  0.00  0.00     0.171 HD
BRANCH   6   9
ATOM      9  C   UNL d   1      25.906 -15.457  -5.284  0.00  0.00     0.278 C 
BRANCH   9  10
ATOM     10  O   UNL d   1      27.258 -15.575  -5.762  0.00  0.00    -0.342 OA
BRANCH  10  11
ATOM     11  C   UNL d   1      28.329 -15.619  -4.901  0.00  0.00     0.075 A 
ATOM     12  C   UNL d   1      27.979 -15.554  -3.531  0.00  0.00     0.039 A 
ATOM     13  C   UNL d   1      28.950 -15.592  -2.516  0.00  0.00     0.022 A 
ATOM     14  C   UNL d   1      30.290 -15.685  -2.863  0.00  0.00     0.011 A 
ATOM     15  C   UNL d   1      30.654 -15.745  -4.203  0.00  0.00     0.028 A 
ATOM     16 BR   UNL d   1      31.633 -15.736  -1.534  0.00  0.00    -0.051 Br
ATOM     17  C   UNL d   1      29.689 -15.720  -5.233  0.00  0.00    -0.027 A 
ATOM     18  C   UNL d   1      30.219 -15.813  -6.630  0.00  0.00     0.051 C 
ENDBRANCH  10  11
ENDBRANCH   9  10
ENDBRANCH   6   9
ENDBRANCH   3   5
ENDBRANCH   1   3
BRANCH   1  19
ATOM     19  N   UNL d   1      26.554 -12.431  -2.158  0.00  0.00    -0.266 N 
ATOM     20  C   UNL d   1      27.241 -12.444  -0.951  0.00  0.00     0.260 C 
ATOM     21  O   UNL d   1      28.117 -11.609  -0.720  0.00  0.00    -0.269 OA
ATOM     22  H   UNL d   1      25.817 -13.100  -2.394  0.00  0.00     0.190 HD
BRANCH  20  23
ATOM     23  C   UNL d   1      26.837 -13.574   0.059  0.00  0.00     0.280 C 
BRANCH  23  24
ATOM     24  O   UNL d   1      25.902 -14.483  -0.549  0.00  0.00    -0.341 OA
BRANCH  24  25
ATOM     25  C   UNL d   1      26.069 -15.836  -0.331  0.00  0.00     0.080 A 
ATOM     26  C   UNL d   1      27.284 -16.379   0.098  0.00  0.00     0.037 A 
ATOM     27  C   UNL d   1      27.396 -17.750   0.351  0.00  0.00     0.004 A 
ATOM     28  C   UNL d   1      26.295 -18.590   0.196  0.00  0.00     0.012 A 
ATOM     29  C   UNL d   1      25.051 -18.068  -0.175  0.00  0.00    -0.023 A 
ATOM     30  C   UNL d   1      23.932 -18.916  -0.278  0.00  0.00     0.012 A 
ATOM     31  C   UNL d   1      24.923 -16.676  -0.437  0.00  0.00     0.007 A 
ATOM     32  C   UNL d   1      22.684 -18.412  -0.636  0.00  0.00     0.001 A 
ATOM     33  C   UNL d   1      22.540 -17.053  -0.891  0.00  0.00     0.001 A 
ATOM     34  C   UNL d   1      23.644 -16.198  -0.792  0.00  0.00     0.015 A 
ENDBRANCH  24  25
ENDBRANCH  23  24
ENDBRANCH  20  23
ENDBRANCH   1  19
TORSDOF 9
ENDMDL
MODEL 8
REMARK VINA RESULT:    -7.155      3.862      9.057
REMARK INTER + INTRA:         -13.653
REMARK INTER:                  -9.840
REMARK INTRA:                  -3.814
REMARK CONF_INDEPENDENT:        2.685
REMARK UNBOUND:                -3.814
REMARK  9 active torsions:
REMARK  status: ('A' for Active; 'I' for Inactive)
REMARK    1  A    between atoms: C_8  and  O_9 
REMARK    2  A    between atoms: O_9  and  C_10 
REMARK    3  A    between atoms: C_10  and  C_11 
REMARK       I    between atoms: C_11  and  N_13 
REMARK    4  A    between atoms: N_13  and  C_14 
REMARK    5  A    between atoms: C_14  and  N_16 
REMARK    6  A    between atoms: N_16  and  N_17 
REMARK       I    between atoms: N_17  and  C_18 
REMARK    7  A    between atoms: C_18  and  C_20 
REMARK    8  A    between atoms: C_20  and  O_21 
REMARK    9  A    between atoms: O_21  and  C_22 
ROOT
ATOM      1  N   UNL d   1      27.375 -11.307  -1.268  0.00  0.00    -0.273 N 
ATOM      2  H   UNL d   1      27.815 -10.734  -1.989  0.00  0.00     0.189 HD
ENDROOT
BRANCH   1   3
ATOM      3  C   UNL d   1      27.459 -11.143   0.126  0.00  0.00     0.193 C 
ATOM      4  S   UNL d   1      27.018  -9.652   0.791  0.00  0.00    -0.039 SA
BRANCH   3   5
ATOM      5  N   UNL d   1      27.913 -12.253   0.873  0.00  0.00    -0.301 N 
ATOM      6  C   UNL d   1      27.114 -13.360   1.267  0.00  0.00     0.248 C 
ATOM      7  O   UNL d   1      25.913 -13.476   0.997  0.00  0.00    -0.271 OA
ATOM      8  H   UNL d   1      28.888 -12.263   1.150  0.00  0.00     0.171 HD
BRANCH   6   9
ATOM      9  C   UNL d   1      27.778 -14.482   2.079  0.00  0.00     0.278 C 
BRANCH   9  10
ATOM     10  O   UNL d   1      28.898 -14.018   2.855  0.00  0.00    -0.342 OA
BRANCH  10  11
ATOM     11  C   UNL d   1      28.767 -13.661   4.175  0.00  0.00     0.075 A 
ATOM     12  C   UNL d   1      29.196 -14.651   5.092  0.00  0.00     0.039 A 
ATOM     13  C   UNL d   1      29.136 -14.449   6.481  0.00  0.00     0.022 A 
ATOM     14  C   UNL d   1      28.634 -13.253   6.972  0.00  0.00     0.011 A 
ATOM     15  C   UNL d   1      28.203 -12.271   6.087  0.00  0.00     0.028 A 
ATOM     16 BR   UNL d   1      28.529 -12.936   8.832  0.00  0.00    -0.051 Br
ATOM     17  C   UNL d   1      28.268 -12.454   4.690  0.00  0.00    -0.027 A 
ATOM     18  C   UNL d   1      27.791 -11.307   3.855  0.00  0.00     0.051 C 
ENDBRANCH  10  11
ENDBRANCH   9  10
ENDBRANCH   6   9
ENDBRANCH   3   5
ENDBRANCH   1   3
BRANCH   1  19
ATOM     19  N   UNL d   1      26.571 -12.421  -1.786  0.00  0.00    -0.266 N 
ATOM     20  C   UNL d   1      26.554 -12.752  -3.136  0.00  0.00     0.260 C 
ATOM     21  O   UNL d   1      27.221 -12.109  -3.947  0.00  0.00    -0.269 OA
ATOM     22  H   UNL d   1      26.039 -12.927  -1.076  0.00  0.00     0.190 HD
BRANCH  20  23
ATOM     23  C   UNL d   1      25.640 -13.963  -3.536  0.00  0.00     0.280 C 
BRANCH  23  24
ATOM     24  O   UNL d   1      24.962 -14.486  -2.380  0.00  0.00    -0.341 OA
BRANCH  24  25
ATOM     25  C   UNL d   1      25.537 -15.545  -1.708  0.00  0.00     0.080 A 
ATOM     26  C   UNL d   1      26.917 -15.637  -1.499  0.00  0.00     0.037 A 
ATOM     27  C   UNL d   1      27.453 -16.705  -0.772  0.00  0.00     0.004 A 
ATOM     28  C   UNL d   1      26.619 -17.682  -0.231  0.00  0.00     0.012 A 
ATOM     29  C   UNL d   1      25.230 -17.586  -0.371  0.00  0.00    -0.023 A 
ATOM     30  C   UNL d   1      24.393 -18.548   0.224  0.00  0.00     0.012 A 
ATOM     31  C   UNL d   1      24.672 -16.507  -1.109  0.00  0.00     0.007 A 
ATOM     32  C   UNL d   1      23.008 -18.463   0.103  0.00  0.00     0.001 A 
ATOM     33  C   UNL d   1      22.445 -17.412  -0.611  0.00  0.00     0.001 A 
ATOM     34  C   UNL d   1      23.266 -16.447  -1.208  0.00  0.00     0.015 A 
ENDBRANCH  24  25
ENDBRANCH  23  24
ENDBRANCH  20  23
ENDBRANCH   1  19
TORSDOF 9
ENDMDL
MODEL 9
REMARK VINA RESULT:    -6.915      6.487      9.375
REMARK INTER + INTRA:         -13.787
REMARK INTER:                  -9.600
REMARK INTRA:                  -4.187
REMARK CONF_INDEPENDENT:        2.685
REMARK UNBOUND:                -4.187
REMARK  9 active torsions:
REMARK  status: ('A' for Active; 'I' for Inactive)
REMARK    1  A    between atoms: C_8  and  O_9 
REMARK    2  A    between atoms: O_9  and  C_10 
REMARK    3  A    between atoms: C_10  and  C_11 
REMARK       I    between atoms: C_11  and  N_13 
REMARK    4  A    between atoms: N_13  and  C_14 
REMARK    5  A    between atoms: C_14  and  N_16 
REMARK    6  A    between atoms: N_16  and  N_17 
REMARK       I    between atoms: N_17  and  C_18 
REMARK    7  A    between atoms: C_18  and  C_20 
REMARK    8  A    between atoms: C_20  and  O_21 
REMARK    9  A    between atoms: O_21  and  C_22 
ROOT
ATOM      1  N   UNL d   1      30.873 -16.286  -2.514  0.00  0.00    -0.273 N 
ATOM      2  H   UNL d   1      31.770 -15.807  -2.421  0.00  0.00     0.189 HD
ENDROOT
BRANCH   1   3
ATOM      3  C   UNL d   1      30.212 -17.060  -1.544  0.00  0.00     0.193 C 
ATOM      4  S   UNL d   1      30.908 -18.525  -1.066  0.00  0.00    -0.039 SA
BRANCH   3   5
ATOM      5  N   UNL d   1      28.998 -16.545  -1.036  0.00  0.00    -0.301 N 
ATOM      6  C   UNL d   1      28.433 -15.285  -1.376  0.00  0.00     0.248 C 
ATOM      7  O   UNL d   1      28.951 -14.487  -2.166  0.00  0.00    -0.271 OA
ATOM      8  H   UNL d   1      28.485 -17.119  -0.376  0.00  0.00     0.171 HD
BRANCH   6   9
ATOM      9  C   UNL d   1      27.101 -14.887  -0.725  0.00  0.00     0.278 C 
BRANCH   9  10
ATOM     10  O   UNL d   1      26.652 -15.845   0.251  0.00  0.00    -0.342 OA
BRANCH  10  11
ATOM     11  C   UNL d   1      25.564 -16.654   0.024  0.00  0.00     0.075 A 
ATOM     12  C   UNL d   1      24.392 -15.960  -0.363  0.00  0.00     0.039 A 
ATOM     13  C   UNL d   1      23.190 -16.633  -0.638  0.00  0.00     0.022 A 
ATOM     14  C   UNL d   1      23.143 -18.013  -0.520  0.00  0.00     0.011 A 
ATOM     15  C   UNL d   1      24.282 -18.713  -0.136  0.00  0.00     0.028 A 
ATOM     16 BR   UNL d   1      21.549 -18.964  -0.876  0.00  0.00    -0.051 Br
ATOM     17  C   UNL d   1      25.500 -18.052   0.132  0.00  0.00    -0.027 A 
ATOM     18  C   UNL d   1      26.651 -18.929   0.515  0.00  0.00     0.051 C 
ENDBRANCH  10  11
ENDBRANCH   9  10
ENDBRANCH   6   9
ENDBRANCH   3   5
ENDBRANCH   1   3
BRANCH   1  19
ATOM     19  N   UNL d   1      30.234 -16.125  -3.825  0.00  0.00    -0.266 N 
ATOM     20  C   UNL d   1      30.947 -16.237  -5.012  0.00  0.00     0.260 C 
ATOM     21  O   UNL d   1      32.156 -16.477  -4.996  0.00  0.00    -0.269 OA
ATOM     22  H   UNL d   1      29.231 -15.932  -3.787  0.00  0.00     0.190 HD
BRANCH  20  23
ATOM     23  C   UNL d   1      30.125 -16.032  -6.331  0.00  0.00     0.280 C 
BRANCH  23  24
ATOM     24  O   UNL d   1      28.720 -15.921  -6.038  0.00  0.00    -0.341 OA
BRANCH  24  25
ATOM     25  C   UNL d   1      28.170 -14.659  -5.939  0.00  0.00     0.080 A 
ATOM     26  C   UNL d   1      28.587 -13.598  -6.748  0.00  0.00     0.037 A 
ATOM     27  C   UNL d   1      27.969 -12.347  -6.647  0.00  0.00     0.004 A 
ATOM     28  C   UNL d   1      26.920 -12.146  -5.752  0.00  0.00     0.012 A 
ATOM     29  C   UNL d   1      26.440 -13.204  -4.972  0.00  0.00    -0.023 A 
ATOM     30  C   UNL d   1      25.345 -13.006  -4.111  0.00  0.00     0.012 A 
ATOM     31  C   UNL d   1      27.060 -14.481  -5.064  0.00  0.00     0.007 A 
ATOM     32  C   UNL d   1      24.849 -14.051  -3.334  0.00  0.00     0.001 A 
ATOM     33  C   UNL d   1      25.439 -15.306  -3.415  0.00  0.00     0.001 A 
ATOM     34  C   UNL d   1      26.529 -15.518  -4.269  0.00  0.00     0.015 A 
ENDBRANCH  24  25
ENDBRANCH  23  24
ENDBRANCH  20  23
ENDBRANCH   1  19
TORSDOF 9
ENDMDL
