MODEL 1
REMARK VINA RESULT:    -8.237      0.000      0.000
REMARK INTER + INTRA:         -10.551
REMARK INTER:                  -9.431
REMARK INTRA:                  -1.121
REMARK CONF_INDEPENDENT:        1.193
REMARK UNBOUND:                -1.121
REMARK  4 active torsions:
REMARK  status: ('A' for Active; 'I' for Inactive)
REMARK    1  A    between atoms: C_5  and  C_6 
REMARK       I    between atoms: C_6  and  N_8 
REMARK    2  A    between atoms: N_8  and  N_9 
REMARK       I    between atoms: N_9  and  C_10 
REMARK    3  A    between atoms: C_10  and  C_12 
REMARK    4  A    between atoms: C_16  and  O_17 
ROOT
ATOM      1  C   UNL d   1      23.041 -17.569  -0.476  0.00  0.00     0.272 C 
ATOM      2  O   UNL d   1      22.109 -16.791  -0.708  0.00  0.00    -0.266 OA
ATOM      3  N   UNL d   1      22.844 -18.796   0.147  0.00  0.00    -0.263 N 
ATOM      4  H   UNL d   1      23.577 -19.468   0.358  0.00  0.00     0.190 HD
ENDROOT
BRANCH   1   5
ATOM      5  C   UNL d   1      24.440 -17.183  -0.885  0.00  0.00     0.066 A 
ATOM      6  C   UNL d   1      24.685 -16.306  -1.954  0.00  0.00     0.020 A 
ATOM      7  C   UNL d   1      25.996 -15.941  -2.313  0.00  0.00     0.008 A 
ATOM      8  C   UNL d   1      27.094 -16.435  -1.605  0.00  0.00    -0.059 A 
ATOM      9  C   UNL d   1      28.503 -16.046  -1.949  0.00  0.00     0.048 C 
ATOM     10  C   UNL d   1      26.863 -17.317  -0.546  0.00  0.00     0.044 A 
ATOM     11  C   UNL d   1      25.560 -17.691  -0.195  0.00  0.00     0.082 A 
BRANCH  11  12
ATOM     12  O   UNL d   1      25.479 -18.575   0.851  0.00  0.00    -0.360 OA
ATOM     13  H   UNL d   1      26.189 -18.359   1.493  0.00  0.00     0.217 HD
ENDBRANCH  11  12
ENDBRANCH   1   5
BRANCH   3  14
ATOM     14  N   UNL d   1      21.549 -19.205   0.539  0.00  0.00    -0.267 N 
ATOM     15  C   UNL d   1      20.601 -19.473  -0.450  0.00  0.00     0.240 C 
ATOM     16  O   UNL d   1      20.886 -19.335  -1.646  0.00  0.00    -0.271 OA
ATOM     17  H   UNL d   1      21.374 -19.301   1.537  0.00  0.00     0.190 HD
BRANCH  15  18
ATOM     18  C   UNL d   1      19.213 -19.955   0.090  0.00  0.00     0.079 C 
ATOM     19  C   UNL d   1      19.059 -21.424   0.605  0.00  0.00     0.014 C 
ATOM     20  C   UNL d   1      18.154 -20.879   1.730  0.00  0.00     0.002 C 
ATOM     21  C   UNL d   1      18.866 -19.530   1.545  0.00  0.00     0.014 C 
ENDBRANCH  15  18
ENDBRANCH   3  14
TORSDOF 4
ENDMDL
MODEL 2
REMARK VINA RESULT:    -7.807      1.251      1.751
REMARK INTER + INTRA:         -10.792
REMARK INTER:                  -9.000
REMARK INTRA:                  -1.792
REMARK CONF_INDEPENDENT:        1.193
REMARK UNBOUND:                -1.792
REMARK  4 active torsions:
REMARK  status: ('A' for Active; 'I' for Inactive)
REMARK    1  A    between atoms: C_5  and  C_6 
REMARK       I    between atoms: C_6  and  N_8 
REMARK    2  A    between atoms: N_8  and  N_9 
REMARK       I    between atoms: N_9  and  C_10 
REMARK    3  A    between atoms: C_10  and  C_12 
REMARK    4  A    between atoms: C_16  and  O_17 
ROOT
ATOM      1  C   UNL d   1      24.302 -17.876  -0.566  0.00  0.00     0.272 C 
ATOM      2  O   UNL d   1      24.880 -18.575   0.274  0.00  0.00    -0.266 OA
ATOM      3  N   UNL d   1      22.960 -18.056  -0.882  0.00  0.00    -0.263 N 
ATOM      4  H   UNL d   1      22.443 -17.508  -1.565  0.00  0.00     0.190 HD
ENDROOT
BRANCH   1   5
ATOM      5  C   UNL d   1      25.070 -16.787  -1.270  0.00  0.00     0.066 A 
ATOM      6  C   UNL d   1      24.426 -15.790  -2.020  0.00  0.00     0.020 A 
ATOM      7  C   UNL d   1      25.155 -14.770  -2.657  0.00  0.00     0.008 A 
ATOM      8  C   UNL d   1      26.547 -14.714  -2.552  0.00  0.00    -0.059 A 
ATOM      9  C   UNL d   1      27.351 -13.625  -3.201  0.00  0.00     0.048 C 
ATOM     10  C   UNL d   1      27.200 -15.707  -1.817  0.00  0.00     0.044 A 
ATOM     11  C   UNL d   1      26.477 -16.730  -1.192  0.00  0.00     0.082 A 
BRANCH  11  12
ATOM     12  O   UNL d   1      27.245 -17.646  -0.519  0.00  0.00    -0.360 OA
ATOM     13  H   UNL d   1      26.760 -17.922   0.288  0.00  0.00     0.217 HD
ENDBRANCH  11  12
ENDBRANCH   1   5
BRANCH   3  14
ATOM     14  N   UNL d   1      22.196 -19.058  -0.241  0.00  0.00    -0.267 N 
ATOM     15  C   UNL d   1      20.821 -19.106  -0.473  0.00  0.00     0.240 C 
ATOM     16  O   UNL d   1      20.280 -18.274  -1.211  0.00  0.00    -0.271 OA
ATOM     17  H   UNL d   1      22.697 -19.713   0.355  0.00  0.00     0.190 HD
BRANCH  15  18
ATOM     18  C   UNL d   1      20.077 -20.276   0.255  0.00  0.00     0.079 C 
ATOM     19  C   UNL d   1      19.587 -20.075   1.727  0.00  0.00     0.014 C 
ATOM     20  C   UNL d   1      18.316 -20.866   1.355  0.00  0.00     0.002 C 
ATOM     21  C   UNL d   1      18.574 -20.450  -0.102  0.00  0.00     0.014 C 
ENDBRANCH  15  18
ENDBRANCH   3  14
TORSDOF 4
ENDMDL
MODEL 3
REMARK VINA RESULT:    -7.510      1.164      2.177
REMARK INTER + INTRA:         -10.544
REMARK INTER:                  -8.703
REMARK INTRA:                  -1.841
REMARK CONF_INDEPENDENT:        1.193
REMARK UNBOUND:                -1.841
REMARK  4 active torsions:
REMARK  status: ('A' for Active; 'I' for Inactive)
REMARK    1  A    between atoms: C_5  and  C_6 
REMARK       I    between atoms: C_6  and  N_8 
REMARK    2  A    between atoms: N_8  and  N_9 
REMARK       I    between atoms: N_9  and  C_10 
REMARK    3  A    between atoms: C_10  and  C_12 
REMARK    4  A    between atoms: C_16  and  O_17 
ROOT
ATOM      1  C   UNL d   1      24.330 -18.029  -0.522  0.00  0.00     0.272 C 
ATOM      2  O   UNL d   1      24.911 -18.820   0.230  0.00  0.00    -0.266 OA
ATOM      3  N   UNL d   1      22.965 -18.111  -0.773  0.00  0.00    -0.263 N 
ATOM      4  H   UNL d   1      22.445 -17.485  -1.382  0.00  0.00     0.190 HD
ENDROOT
BRANCH   1   5
ATOM      5  C   UNL d   1      25.123 -16.934  -1.190  0.00  0.00     0.066 A 
ATOM      6  C   UNL d   1      26.519 -17.002  -1.319  0.00  0.00     0.020 A 
ATOM      7  C   UNL d   1      27.244 -15.980  -1.959  0.00  0.00     0.008 A 
ATOM      8  C   UNL d   1      26.589 -14.869  -2.497  0.00  0.00    -0.059 A 
ATOM      9  C   UNL d   1      27.332 -13.774  -3.207  0.00  0.00     0.048 C 
ATOM     10  C   UNL d   1      25.200 -14.786  -2.366  0.00  0.00     0.044 A 
ATOM     11  C   UNL d   1      24.479 -15.796  -1.717  0.00  0.00     0.082 A 
BRANCH  11  12
ATOM     12  O   UNL d   1      23.126 -15.578  -1.644  0.00  0.00    -0.360 OA
ATOM     13  H   UNL d   1      22.860 -15.603  -0.701  0.00  0.00     0.217 HD
ENDBRANCH  11  12
ENDBRANCH   1   5
BRANCH   3  14
ATOM     14  N   UNL d   1      22.179 -19.115  -0.161  0.00  0.00    -0.267 N 
ATOM     15  C   UNL d   1      20.803 -19.121  -0.389  0.00  0.00     0.240 C 
ATOM     16  O   UNL d   1      20.280 -18.251  -1.096  0.00  0.00    -0.271 OA
ATOM     17  H   UNL d   1      22.666 -19.802   0.410  0.00  0.00     0.190 HD
BRANCH  15  18
ATOM     18  C   UNL d   1      20.033 -20.296   0.303  0.00  0.00     0.079 C 
ATOM     19  C   UNL d   1      19.513 -20.116   1.767  0.00  0.00     0.014 C 
ATOM     20  C   UNL d   1      18.242 -20.888   1.354  0.00  0.00     0.002 C 
ATOM     21  C   UNL d   1      18.536 -20.450  -0.089  0.00  0.00     0.014 C 
ENDBRANCH  15  18
ENDBRANCH   3  14
TORSDOF 4
ENDMDL
MODEL 4
REMARK VINA RESULT:    -7.170      1.081      7.387
REMARK INTER + INTRA:         -10.133
REMARK INTER:                  -8.363
REMARK INTRA:                  -1.770
REMARK CONF_INDEPENDENT:        1.193
REMARK UNBOUND:                -1.770
REMARK  4 active torsions:
REMARK  status: ('A' for Active; 'I' for Inactive)
REMARK    1  A    between atoms: C_5  and  C_6 
REMARK       I    between atoms: C_6  and  N_8 
REMARK    2  A    between atoms: N_8  and  N_9 
REMARK       I    between atoms: N_9  and  C_10 
REMARK    3  A    between atoms: C_10  and  C_12 
REMARK    4  A    between atoms: C_16  and  O_17 
ROOT
ATOM      1  C   UNL d   1      22.094 -18.166  -0.294  0.00  0.00     0.272 C 
ATOM      2  O   UNL d   1      21.855 -17.264  -1.105  0.00  0.00    -0.266 OA
ATOM      3  N   UNL d   1      23.368 -18.386   0.215  0.00  0.00    -0.263 N 
ATOM      4  H   UNL d   1      23.613 -19.114   0.882  0.00  0.00     0.190 HD
ENDROOT
BRANCH   1   5
ATOM      5  C   UNL d   1      20.968 -19.058   0.165  0.00  0.00     0.066 A 
ATOM      6  C   UNL d   1      20.704 -19.277   1.527  0.00  0.00     0.020 A 
ATOM      7  C   UNL d   1      19.639 -20.098   1.941  0.00  0.00     0.008 A 
ATOM      8  C   UNL d   1      18.804 -20.712   1.004  0.00  0.00    -0.059 A 
ATOM      9  C   UNL d   1      17.645 -21.575   1.414  0.00  0.00     0.048 C 
ATOM     10  C   UNL d   1      19.063 -20.508  -0.354  0.00  0.00     0.044 A 
ATOM     11  C   UNL d   1      20.130 -19.702  -0.768  0.00  0.00     0.082 A 
BRANCH  11  12
ATOM     12  O   UNL d   1      20.280 -19.603  -2.129  0.00  0.00    -0.360 OA
ATOM     13  H   UNL d   1      20.964 -18.926  -2.316  0.00  0.00     0.217 HD
ENDBRANCH  11  12
ENDBRANCH   1   5
BRANCH   3  14
ATOM     14  N   UNL d   1      24.453 -17.570  -0.179  0.00  0.00    -0.267 N 
ATOM     15  C   UNL d   1      25.685 -17.738   0.454  0.00  0.00     0.240 C 
ATOM     16  O   UNL d   1      25.818 -18.574   1.356  0.00  0.00    -0.271 OA
ATOM     17  H   UNL d   1      24.282 -16.900  -0.926  0.00  0.00     0.190 HD
BRANCH  15  18
ATOM     18  C   UNL d   1      26.827 -16.811  -0.084  0.00  0.00     0.079 C 
ATOM     19  C   UNL d   1      28.138 -17.455  -0.641  0.00  0.00     0.014 C 
ATOM     20  C   UNL d   1      28.143 -16.369  -1.737  0.00  0.00     0.002 C 
ATOM     21  C   UNL d   1      26.626 -16.251  -1.520  0.00  0.00     0.014 C 
ENDBRANCH  15  18
ENDBRANCH   3  14
TORSDOF 4
ENDMDL
MODEL 5
REMARK VINA RESULT:    -6.525      4.159      5.904
REMARK INTER + INTRA:          -9.573
REMARK INTER:                  -7.718
REMARK INTRA:                  -1.855
REMARK CONF_INDEPENDENT:        1.193
REMARK UNBOUND:                -1.855
REMARK  4 active torsions:
REMARK  status: ('A' for Active; 'I' for Inactive)
REMARK    1  A    between atoms: C_5  and  C_6 
REMARK       I    between atoms: C_6  and  N_8 
REMARK    2  A    between atoms: N_8  and  N_9 
REMARK       I    between atoms: N_9  and  C_10 
REMARK    3  A    between atoms: C_10  and  C_12 
REMARK    4  A    between atoms: C_16  and  O_17 
ROOT
ATOM      1  C   UNL d   1      25.448 -14.567  -3.939  0.00  0.00     0.272 C 
ATOM      2  O   UNL d   1      24.316 -14.075  -4.003  0.00  0.00    -0.266 OA
ATOM      3  N   UNL d   1      25.767 -15.576  -3.038  0.00  0.00    -0.263 N 
ATOM      4  H   UNL d   1      26.682 -16.011  -2.948  0.00  0.00     0.190 HD
ENDROOT
BRANCH   1   5
ATOM      5  C   UNL d   1      26.522 -14.064  -4.870  0.00  0.00     0.066 A 
ATOM      6  C   UNL d   1      27.510 -14.914  -5.391  0.00  0.00     0.020 A 
ATOM      7  C   UNL d   1      28.496 -14.434  -6.273  0.00  0.00     0.008 A 
ATOM      8  C   UNL d   1      28.511 -13.093  -6.665  0.00  0.00    -0.059 A 
ATOM      9  C   UNL d   1      29.536 -12.555  -7.622  0.00  0.00     0.048 C 
ATOM     10  C   UNL d   1      27.538 -12.235  -6.145  0.00  0.00     0.044 A 
ATOM     11  C   UNL d   1      26.564 -12.709  -5.257  0.00  0.00     0.082 A 
BRANCH  11  12
ATOM     12  O   UNL d   1      25.683 -11.756  -4.812  0.00  0.00    -0.360 OA
ATOM     13  H   UNL d   1      24.779 -12.136  -4.837  0.00  0.00     0.217 HD
ENDBRANCH  11  12
ENDBRANCH   1   5
BRANCH   3  14
ATOM     14  N   UNL d   1      24.791 -16.087  -2.152  0.00  0.00    -0.267 N 
ATOM     15  C   UNL d   1      25.170 -17.052  -1.218  0.00  0.00     0.240 C 
ATOM     16  O   UNL d   1      26.335 -17.466  -1.182  0.00  0.00    -0.271 OA
ATOM     17  H   UNL d   1      23.849 -15.709  -2.231  0.00  0.00     0.190 HD
BRANCH  15  18
ATOM     18  C   UNL d   1      24.022 -17.521  -0.262  0.00  0.00     0.079 C 
ATOM     19  C   UNL d   1      22.560 -17.029  -0.520  0.00  0.00     0.014 C 
ATOM     20  C   UNL d   1      22.073 -18.438  -0.123  0.00  0.00     0.002 C 
ATOM     21  C   UNL d   1      23.466 -18.950  -0.520  0.00  0.00     0.014 C 
ENDBRANCH  15  18
ENDBRANCH   3  14
TORSDOF 4
ENDMDL
MODEL 6
REMARK VINA RESULT:    -6.149      4.306      5.862
REMARK INTER + INTRA:          -9.206
REMARK INTER:                  -7.342
REMARK INTRA:                  -1.864
REMARK CONF_INDEPENDENT:        1.193
REMARK UNBOUND:                -1.864
REMARK  4 active torsions:
REMARK  status: ('A' for Active; 'I' for Inactive)
REMARK    1  A    between atoms: C_5  and  C_6 
REMARK       I    between atoms: C_6  and  N_8 
REMARK    2  A    between atoms: N_8  and  N_9 
REMARK       I    between atoms: N_9  and  C_10 
REMARK    3  A    between atoms: C_10  and  C_12 
REMARK    4  A    between atoms: C_16  and  O_17 
ROOT
ATOM      1  C   UNL d   1      25.136 -14.127  -3.920  0.00  0.00     0.272 C 
ATOM      2  O   UNL d   1      23.977 -13.700  -3.895  0.00  0.00    -0.266 OA
ATOM      3  N   UNL d   1      25.562 -15.163  -3.098  0.00  0.00    -0.263 N 
ATOM      4  H   UNL d   1      26.504 -15.547  -3.082  0.00  0.00     0.190 HD
ENDROOT
BRANCH   1   5
ATOM      5  C   UNL d   1      26.126 -13.509  -4.876  0.00  0.00     0.066 A 
ATOM      6  C   UNL d   1      26.013 -12.176  -5.302  0.00  0.00     0.020 A 
ATOM      7  C   UNL d   1      26.954 -11.609  -6.180  0.00  0.00     0.008 A 
ATOM      8  C   UNL d   1      28.038 -12.356  -6.646  0.00  0.00    -0.059 A 
ATOM      9  C   UNL d   1      29.072 -11.772  -7.566  0.00  0.00     0.048 C 
ATOM     10  C   UNL d   1      28.155 -13.687  -6.236  0.00  0.00     0.044 A 
ATOM     11  C   UNL d   1      27.213 -14.258  -5.372  0.00  0.00     0.082 A 
BRANCH  11  12
ATOM     12  O   UNL d   1      27.440 -15.576  -5.066  0.00  0.00    -0.360 OA
ATOM     13  H   UNL d   1      28.373 -15.670  -4.780  0.00  0.00     0.217 HD
ENDBRANCH  11  12
ENDBRANCH   1   5
BRANCH   3  14
ATOM     14  N   UNL d   1      24.667 -15.780  -2.193  0.00  0.00    -0.267 N 
ATOM     15  C   UNL d   1      25.143 -16.799  -1.368  0.00  0.00     0.240 C 
ATOM     16  O   UNL d   1      26.321 -17.169  -1.442  0.00  0.00    -0.271 OA
ATOM     17  H   UNL d   1      23.710 -15.434  -2.179  0.00  0.00     0.190 HD
BRANCH  15  18
ATOM     18  C   UNL d   1      24.081 -17.386  -0.378  0.00  0.00     0.079 C 
ATOM     19  C   UNL d   1      22.583 -16.960  -0.520  0.00  0.00     0.014 C 
ATOM     20  C   UNL d   1      22.193 -18.415  -0.184  0.00  0.00     0.002 C 
ATOM     21  C   UNL d   1      23.584 -18.825  -0.693  0.00  0.00     0.014 C 
ENDBRANCH  15  18
ENDBRANCH   3  14
TORSDOF 4
ENDMDL
MODEL 7
REMARK VINA RESULT:    -5.881      3.737      8.155
REMARK INTER + INTRA:          -8.832
REMARK INTER:                  -7.074
REMARK INTRA:                  -1.758
REMARK CONF_INDEPENDENT:        1.193
REMARK UNBOUND:                -1.758
REMARK  4 active torsions:
REMARK  status: ('A' for Active; 'I' for Inactive)
REMARK    1  A    between atoms: C_5  and  C_6 
REMARK       I    between atoms: C_6  and  N_8 
REMARK    2  A    between atoms: N_8  and  N_9 
REMARK       I    between atoms: N_9  and  C_10 
REMARK    3  A    between atoms: C_10  and  C_12 
REMARK    4  A    between atoms: C_16  and  O_17 
ROOT
ATOM      1  C   UNL d   1      25.984 -16.126  -1.619  0.00  0.00     0.272 C 
ATOM      2  O   UNL d   1      26.913 -15.819  -0.864  0.00  0.00    -0.266 OA
ATOM      3  N   UNL d   1      26.015 -15.851  -2.981  0.00  0.00    -0.263 N 
ATOM      4  H   UNL d   1      25.277 -16.083  -3.641  0.00  0.00     0.190 HD
ENDROOT
BRANCH   1   5
ATOM      5  C   UNL d   1      24.775 -16.826  -1.051  0.00  0.00     0.066 A 
ATOM      6  C   UNL d   1      23.472 -16.351  -1.270  0.00  0.00     0.020 A 
ATOM      7  C   UNL d   1      22.353 -17.024  -0.748  0.00  0.00     0.008 A 
ATOM      8  C   UNL d   1      22.507 -18.196  -0.003  0.00  0.00    -0.059 A 
ATOM      9  C   UNL d   1      21.331 -18.950   0.548  0.00  0.00     0.048 C 
ATOM     10  C   UNL d   1      23.800 -18.672   0.230  0.00  0.00     0.044 A 
ATOM     11  C   UNL d   1      24.916 -17.996  -0.278  0.00  0.00     0.082 A 
BRANCH  11  12
ATOM     12  O   UNL d   1      26.124 -18.564   0.041  0.00  0.00    -0.360 OA
ATOM     13  H   UNL d   1      26.833 -17.917  -0.163  0.00  0.00     0.217 HD
ENDBRANCH  11  12
ENDBRANCH   1   5
BRANCH   3  14
ATOM     14  N   UNL d   1      27.132 -15.206  -3.561  0.00  0.00    -0.267 N 
ATOM     15  C   UNL d   1      27.199 -15.097  -4.951  0.00  0.00     0.240 C 
ATOM     16  O   UNL d   1      26.305 -15.575  -5.661  0.00  0.00    -0.271 OA
ATOM     17  H   UNL d   1      27.834 -14.833  -2.925  0.00  0.00     0.190 HD
BRANCH  15  18
ATOM     18  C   UNL d   1      28.455 -14.332  -5.486  0.00  0.00     0.079 C 
ATOM     19  C   UNL d   1      29.364 -15.009  -6.563  0.00  0.00     0.014 C 
ATOM     20  C   UNL d   1      29.511 -13.626  -7.232  0.00  0.00     0.002 C 
ATOM     21  C   UNL d   1      28.180 -13.246  -6.564  0.00  0.00     0.014 C 
ENDBRANCH  15  18
ENDBRANCH   3  14
TORSDOF 4
ENDMDL
MODEL 8
REMARK VINA RESULT:    -5.790      3.358      5.183
REMARK INTER + INTRA:          -8.856
REMARK INTER:                  -6.983
REMARK INTRA:                  -1.873
REMARK CONF_INDEPENDENT:        1.193
REMARK UNBOUND:                -1.873
REMARK  4 active torsions:
REMARK  status: ('A' for Active; 'I' for Inactive)
REMARK    1  A    between atoms: C_5  and  C_6 
REMARK       I    between atoms: C_6  and  N_8 
REMARK    2  A    between atoms: N_8  and  N_9 
REMARK       I    between atoms: N_9  and  C_10 
REMARK    3  A    between atoms: C_10  and  C_12 
REMARK    4  A    between atoms: C_16  and  O_17 
ROOT
ATOM      1  C   UNL d   1      26.201 -15.421  -3.263  0.00  0.00     0.272 C 
ATOM      2  O   UNL d   1      25.186 -15.053  -3.864  0.00  0.00    -0.266 OA
ATOM      3  N   UNL d   1      26.145 -16.270  -2.164  0.00  0.00    -0.263 N 
ATOM      4  H   UNL d   1      26.950 -16.599  -1.638  0.00  0.00     0.190 HD
ENDROOT
BRANCH   1   5
ATOM      5  C   UNL d   1      27.550 -14.941  -3.736  0.00  0.00     0.066 A 
ATOM      6  C   UNL d   1      28.548 -14.529  -2.837  0.00  0.00     0.020 A 
ATOM      7  C   UNL d   1      29.808 -14.100  -3.293  0.00  0.00     0.008 A 
ATOM      8  C   UNL d   1      30.106 -14.082  -4.657  0.00  0.00    -0.059 A 
ATOM      9  C   UNL d   1      31.450 -13.651  -5.173  0.00  0.00     0.048 C 
ATOM     10  C   UNL d   1      29.118 -14.481  -5.561  0.00  0.00     0.044 A 
ATOM     11  C   UNL d   1      27.859 -14.896  -5.110  0.00  0.00     0.082 A 
BRANCH  11  12
ATOM     12  O   UNL d   1      26.980 -15.243  -6.105  0.00  0.00    -0.360 OA
ATOM     13  H   UNL d   1      26.067 -15.154  -5.756  0.00  0.00     0.217 HD
ENDBRANCH  11  12
ENDBRANCH   1   5
BRANCH   3  14
ATOM     14  N   UNL d   1      24.903 -16.754  -1.690  0.00  0.00    -0.267 N 
ATOM     15  C   UNL d   1      24.887 -17.564  -0.554  0.00  0.00     0.240 C 
ATOM     16  O   UNL d   1      25.943 -17.868   0.015  0.00  0.00    -0.271 OA
ATOM     17  H   UNL d   1      24.070 -16.471  -2.201  0.00  0.00     0.190 HD
BRANCH  15  18
ATOM     18  C   UNL d   1      23.460 -18.014  -0.093  0.00  0.00     0.079 C 
ATOM     19  C   UNL d   1      22.207 -17.229  -0.604  0.00  0.00     0.014 C 
ATOM     20  C   UNL d   1      21.474 -18.582  -0.720  0.00  0.00     0.002 C 
ATOM     21  C   UNL d   1      22.859 -19.236  -0.842  0.00  0.00     0.014 C 
ENDBRANCH  15  18
ENDBRANCH   3  14
TORSDOF 4
ENDMDL
MODEL 9
REMARK VINA RESULT:    -5.635      4.961      6.787
REMARK INTER + INTRA:          -8.601
REMARK INTER:                  -6.828
REMARK INTRA:                  -1.774
REMARK CONF_INDEPENDENT:        1.193
REMARK UNBOUND:                -1.774
REMARK  4 active torsions:
REMARK  status: ('A' for Active; 'I' for Inactive)
REMARK    1  A    between atoms: C_5  and  C_6 
REMARK       I    between atoms: C_6  and  N_8 
REMARK    2  A    between atoms: N_8  and  N_9 
REMARK       I    between atoms: N_9  and  C_10 
REMARK    3  A    between atoms: C_10  and  C_12 
REMARK    4  A    between atoms: C_16  and  O_17 
ROOT
ATOM      1  C   UNL d   1      26.450 -14.597  -4.900  0.00  0.00     0.272 C 
ATOM      2  O   UNL d   1      26.543 -15.575  -5.649  0.00  0.00    -0.266 OA
ATOM      3  N   UNL d   1      25.947 -14.699  -3.607  0.00  0.00    -0.263 N 
ATOM      4  H   UNL d   1      25.850 -13.925  -2.956  0.00  0.00     0.190 HD
ENDROOT
BRANCH   1   5
ATOM      5  C   UNL d   1      26.899 -13.245  -5.395  0.00  0.00     0.066 A 
ATOM      6  C   UNL d   1      27.895 -13.108  -6.374  0.00  0.00     0.020 A 
ATOM      7  C   UNL d   1      28.292 -11.841  -6.839  0.00  0.00     0.008 A 
ATOM      8  C   UNL d   1      27.694 -10.679  -6.345  0.00  0.00    -0.059 A 
ATOM      9  C   UNL d   1      28.079  -9.314  -6.838  0.00  0.00     0.048 C 
ATOM     10  C   UNL d   1      26.707 -10.803  -5.363  0.00  0.00     0.044 A 
ATOM     11  C   UNL d   1      26.320 -12.063  -4.890  0.00  0.00     0.082 A 
BRANCH  11  12
ATOM     12  O   UNL d   1      25.355 -12.037  -3.914  0.00  0.00    -0.360 OA
ATOM     13  H   UNL d   1      24.634 -11.442  -4.209  0.00  0.00     0.217 HD
ENDBRANCH  11  12
ENDBRANCH   1   5
BRANCH   3  14
ATOM     14  N   UNL d   1      25.523 -15.947  -3.096  0.00  0.00    -0.267 N 
ATOM     15  C   UNL d   1      25.320 -16.076  -1.721  0.00  0.00     0.240 C 
ATOM     16  O   UNL d   1      25.527 -15.120  -0.965  0.00  0.00    -0.271 OA
ATOM     17  H   UNL d   1      25.370 -16.696  -3.768  0.00  0.00     0.190 HD
BRANCH  15  18
ATOM     18  C   UNL d   1      24.815 -17.486  -1.266  0.00  0.00     0.079 C 
ATOM     19  C   UNL d   1      24.883 -17.872   0.248  0.00  0.00     0.014 C 
ATOM     20  C   UNL d   1      23.520 -18.575   0.076  0.00  0.00     0.002 C 
ATOM     21  C   UNL d   1      23.275 -17.640  -1.119  0.00  0.00     0.014 C 
ENDBRANCH  15  18
ENDBRANCH   3  14
TORSDOF 4
ENDMDL
