MODEL 1
REMARK VINA RESULT:   -29.697      0.000      0.000
REMARK INTER + INTRA:         -34.100
REMARK INTER:                 -31.785
REMARK INTRA:                  -2.315
REMARK CONF_INDEPENDENT:        2.088
REMARK UNBOUND:                -2.315
REMARK  7 active torsions:
REMARK  status: ('A' for Active; 'I' for Inactive)
REMARK    1  A    between atoms: C_5  and  N_6 
REMARK       I    between atoms: N_6  and  C_7 
REMARK    2  A    between atoms: C_7  and  C_9 
REMARK    3  A    between atoms: C_9  and  N_10 
REMARK    4  A    between atoms: N_13  and  C_14 
REMARK    5  A    between atoms: C_14  and  C_15 
REMARK    6  A    between atoms: C_26  and  C_27 
REMARK       I    between atoms: C_27  and  N_29 
REMARK    7  A    between atoms: N_29  and  N_30 
ROOT
ATOM      1  N   UNL d   1      25.647 -14.335  -1.810  0.00  0.00    -0.283 N 
ATOM      2  C   UNL d   1      26.985 -14.131  -1.383  0.00  0.00     0.333 A 
ATOM      3  O   UNL d   1      27.634 -13.160  -1.790  0.00  0.00    -0.246 OA
ATOM      4  N   UNL d   1      27.527 -15.013  -0.440  0.00  0.00    -0.261 N 
ATOM      5  C   UNL d   1      26.909 -16.132   0.071  0.00  0.00     0.265 A 
ATOM      6  O   UNL d   1      27.455 -16.876   0.878  0.00  0.00    -0.267 OA
ATOM      7  C   UNL d   1      25.583 -16.388  -0.405  0.00  0.00     0.074 A 
ATOM      8  C   UNL d   1      24.748 -17.518  -0.036  0.00  0.00    -0.021 A 
ATOM      9  C   UNL d   1      25.174 -18.564   0.896  0.00  0.00     0.051 C 
ATOM     10  C   UNL d   1      23.514 -17.536  -0.655  0.00  0.00     0.083 A 
ATOM     11  S   UNL d   1      23.471 -16.204  -1.643  0.00  0.00    -0.065 SA
ATOM     12  C   UNL d   1      25.002 -15.525  -1.293  0.00  0.00     0.098 A 
ENDROOT
BRANCH   1  13
ATOM     13  C   UNL d   1      25.171 -13.207  -2.745  0.00  0.00     0.237 C 
BRANCH  13  14
ATOM     14  C   UNL d   1      25.953 -13.001  -4.002  0.00  0.00     0.240 C 
ATOM     15  N   UNL d   1      27.266 -13.035  -4.287  0.00  0.00    -0.326 N 
ATOM     16  H   UNL d   1      27.958 -13.170  -3.564  0.00  0.00     0.169 HD
ATOM     17  O   UNL d   1      25.270 -12.690  -4.956  0.00  0.00    -0.271 OA
BRANCH  15  18
ATOM     18  C   UNL d   1      27.697 -12.824  -5.670  0.00  0.00     0.034 A 
ATOM     19  C   UNL d   1      28.386 -13.840  -6.300  0.00  0.00     0.030 A 
ATOM     20  C   UNL d   1      28.790 -13.693  -7.640  0.00  0.00     0.009 A 
ATOM     21  C   UNL d   1      28.522 -12.531  -8.382  0.00  0.00    -0.062 A 
ATOM     22  C   UNL d   1      28.923 -12.367  -9.811  0.00  0.00     0.048 C 
ATOM     23  C   UNL d   1      27.851 -11.496  -7.774  0.00  0.00     0.009 A 
ATOM     24  C   UNL d   1      27.457 -11.652  -6.455  0.00  0.00     0.030 A 
ENDBRANCH  15  18
ENDBRANCH  13  14
ENDBRANCH   1  13
BRANCH   4  25
ATOM     25  C   UNL d   1      28.841 -14.746   0.146  0.00  0.00     0.175 C 
BRANCH  25  26
ATOM     26  C   UNL d   1      28.798 -14.327   1.600  0.00  0.00    -0.040 A 
ATOM     27  C   UNL d   1      27.608 -13.833   2.149  0.00  0.00     0.009 A 
ATOM     28  C   UNL d   1      27.551 -13.506   3.505  0.00  0.00     0.001 A 
ATOM     29  C   UNL d   1      28.671 -13.677   4.320  0.00  0.00     0.000 A 
ATOM     30  C   UNL d   1      29.857 -14.150   3.782  0.00  0.00     0.001 A 
ATOM     31  C   UNL d   1      29.925 -14.436   2.430  0.00  0.00     0.009 A 
ENDBRANCH  25  26
ENDBRANCH   4  25
BRANCH  10  32
ATOM     32  C   UNL d   1      22.356 -18.453  -0.611  0.00  0.00     0.273 C 
ATOM     33  O   UNL d   1      22.410 -19.652  -0.320  0.00  0.00    -0.266 OA
ATOM     34  N   UNL d   1      21.121 -17.882  -0.941  0.00  0.00    -0.289 N 
ATOM     35  H   UNL d   1      21.040 -16.900  -1.126  0.00  0.00     0.183 HD
BRANCH  34  36
ATOM     36  N   UNL d   1      19.905 -18.582  -0.896  0.00  0.00    -0.247 NA
ATOM     37  H   UNL d   1      20.097 -19.557  -1.146  0.00  0.00     0.143 HD
ATOM     38  H   UNL d   1      19.307 -18.211  -1.637  0.00  0.00     0.143 HD
ENDBRANCH  34  36
ENDBRANCH  10  32
TORSDOF 7
ENDMDL
MODEL 2
REMARK VINA RESULT:   -29.495      2.306      3.576
REMARK INTER + INTRA:         -33.993
REMARK INTER:                 -31.583
REMARK INTRA:                  -2.411
REMARK CONF_INDEPENDENT:        2.088
REMARK UNBOUND:                -2.411
REMARK  7 active torsions:
REMARK  status: ('A' for Active; 'I' for Inactive)
REMARK    1  A    between atoms: C_5  and  N_6 
REMARK       I    between atoms: N_6  and  C_7 
REMARK    2  A    between atoms: C_7  and  C_9 
REMARK    3  A    between atoms: C_9  and  N_10 
REMARK    4  A    between atoms: N_13  and  C_14 
REMARK    5  A    between atoms: C_14  and  C_15 
REMARK    6  A    between atoms: C_26  and  C_27 
REMARK       I    between atoms: C_27  and  N_29 
REMARK    7  A    between atoms: N_29  and  N_30 
ROOT
ATOM      1  N   UNL d   1      25.743 -14.538  -2.179  0.00  0.00    -0.283 N 
ATOM      2  C   UNL d   1      27.154 -14.673  -2.259  0.00  0.00     0.333 A 
ATOM      3  O   UNL d   1      27.839 -13.800  -2.805  0.00  0.00    -0.246 OA
ATOM      4  N   UNL d   1      27.755 -15.778  -1.645  0.00  0.00    -0.261 N 
ATOM      5  C   UNL d   1      27.098 -16.816  -1.025  0.00  0.00     0.265 A 
ATOM      6  O   UNL d   1      27.690 -17.769  -0.529  0.00  0.00    -0.267 OA
ATOM      7  C   UNL d   1      25.669 -16.727  -0.998  0.00  0.00     0.074 A 
ATOM      8  C   UNL d   1      24.764 -17.711  -0.430  0.00  0.00    -0.021 A 
ATOM      9  C   UNL d   1      25.216 -18.950   0.205  0.00  0.00     0.051 C 
ATOM     10  C   UNL d   1      23.427 -17.388  -0.554  0.00  0.00     0.083 A 
ATOM     11  S   UNL d   1      23.372 -15.939  -1.359  0.00  0.00    -0.065 SA
ATOM     12  C   UNL d   1      25.046 -15.640  -1.548  0.00  0.00     0.098 A 
ENDROOT
BRANCH   1  13
ATOM     13  C   UNL d   1      25.264 -13.208  -2.791  0.00  0.00     0.237 C 
BRANCH  13  14
ATOM     14  C   UNL d   1      25.803 -12.857  -4.140  0.00  0.00     0.240 C 
ATOM     15  N   UNL d   1      26.938 -12.270  -4.555  0.00  0.00    -0.326 N 
ATOM     16  H   UNL d   1      27.614 -11.907  -3.898  0.00  0.00     0.169 HD
ATOM     17  O   UNL d   1      25.040 -13.107  -5.051  0.00  0.00    -0.271 OA
BRANCH  15  18
ATOM     18  C   UNL d   1      27.172 -12.115  -5.992  0.00  0.00     0.034 A 
ATOM     19  C   UNL d   1      26.509 -11.103  -6.655  0.00  0.00     0.030 A 
ATOM     20  C   UNL d   1      26.729 -10.898  -8.030  0.00  0.00     0.009 A 
ATOM     21  C   UNL d   1      27.610 -11.696  -8.778  0.00  0.00    -0.062 A 
ATOM     22  C   UNL d   1      27.874 -11.479 -10.230  0.00  0.00     0.048 C 
ATOM     23  C   UNL d   1      28.272 -12.723  -8.145  0.00  0.00     0.009 A 
ATOM     24  C   UNL d   1      28.048 -12.916  -6.792  0.00  0.00     0.030 A 
ENDBRANCH  15  18
ENDBRANCH  13  14
ENDBRANCH   1  13
BRANCH   4  25
ATOM     25  C   UNL d   1      29.213 -15.872  -1.565  0.00  0.00     0.175 C 
BRANCH  25  26
ATOM     26  C   UNL d   1      29.866 -16.453  -2.800  0.00  0.00    -0.040 A 
ATOM     27  C   UNL d   1      29.501 -15.987  -4.069  0.00  0.00     0.009 A 
ATOM     28  C   UNL d   1      30.149 -16.477  -5.204  0.00  0.00     0.001 A 
ATOM     29  C   UNL d   1      31.166 -17.426  -5.082  0.00  0.00     0.000 A 
ATOM     30  C   UNL d   1      31.523 -17.904  -3.832  0.00  0.00     0.001 A 
ATOM     31  C   UNL d   1      30.853 -17.448  -2.711  0.00  0.00     0.009 A 
ENDBRANCH  25  26
ENDBRANCH   4  25
BRANCH  10  32
ATOM     32  C   UNL d   1      22.168 -18.052  -0.153  0.00  0.00     0.273 C 
ATOM     33  O   UNL d   1      21.968 -18.594   0.937  0.00  0.00    -0.266 OA
ATOM     34  N   UNL d   1      21.153 -18.051  -1.117  0.00  0.00    -0.289 N 
ATOM     35  H   UNL d   1      21.269 -17.569  -1.989  0.00  0.00     0.183 HD
BRANCH  34  36
ATOM     36  N   UNL d   1      19.872 -18.579  -0.896  0.00  0.00    -0.247 NA
ATOM     37  H   UNL d   1      19.189 -17.889  -1.224  0.00  0.00     0.143 HD
ATOM     38  H   UNL d   1      19.738 -18.654   0.114  0.00  0.00     0.143 HD
ENDBRANCH  34  36
ENDBRANCH  10  32
TORSDOF 7
ENDMDL
MODEL 3
REMARK VINA RESULT:   -29.315      2.302      3.563
REMARK INTER + INTRA:         -33.777
REMARK INTER:                 -31.403
REMARK INTRA:                  -2.373
REMARK CONF_INDEPENDENT:        2.088
REMARK UNBOUND:                -2.373
REMARK  7 active torsions:
REMARK  status: ('A' for Active; 'I' for Inactive)
REMARK    1  A    between atoms: C_5  and  N_6 
REMARK       I    between atoms: N_6  and  C_7 
REMARK    2  A    between atoms: C_7  and  C_9 
REMARK    3  A    between atoms: C_9  and  N_10 
REMARK    4  A    between atoms: N_13  and  C_14 
REMARK    5  A    between atoms: C_14  and  C_15 
REMARK    6  A    between atoms: C_26  and  C_27 
REMARK       I    between atoms: C_27  and  N_29 
REMARK    7  A    between atoms: N_29  and  N_30 
ROOT
ATOM      1  N   UNL d   1      25.771 -14.528  -2.179  0.00  0.00    -0.283 N 
ATOM      2  C   UNL d   1      27.181 -14.665  -2.264  0.00  0.00     0.333 A 
ATOM      3  O   UNL d   1      27.865 -13.792  -2.809  0.00  0.00    -0.246 OA
ATOM      4  N   UNL d   1      27.782 -15.773  -1.655  0.00  0.00    -0.261 N 
ATOM      5  C   UNL d   1      27.126 -16.811  -1.034  0.00  0.00     0.265 A 
ATOM      6  O   UNL d   1      27.717 -17.766  -0.543  0.00  0.00    -0.267 OA
ATOM      7  C   UNL d   1      25.697 -16.720  -1.004  0.00  0.00     0.074 A 
ATOM      8  C   UNL d   1      24.791 -17.704  -0.435  0.00  0.00    -0.021 A 
ATOM      9  C   UNL d   1      25.244 -18.946   0.195  0.00  0.00     0.051 C 
ATOM     10  C   UNL d   1      23.455 -17.378  -0.555  0.00  0.00     0.083 A 
ATOM     11  S   UNL d   1      23.400 -15.928  -1.356  0.00  0.00    -0.065 SA
ATOM     12  C   UNL d   1      25.074 -15.630  -1.549  0.00  0.00     0.098 A 
ENDROOT
BRANCH   1  13
ATOM     13  C   UNL d   1      25.291 -13.196  -2.787  0.00  0.00     0.237 C 
BRANCH  13  14
ATOM     14  C   UNL d   1      25.877 -12.811  -4.108  0.00  0.00     0.240 C 
ATOM     15  N   UNL d   1      27.005 -12.174  -4.466  0.00  0.00    -0.326 N 
ATOM     16  H   UNL d   1      27.633 -11.789  -3.775  0.00  0.00     0.169 HD
ATOM     17  O   UNL d   1      25.168 -13.085  -5.054  0.00  0.00    -0.271 OA
BRANCH  15  18
ATOM     18  C   UNL d   1      27.298 -11.997  -5.890  0.00  0.00     0.034 A 
ATOM     19  C   UNL d   1      27.922 -13.029  -6.559  0.00  0.00     0.030 A 
ATOM     20  C   UNL d   1      28.193 -12.915  -7.935  0.00  0.00     0.009 A 
ATOM     21  C   UNL d   1      27.853 -11.771  -8.676  0.00  0.00    -0.062 A 
ATOM     22  C   UNL d   1      28.112 -11.642 -10.140  0.00  0.00     0.048 C 
ATOM     23  C   UNL d   1      27.245 -10.721  -8.030  0.00  0.00     0.009 A 
ATOM     24  C   UNL d   1      26.982 -10.844  -6.675  0.00  0.00     0.030 A 
ENDBRANCH  15  18
ENDBRANCH  13  14
ENDBRANCH   1  13
BRANCH   4  25
ATOM     25  C   UNL d   1      29.240 -15.869  -1.578  0.00  0.00     0.175 C 
BRANCH  25  26
ATOM     26  C   UNL d   1      29.907 -16.238  -2.886  0.00  0.00    -0.040 A 
ATOM     27  C   UNL d   1      31.095 -16.979  -2.881  0.00  0.00     0.009 A 
ATOM     28  C   UNL d   1      31.674 -17.374  -4.087  0.00  0.00     0.001 A 
ATOM     29  C   UNL d   1      31.073 -17.041  -5.302  0.00  0.00     0.000 A 
ATOM     30  C   UNL d   1      29.906 -16.295  -5.318  0.00  0.00     0.001 A 
ATOM     31  C   UNL d   1      29.353 -15.869  -4.123  0.00  0.00     0.009 A 
ENDBRANCH  25  26
ENDBRANCH   4  25
BRANCH  10  32
ATOM     32  C   UNL d   1      22.196 -18.041  -0.153  0.00  0.00     0.273 C 
ATOM     33  O   UNL d   1      21.995 -18.579   0.941  0.00  0.00    -0.266 OA
ATOM     34  N   UNL d   1      21.182 -18.047  -1.118  0.00  0.00    -0.289 N 
ATOM     35  H   UNL d   1      21.299 -17.569  -1.991  0.00  0.00     0.183 HD
BRANCH  34  36
ATOM     36  N   UNL d   1      19.901 -18.575  -0.895  0.00  0.00    -0.247 NA
ATOM     37  H   UNL d   1      19.218 -17.850  -1.139  0.00  0.00     0.143 HD
ATOM     38  H   UNL d   1      19.802 -18.733   0.109  0.00  0.00     0.143 HD
ENDBRANCH  34  36
ENDBRANCH  10  32
TORSDOF 7
ENDMDL
MODEL 4
REMARK VINA RESULT:   -28.752      1.384      2.377
REMARK INTER + INTRA:         -33.233
REMARK INTER:                 -30.840
REMARK INTRA:                  -2.392
REMARK CONF_INDEPENDENT:        2.088
REMARK UNBOUND:                -2.392
REMARK  7 active torsions:
REMARK  status: ('A' for Active; 'I' for Inactive)
REMARK    1  A    between atoms: C_5  and  N_6 
REMARK       I    between atoms: N_6  and  C_7 
REMARK    2  A    between atoms: C_7  and  C_9 
REMARK    3  A    between atoms: C_9  and  N_10 
REMARK    4  A    between atoms: N_13  and  C_14 
REMARK    5  A    between atoms: C_14  and  C_15 
REMARK    6  A    between atoms: C_26  and  C_27 
REMARK       I    between atoms: C_27  and  N_29 
REMARK    7  A    between atoms: N_29  and  N_30 
ROOT
ATOM      1  N   UNL d   1      25.668 -14.372  -1.822  0.00  0.00    -0.283 N 
ATOM      2  C   UNL d   1      27.011 -14.177  -1.405  0.00  0.00     0.333 A 
ATOM      3  O   UNL d   1      27.665 -13.214  -1.824  0.00  0.00    -0.246 OA
ATOM      4  N   UNL d   1      27.552 -15.055  -0.459  0.00  0.00    -0.261 N 
ATOM      5  C   UNL d   1      26.928 -16.164   0.065  0.00  0.00     0.265 A 
ATOM      6  O   UNL d   1      27.473 -16.907   0.875  0.00  0.00    -0.267 OA
ATOM      7  C   UNL d   1      25.597 -16.413  -0.400  0.00  0.00     0.074 A 
ATOM      8  C   UNL d   1      24.754 -17.533  -0.016  0.00  0.00    -0.021 A 
ATOM      9  C   UNL d   1      25.177 -18.575   0.921  0.00  0.00     0.051 C 
ATOM     10  C   UNL d   1      23.517 -17.545  -0.628  0.00  0.00     0.083 A 
ATOM     11  S   UNL d   1      23.478 -16.221  -1.625  0.00  0.00    -0.065 SA
ATOM     12  C   UNL d   1      25.017 -15.552  -1.292  0.00  0.00     0.098 A 
ENDROOT
BRANCH   1  13
ATOM     13  C   UNL d   1      25.196 -13.248  -2.763  0.00  0.00     0.237 C 
BRANCH  13  14
ATOM     14  C   UNL d   1      25.971 -13.059  -4.027  0.00  0.00     0.240 C 
ATOM     15  N   UNL d   1      27.285 -13.027  -4.307  0.00  0.00    -0.326 N 
ATOM     16  H   UNL d   1      27.980 -13.083  -3.576  0.00  0.00     0.169 HD
ATOM     17  O   UNL d   1      25.275 -12.839  -4.997  0.00  0.00    -0.271 OA
BRANCH  15  18
ATOM     18  C   UNL d   1      27.710 -12.862  -5.698  0.00  0.00     0.034 A 
ATOM     19  C   UNL d   1      28.479 -13.856  -6.267  0.00  0.00     0.030 A 
ATOM     20  C   UNL d   1      28.881 -13.753  -7.612  0.00  0.00     0.009 A 
ATOM     21  C   UNL d   1      28.532 -12.659  -8.420  0.00  0.00    -0.062 A 
ATOM     22  C   UNL d   1      28.931 -12.544  -9.853  0.00  0.00     0.048 C 
ATOM     23  C   UNL d   1      27.780 -11.645  -7.873  0.00  0.00     0.009 A 
ATOM     24  C   UNL d   1      27.388 -11.757  -6.548  0.00  0.00     0.030 A 
ENDBRANCH  15  18
ENDBRANCH  13  14
ENDBRANCH   1  13
BRANCH   4  25
ATOM     25  C   UNL d   1      28.872 -14.795   0.116  0.00  0.00     0.175 C 
BRANCH  25  26
ATOM     26  C   UNL d   1      30.011 -15.472  -0.616  0.00  0.00    -0.040 A 
ATOM     27  C   UNL d   1      29.885 -15.775  -1.977  0.00  0.00     0.009 A 
ATOM     28  C   UNL d   1      30.959 -16.341  -2.667  0.00  0.00     0.001 A 
ATOM     29  C   UNL d   1      32.163 -16.599  -2.010  0.00  0.00     0.000 A 
ATOM     30  C   UNL d   1      32.292 -16.316  -0.660  0.00  0.00     0.001 A 
ATOM     31  C   UNL d   1      31.214 -15.793   0.033  0.00  0.00     0.009 A 
ENDBRANCH  25  26
ENDBRANCH   4  25
BRANCH  10  32
ATOM     32  C   UNL d   1      22.351 -18.453  -0.569  0.00  0.00     0.273 C 
ATOM     33  O   UNL d   1      22.391 -19.638  -0.228  0.00  0.00    -0.266 OA
ATOM     34  N   UNL d   1      21.127 -17.887  -0.945  0.00  0.00    -0.289 N 
ATOM     35  H   UNL d   1      21.057 -16.913  -1.171  0.00  0.00     0.183 HD
BRANCH  34  36
ATOM     36  N   UNL d   1      19.905 -18.576  -0.895  0.00  0.00    -0.247 NA
ATOM     37  H   UNL d   1      20.073 -19.534  -1.220  0.00  0.00     0.143 HD
ATOM     38  H   UNL d   1      19.281 -18.149  -1.582  0.00  0.00     0.143 HD
ENDBRANCH  34  36
ENDBRANCH  10  32
TORSDOF 7
ENDMDL
MODEL 5
REMARK VINA RESULT:   -28.470      3.181      4.655
REMARK INTER + INTRA:         -32.912
REMARK INTER:                 -30.559
REMARK INTRA:                  -2.353
REMARK CONF_INDEPENDENT:        2.088
REMARK UNBOUND:                -2.353
REMARK  7 active torsions:
REMARK  status: ('A' for Active; 'I' for Inactive)
REMARK    1  A    between atoms: C_5  and  N_6 
REMARK       I    between atoms: N_6  and  C_7 
REMARK    2  A    between atoms: C_7  and  C_9 
REMARK    3  A    between atoms: C_9  and  N_10 
REMARK    4  A    between atoms: N_13  and  C_14 
REMARK    5  A    between atoms: C_14  and  C_15 
REMARK    6  A    between atoms: C_26  and  C_27 
REMARK       I    between atoms: C_27  and  N_29 
REMARK    7  A    between atoms: N_29  and  N_30 
ROOT
ATOM      1  N   UNL d   1      25.779 -14.720  -2.520  0.00  0.00    -0.283 N 
ATOM      2  C   UNL d   1      27.195 -14.777  -2.442  0.00  0.00     0.333 A 
ATOM      3  O   UNL d   1      27.892 -13.992  -3.095  0.00  0.00    -0.246 OA
ATOM      4  N   UNL d   1      27.779 -15.692  -1.558  0.00  0.00    -0.261 N 
ATOM      5  C   UNL d   1      27.109 -16.621  -0.795  0.00  0.00     0.265 A 
ATOM      6  O   UNL d   1      27.688 -17.412  -0.059  0.00  0.00    -0.267 OA
ATOM      7  C   UNL d   1      25.682 -16.621  -0.918  0.00  0.00     0.074 A 
ATOM      8  C   UNL d   1      24.767 -17.524  -0.240  0.00  0.00    -0.021 A 
ATOM      9  C   UNL d   1      25.207 -18.575   0.679  0.00  0.00     0.051 C 
ATOM     10  C   UNL d   1      23.437 -17.319  -0.549  0.00  0.00     0.083 A 
ATOM     11  S   UNL d   1      23.401 -16.073  -1.642  0.00  0.00    -0.065 SA
ATOM     12  C   UNL d   1      25.071 -15.711  -1.737  0.00  0.00     0.098 A 
ENDROOT
BRANCH   1  13
ATOM     13  C   UNL d   1      25.306 -13.577  -3.439  0.00  0.00     0.237 C 
BRANCH  13  14
ATOM     14  C   UNL d   1      25.781 -12.201  -3.099  0.00  0.00     0.240 C 
ATOM     15  N   UNL d   1      26.814 -11.734  -2.378  0.00  0.00    -0.326 N 
ATOM     16  H   UNL d   1      27.430 -12.358  -1.876  0.00  0.00     0.169 HD
ATOM     17  O   UNL d   1      25.060 -11.319  -3.518  0.00  0.00    -0.271 OA
BRANCH  15  18
ATOM     18  C   UNL d   1      27.016 -10.287  -2.283  0.00  0.00     0.034 A 
ATOM     19  C   UNL d   1      27.161  -9.572  -3.453  0.00  0.00     0.030 A 
ATOM     20  C   UNL d   1      27.325  -8.175  -3.410  0.00  0.00     0.009 A 
ATOM     21  C   UNL d   1      27.351  -7.458  -2.202  0.00  0.00    -0.062 A 
ATOM     22  C   UNL d   1      27.500  -5.974  -2.138  0.00  0.00     0.048 C 
ATOM     23  C   UNL d   1      27.225  -8.149  -1.020  0.00  0.00     0.009 A 
ATOM     24  C   UNL d   1      27.064  -9.523  -1.074  0.00  0.00     0.030 A 
ENDBRANCH  15  18
ENDBRANCH  13  14
ENDBRANCH   1  13
BRANCH   4  25
ATOM     25  C   UNL d   1      29.224 -15.673  -1.328  0.00  0.00     0.175 C 
BRANCH  25  26
ATOM     26  C   UNL d   1      30.005 -16.618  -2.216  0.00  0.00    -0.040 A 
ATOM     27  C   UNL d   1      31.090 -17.333  -1.692  0.00  0.00     0.009 A 
ATOM     28  C   UNL d   1      31.770 -18.252  -2.493  0.00  0.00     0.001 A 
ATOM     29  C   UNL d   1      31.371 -18.470  -3.812  0.00  0.00     0.000 A 
ATOM     30  C   UNL d   1      30.309 -17.756  -4.344  0.00  0.00     0.001 A 
ATOM     31  C   UNL d   1      29.660 -16.816  -3.562  0.00  0.00     0.009 A 
ENDBRANCH  25  26
ENDBRANCH   4  25
BRANCH  10  32
ATOM     32  C   UNL d   1      22.175 -17.967  -0.134  0.00  0.00     0.273 C 
ATOM     33  O   UNL d   1      21.951 -18.430   0.988  0.00  0.00    -0.266 OA
ATOM     34  N   UNL d   1      21.186 -18.049  -1.121  0.00  0.00    -0.289 N 
ATOM     35  H   UNL d   1      21.321 -17.631  -2.022  0.00  0.00     0.183 HD
BRANCH  34  36
ATOM     36  N   UNL d   1      19.904 -18.575  -0.895  0.00  0.00    -0.247 NA
ATOM     37  H   UNL d   1      19.228 -17.954  -1.350  0.00  0.00     0.143 HD
ATOM     38  H   UNL d   1      19.718 -18.513   0.108  0.00  0.00     0.143 HD
ENDBRANCH  34  36
ENDBRANCH  10  32
TORSDOF 7
ENDMDL
MODEL 6
REMARK VINA RESULT:   -28.272      2.892      4.241
REMARK INTER + INTRA:         -32.553
REMARK INTER:                 -30.360
REMARK INTRA:                  -2.192
REMARK CONF_INDEPENDENT:        2.088
REMARK UNBOUND:                -2.192
REMARK  7 active torsions:
REMARK  status: ('A' for Active; 'I' for Inactive)
REMARK    1  A    between atoms: C_5  and  N_6 
REMARK       I    between atoms: N_6  and  C_7 
REMARK    2  A    between atoms: C_7  and  C_9 
REMARK    3  A    between atoms: C_9  and  N_10 
REMARK    4  A    between atoms: N_13  and  C_14 
REMARK    5  A    between atoms: C_14  and  C_15 
REMARK    6  A    between atoms: C_26  and  C_27 
REMARK       I    between atoms: C_27  and  N_29 
REMARK    7  A    between atoms: N_29  and  N_30 
ROOT
ATOM      1  N   UNL d   1      26.191 -15.849  -2.917  0.00  0.00    -0.283 N 
ATOM      2  C   UNL d   1      27.579 -15.818  -2.622  0.00  0.00     0.333 A 
ATOM      3  O   UNL d   1      28.370 -15.239  -3.376  0.00  0.00    -0.246 OA
ATOM      4  N   UNL d   1      28.021 -16.396  -1.426  0.00  0.00    -0.261 N 
ATOM      5  C   UNL d   1      27.241 -17.078  -0.520  0.00  0.00     0.265 A 
ATOM      6  O   UNL d   1      27.701 -17.582   0.499  0.00  0.00    -0.267 OA
ATOM      7  C   UNL d   1      25.849 -17.177  -0.840  0.00  0.00     0.074 A 
ATOM      8  C   UNL d   1      24.840 -17.870  -0.058  0.00  0.00    -0.021 A 
ATOM      9  C   UNL d   1      25.134 -18.573   1.193  0.00  0.00     0.051 C 
ATOM     10  C   UNL d   1      23.573 -17.827  -0.603  0.00  0.00     0.083 A 
ATOM     11  S   UNL d   1      23.705 -16.974  -2.019  0.00  0.00    -0.065 SA
ATOM     12  C   UNL d   1      25.371 -16.586  -1.978  0.00  0.00     0.098 A 
ENDROOT
BRANCH   1  13
ATOM     13  C   UNL d   1      25.865 -15.061  -4.200  0.00  0.00     0.237 C 
BRANCH  13  14
ATOM     14  C   UNL d   1      25.869 -13.570  -4.091  0.00  0.00     0.240 C 
ATOM     15  N   UNL d   1      26.828 -12.666  -3.832  0.00  0.00    -0.326 N 
ATOM     16  H   UNL d   1      27.769 -12.950  -3.598  0.00  0.00     0.169 HD
ATOM     17  O   UNL d   1      24.768 -13.070  -4.213  0.00  0.00    -0.271 OA
BRANCH  15  18
ATOM     18  C   UNL d   1      26.484 -11.243  -3.845  0.00  0.00     0.034 A 
ATOM     19  C   UNL d   1      26.036 -10.691  -5.027  0.00  0.00     0.030 A 
ATOM     20  C   UNL d   1      25.664  -9.335  -5.077  0.00  0.00     0.009 A 
ATOM     21  C   UNL d   1      25.731  -8.496  -3.953  0.00  0.00    -0.062 A 
ATOM     22  C   UNL d   1      25.318  -7.062  -3.981  0.00  0.00     0.048 C 
ATOM     23  C   UNL d   1      26.190  -9.016  -2.765  0.00  0.00     0.009 A 
ATOM     24  C   UNL d   1      26.553 -10.352  -2.727  0.00  0.00     0.030 A 
ENDBRANCH  15  18
ENDBRANCH  13  14
ENDBRANCH   1  13
BRANCH   4  25
ATOM     25  C   UNL d   1      29.415 -16.246  -1.007  0.00  0.00     0.175 C 
BRANCH  25  26
ATOM     26  C   UNL d   1      30.376 -17.185  -1.703  0.00  0.00    -0.040 A 
ATOM     27  C   UNL d   1      31.018 -18.194  -0.974  0.00  0.00     0.009 A 
ATOM     28  C   UNL d   1      31.855 -19.101  -1.627  0.00  0.00     0.001 A 
ATOM     29  C   UNL d   1      32.050 -19.013  -3.007  0.00  0.00     0.000 A 
ATOM     30  C   UNL d   1      31.432 -18.009  -3.734  0.00  0.00     0.001 A 
ATOM     31  C   UNL d   1      30.634 -17.086  -3.079  0.00  0.00     0.009 A 
ENDBRANCH  25  26
ENDBRANCH   4  25
BRANCH  10  32
ATOM     32  C   UNL d   1      22.260 -18.372  -0.195  0.00  0.00     0.273 C 
ATOM     33  O   UNL d   1      22.028 -18.936   0.878  0.00  0.00    -0.266 OA
ATOM     34  N   UNL d   1      21.229 -18.225  -1.131  0.00  0.00    -0.289 N 
ATOM     35  H   UNL d   1      21.376 -17.722  -1.986  0.00  0.00     0.183 HD
BRANCH  34  36
ATOM     36  N   UNL d   1      19.905 -18.626  -0.897  0.00  0.00    -0.247 NA
ATOM     37  H   UNL d   1      19.289 -17.967  -1.383  0.00  0.00     0.143 HD
ATOM     38  H   UNL d   1      19.718 -18.507   0.101  0.00  0.00     0.143 HD
ENDBRANCH  34  36
ENDBRANCH  10  32
TORSDOF 7
ENDMDL
MODEL 7
REMARK VINA RESULT:   -28.205      2.219      2.945
REMARK INTER + INTRA:         -32.738
REMARK INTER:                 -30.293
REMARK INTRA:                  -2.445
REMARK CONF_INDEPENDENT:        2.088
REMARK UNBOUND:                -2.445
REMARK  7 active torsions:
REMARK  status: ('A' for Active; 'I' for Inactive)
REMARK    1  A    between atoms: C_5  and  N_6 
REMARK       I    between atoms: N_6  and  C_7 
REMARK    2  A    between atoms: C_7  and  C_9 
REMARK    3  A    between atoms: C_9  and  N_10 
REMARK    4  A    between atoms: N_13  and  C_14 
REMARK    5  A    between atoms: C_14  and  C_15 
REMARK    6  A    between atoms: C_26  and  C_27 
REMARK       I    between atoms: C_27  and  N_29 
REMARK    7  A    between atoms: N_29  and  N_30 
ROOT
ATOM      1  N   UNL d   1      26.249 -15.934  -2.929  0.00  0.00    -0.283 N 
ATOM      2  C   UNL d   1      27.633 -15.917  -2.617  0.00  0.00     0.333 A 
ATOM      3  O   UNL d   1      28.445 -15.395  -3.390  0.00  0.00    -0.246 OA
ATOM      4  N   UNL d   1      28.047 -16.440  -1.386  0.00  0.00    -0.261 N 
ATOM      5  C   UNL d   1      27.241 -17.056  -0.456  0.00  0.00     0.265 A 
ATOM      6  O   UNL d   1      27.677 -17.515   0.594  0.00  0.00    -0.267 OA
ATOM      7  C   UNL d   1      25.851 -17.142  -0.791  0.00  0.00     0.074 A 
ATOM      8  C   UNL d   1      24.818 -17.772   0.013  0.00  0.00    -0.021 A 
ATOM      9  C   UNL d   1      25.080 -18.414   1.303  0.00  0.00     0.051 C 
ATOM     10  C   UNL d   1      23.558 -17.731  -0.551  0.00  0.00     0.083 A 
ATOM     11  S   UNL d   1      23.727 -16.957  -2.008  0.00  0.00    -0.065 SA
ATOM     12  C   UNL d   1      25.400 -16.603  -1.965  0.00  0.00     0.098 A 
ENDROOT
BRANCH   1  13
ATOM     13  C   UNL d   1      25.956 -15.208  -4.256  0.00  0.00     0.237 C 
BRANCH  13  14
ATOM     14  C   UNL d   1      25.891 -13.715  -4.205  0.00  0.00     0.240 C 
ATOM     15  N   UNL d   1      26.821 -12.755  -4.070  0.00  0.00    -0.326 N 
ATOM     16  H   UNL d   1      27.793 -12.982  -3.913  0.00  0.00     0.169 HD
ATOM     17  O   UNL d   1      24.759 -13.275  -4.244  0.00  0.00    -0.271 OA
BRANCH  15  18
ATOM     18  C   UNL d   1      26.403 -11.353  -4.105  0.00  0.00     0.034 A 
ATOM     19  C   UNL d   1      26.359 -10.655  -2.915  0.00  0.00     0.030 A 
ATOM     20  C   UNL d   1      25.994  -9.296  -2.908  0.00  0.00     0.009 A 
ATOM     21  C   UNL d   1      25.660  -8.601  -4.082  0.00  0.00    -0.062 A 
ATOM     22  C   UNL d   1      25.294  -7.154  -4.095  0.00  0.00     0.048 C 
ATOM     23  C   UNL d   1      25.680  -9.276  -5.280  0.00  0.00     0.009 A 
ATOM     24  C   UNL d   1      26.041 -10.614  -5.276  0.00  0.00     0.030 A 
ENDBRANCH  15  18
ENDBRANCH  13  14
ENDBRANCH   1  13
BRANCH   4  25
ATOM     25  C   UNL d   1      29.438 -16.296  -0.956  0.00  0.00     0.175 C 
BRANCH  25  26
ATOM     26  C   UNL d   1      29.674 -15.155   0.010  0.00  0.00    -0.040 A 
ATOM     27  C   UNL d   1      28.875 -14.007  -0.056  0.00  0.00     0.009 A 
ATOM     28  C   UNL d   1      29.050 -12.983   0.876  0.00  0.00     0.001 A 
ATOM     29  C   UNL d   1      30.012 -13.099   1.880  0.00  0.00     0.000 A 
ATOM     30  C   UNL d   1      30.818 -14.224   1.944  0.00  0.00     0.001 A 
ATOM     31  C   UNL d   1      30.671 -15.221   0.996  0.00  0.00     0.009 A 
ENDBRANCH  25  26
ENDBRANCH   4  25
BRANCH  10  32
ATOM     32  C   UNL d   1      22.229 -18.226  -0.134  0.00  0.00     0.273 C 
ATOM     33  O   UNL d   1      21.952 -18.653   0.991  0.00  0.00    -0.266 OA
ATOM     34  N   UNL d   1      21.239 -18.202  -1.123  0.00  0.00    -0.289 N 
ATOM     35  H   UNL d   1      21.422 -17.808  -2.027  0.00  0.00     0.183 HD
BRANCH  34  36
ATOM     36  N   UNL d   1      19.905 -18.575  -0.896  0.00  0.00    -0.247 NA
ATOM     37  H   UNL d   1      19.306 -17.825  -1.255  0.00  0.00     0.143 HD
ATOM     38  H   UNL d   1      19.758 -18.598   0.115  0.00  0.00     0.143 HD
ENDBRANCH  34  36
ENDBRANCH  10  32
TORSDOF 7
ENDMDL
MODEL 8
REMARK VINA RESULT:   -27.576      3.451      5.988
REMARK INTER + INTRA:         -32.311
REMARK INTER:                 -29.664
REMARK INTRA:                  -2.647
REMARK CONF_INDEPENDENT:        2.088
REMARK UNBOUND:                -2.647
REMARK  7 active torsions:
REMARK  status: ('A' for Active; 'I' for Inactive)
REMARK    1  A    between atoms: C_5  and  N_6 
REMARK       I    between atoms: N_6  and  C_7 
REMARK    2  A    between atoms: C_7  and  C_9 
REMARK    3  A    between atoms: C_9  and  N_10 
REMARK    4  A    between atoms: N_13  and  C_14 
REMARK    5  A    between atoms: C_14  and  C_15 
REMARK    6  A    between atoms: C_26  and  C_27 
REMARK       I    between atoms: C_27  and  N_29 
REMARK    7  A    between atoms: N_29  and  N_30 
ROOT
ATOM      1  N   UNL d   1      27.344 -16.575  -0.675  0.00  0.00    -0.283 N 
ATOM      2  C   UNL d   1      27.864 -15.376  -1.229  0.00  0.00     0.333 A 
ATOM      3  O   UNL d   1      29.083 -15.166  -1.239  0.00  0.00    -0.246 OA
ATOM      4  N   UNL d   1      26.974 -14.474  -1.823  0.00  0.00    -0.261 N 
ATOM      5  C   UNL d   1      25.604 -14.593  -1.858  0.00  0.00     0.265 A 
ATOM      6  O   UNL d   1      24.881 -13.748  -2.376  0.00  0.00    -0.267 OA
ATOM      7  C   UNL d   1      25.060 -15.765  -1.240  0.00  0.00     0.074 A 
ATOM      8  C   UNL d   1      23.650 -16.093  -1.126  0.00  0.00    -0.021 A 
ATOM      9  C   UNL d   1      22.579 -15.239  -1.644  0.00  0.00     0.051 C 
ATOM     10  C   UNL d   1      23.396 -17.279  -0.466  0.00  0.00     0.083 A 
ATOM     11  S   UNL d   1      24.874 -17.889  -0.023  0.00  0.00    -0.065 SA
ATOM     12  C   UNL d   1      25.901 -16.693  -0.688  0.00  0.00     0.098 A 
ENDROOT
BRANCH   1  13
ATOM     13  C   UNL d   1      28.467 -17.506  -0.180  0.00  0.00     0.237 C 
BRANCH  13  14
ATOM     14  C   UNL d   1      29.545 -17.838  -1.161  0.00  0.00     0.240 C 
ATOM     15  N   UNL d   1      29.871 -17.356  -2.372  0.00  0.00    -0.326 N 
ATOM     16  H   UNL d   1      29.305 -16.655  -2.829  0.00  0.00     0.169 HD
ATOM     17  O   UNL d   1      30.245 -18.770  -0.820  0.00  0.00    -0.271 OA
BRANCH  15  18
ATOM     18  C   UNL d   1      31.047 -17.895  -3.057  0.00  0.00     0.034 A 
ATOM     19  C   UNL d   1      30.850 -18.843  -4.040  0.00  0.00     0.030 A 
ATOM     20  C   UNL d   1      31.950 -19.364  -4.747  0.00  0.00     0.009 A 
ATOM     21  C   UNL d   1      33.270 -18.958  -4.490  0.00  0.00    -0.062 A 
ATOM     22  C   UNL d   1      34.446 -19.483  -5.246  0.00  0.00     0.048 C 
ATOM     23  C   UNL d   1      33.496 -18.026  -3.504  0.00  0.00     0.009 A 
ATOM     24  C   UNL d   1      32.406 -17.519  -2.815  0.00  0.00     0.030 A 
ENDBRANCH  15  18
ENDBRANCH  13  14
ENDBRANCH   1  13
BRANCH   4  25
ATOM     25  C   UNL d   1      27.483 -13.308  -2.546  0.00  0.00     0.175 C 
BRANCH  25  26
ATOM     26  C   UNL d   1      27.814 -13.576  -3.999  0.00  0.00    -0.040 A 
ATOM     27  C   UNL d   1      27.624 -12.571  -4.956  0.00  0.00     0.009 A 
ATOM     28  C   UNL d   1      27.990 -12.796  -6.284  0.00  0.00     0.001 A 
ATOM     29  C   UNL d   1      28.552 -14.016  -6.664  0.00  0.00     0.000 A 
ATOM     30  C   UNL d   1      28.729 -15.022  -5.728  0.00  0.00     0.001 A 
ATOM     31  C   UNL d   1      28.329 -14.812  -4.419  0.00  0.00     0.009 A 
ENDBRANCH  25  26
ENDBRANCH   4  25
BRANCH  10  32
ATOM     32  C   UNL d   1      22.163 -18.011  -0.105  0.00  0.00     0.273 C 
ATOM     33  O   UNL d   1      21.974 -18.597   0.965  0.00  0.00    -0.266 OA
ATOM     34  N   UNL d   1      21.161 -18.023  -1.082  0.00  0.00    -0.289 N 
ATOM     35  H   UNL d   1      21.267 -17.508  -1.935  0.00  0.00     0.183 HD
BRANCH  34  36
ATOM     36  N   UNL d   1      19.902 -18.615  -0.895  0.00  0.00    -0.247 NA
ATOM     37  H   UNL d   1      19.191 -17.928  -1.167  0.00  0.00     0.143 HD
ATOM     38  H   UNL d   1      19.779 -18.770   0.107  0.00  0.00     0.143 HD
ENDBRANCH  34  36
ENDBRANCH  10  32
TORSDOF 7
ENDMDL
