MODEL 1
REMARK VINA RESULT:    -8.767      0.000      0.000
REMARK INTER + INTRA:         -11.986
REMARK INTER:                 -10.557
REMARK INTRA:                  -1.429
REMARK CONF_INDEPENDENT:        1.790
REMARK UNBOUND:                -1.429
REMARK  6 active torsions:
REMARK  status: ('A' for Active; 'I' for Inactive)
REMARK    1  A    between atoms: C_5  and  C_6 
REMARK       I    between atoms: C_6  and  N_8 
REMARK    2  A    between atoms: N_8  and  N_9 
REMARK       I    between atoms: N_9  and  C_10 
REMARK    3  A    between atoms: C_10  and  C_12 
REMARK    4  A    between atoms: C_12  and  C_13 
REMARK    5  A    between atoms: C_13  and  C_14 
REMARK       I    between atoms: C_14  and  N_16 
REMARK    6  A    between atoms: N_16  and  C_17 
ROOT
ATOM      1  N   UNL d   1      25.237 -17.373  -0.213  0.00  0.00    -0.267 N 
ATOM      2  C   UNL d   1      26.407 -17.802   0.409  0.00  0.00     0.236 C 
ATOM      3  O   UNL d   1      26.430 -18.812   1.114  0.00  0.00    -0.272 OA
ATOM      4  H   UNL d   1      25.158 -16.551  -0.808  0.00  0.00     0.190 HD
ENDROOT
BRANCH   2   5
ATOM      5  C   UNL d   1      27.653 -16.951   0.162  0.00  0.00     0.114 C 
BRANCH   5   6
ATOM      6  C   UNL d   1      27.331 -15.490  -0.262  0.00  0.00     0.112 C 
BRANCH   6   7
ATOM      7  C   UNL d   1      27.379 -14.539   0.935  0.00  0.00     0.222 C 
ATOM      8  O   UNL d   1      26.951 -13.390   0.824  0.00  0.00    -0.273 OA
ATOM      9  N   UNL d   1      27.961 -15.040   2.105  0.00  0.00    -0.327 N 
ATOM     10  H   UNL d   1      28.520 -15.884   2.057  0.00  0.00     0.169 HD
BRANCH   9  11
ATOM     11  C   UNL d   1      28.073 -14.244   3.284  0.00  0.00     0.035 A 
ATOM     12  C   UNL d   1      28.459 -14.830   4.490  0.00  0.00     0.030 A 
ATOM     13  C   UNL d   1      28.523 -14.086   5.668  0.00  0.00     0.009 A 
ATOM     14  C   UNL d   1      28.190 -12.728   5.681  0.00  0.00    -0.056 A 
ATOM     15  C   UNL d   1      28.223 -11.984   6.990  0.00  0.00     0.049 C 
ATOM     16  C   UNL d   1      27.819 -12.107   4.471  0.00  0.00    -0.054 A 
ATOM     17  C   UNL d   1      27.414 -10.654   4.433  0.00  0.00     0.049 C 
ATOM     18  C   UNL d   1      27.794 -12.869   3.272  0.00  0.00     0.037 A 
ENDBRANCH   9  11
ENDBRANCH   6   7
ENDBRANCH   5   6
ENDBRANCH   2   5
BRANCH   1  19
ATOM     19  N   UNL d   1      24.044 -18.131  -0.013  0.00  0.00    -0.263 N 
ATOM     20  C   UNL d   1      22.816 -17.675  -0.485  0.00  0.00     0.270 C 
ATOM     21  O   UNL d   1      22.711 -16.604  -1.092  0.00  0.00    -0.266 OA
ATOM     22  H   UNL d   1      24.179 -19.006   0.487  0.00  0.00     0.190 HD
BRANCH  20  23
ATOM     23  C   UNL d   1      21.589 -18.530  -0.243  0.00  0.00     0.033 A 
ATOM     24  C   UNL d   1      21.279 -18.950   1.066  0.00  0.00     0.017 A 
ATOM     25  C   UNL d   1      20.136 -19.728   1.334  0.00  0.00     0.007 A 
ATOM     26  C   UNL d   1      19.274 -20.105   0.299  0.00  0.00    -0.062 A 
ATOM     27  C   UNL d   1      18.035 -20.916   0.557  0.00  0.00     0.048 C 
ATOM     28  C   UNL d   1      19.584 -19.700  -1.003  0.00  0.00     0.007 A 
ATOM     29  C   UNL d   1      20.724 -18.925  -1.272  0.00  0.00     0.017 A 
ENDBRANCH  20  23
ENDBRANCH   1  19
TORSDOF 6
ENDMDL
MODEL 2
REMARK VINA RESULT:    -8.700      4.496      6.194
REMARK INTER + INTRA:         -11.631
REMARK INTER:                 -10.490
REMARK INTRA:                  -1.141
REMARK CONF_INDEPENDENT:        1.790
REMARK UNBOUND:                -1.141
REMARK  6 active torsions:
REMARK  status: ('A' for Active; 'I' for Inactive)
REMARK    1  A    between atoms: C_5  and  C_6 
REMARK       I    between atoms: C_6  and  N_8 
REMARK    2  A    between atoms: N_8  and  N_9 
REMARK       I    between atoms: N_9  and  C_10 
REMARK    3  A    between atoms: C_10  and  C_12 
REMARK    4  A    between atoms: C_12  and  C_13 
REMARK    5  A    between atoms: C_13  and  C_14 
REMARK       I    between atoms: C_14  and  N_16 
REMARK    6  A    between atoms: N_16  and  C_17 
ROOT
ATOM      1  N   UNL d   1      23.619 -16.332  -1.246  0.00  0.00    -0.267 N 
ATOM      2  C   UNL d   1      24.896 -16.537  -0.728  0.00  0.00     0.236 C 
ATOM      3  O   UNL d   1      25.094 -17.306   0.214  0.00  0.00    -0.272 OA
ATOM      4  H   UNL d   1      23.395 -15.713  -2.023  0.00  0.00     0.190 HD
ENDROOT
BRANCH   2   5
ATOM      5  C   UNL d   1      26.028 -15.755  -1.396  0.00  0.00     0.114 C 
BRANCH   5   6
ATOM      6  C   UNL d   1      25.996 -15.824  -2.949  0.00  0.00     0.112 C 
BRANCH   6   7
ATOM      7  C   UNL d   1      25.510 -14.505  -3.555  0.00  0.00     0.222 C 
ATOM      8  O   UNL d   1      24.406 -14.450  -4.098  0.00  0.00    -0.273 OA
ATOM      9  N   UNL d   1      26.396 -13.425  -3.484  0.00  0.00    -0.327 N 
ATOM     10  H   UNL d   1      27.370 -13.597  -3.266  0.00  0.00     0.169 HD
BRANCH   9  11
ATOM     11  C   UNL d   1      26.060 -12.147  -4.024  0.00  0.00     0.035 A 
ATOM     12  C   UNL d   1      25.897 -11.990  -5.400  0.00  0.00     0.030 A 
ATOM     13  C   UNL d   1      25.622 -10.740  -5.958  0.00  0.00     0.009 A 
ATOM     14  C   UNL d   1      25.513  -9.601  -5.154  0.00  0.00    -0.056 A 
ATOM     15  C   UNL d   1      25.270  -8.268  -5.813  0.00  0.00     0.049 C 
ATOM     16  C   UNL d   1      25.651  -9.737  -3.758  0.00  0.00    -0.054 A 
ATOM     17  C   UNL d   1      25.580  -8.537  -2.847  0.00  0.00     0.049 C 
ATOM     18  C   UNL d   1      25.894 -11.022  -3.200  0.00  0.00     0.037 A 
ENDBRANCH   9  11
ENDBRANCH   6   7
ENDBRANCH   5   6
ENDBRANCH   2   5
BRANCH   1  19
ATOM     19  N   UNL d   1      22.526 -17.035  -0.656  0.00  0.00    -0.263 N 
ATOM     20  C   UNL d   1      22.225 -18.341  -1.034  0.00  0.00     0.270 C 
ATOM     21  O   UNL d   1      22.887 -18.938  -1.888  0.00  0.00    -0.266 OA
ATOM     22  H   UNL d   1      22.013 -16.506   0.044  0.00  0.00     0.190 HD
BRANCH  20  23
ATOM     23  C   UNL d   1      21.053 -19.031  -0.366  0.00  0.00     0.033 A 
ATOM     24  C   UNL d   1      19.936 -19.413  -1.136  0.00  0.00     0.017 A 
ATOM     25  C   UNL d   1      18.838 -20.075  -0.554  0.00  0.00     0.007 A 
ATOM     26  C   UNL d   1      18.829 -20.373   0.812  0.00  0.00    -0.062 A 
ATOM     27  C   UNL d   1      17.681 -21.098   1.456  0.00  0.00     0.048 C 
ATOM     28  C   UNL d   1      19.930 -19.986   1.582  0.00  0.00     0.007 A 
ATOM     29  C   UNL d   1      21.026 -19.325   1.004  0.00  0.00     0.017 A 
ENDBRANCH  20  23
ENDBRANCH   1  19
TORSDOF 6
ENDMDL
MODEL 3
REMARK VINA RESULT:    -8.495      1.230      9.498
REMARK INTER + INTRA:         -11.787
REMARK INTER:                 -10.285
REMARK INTRA:                  -1.503
REMARK CONF_INDEPENDENT:        1.790
REMARK UNBOUND:                -1.503
REMARK  6 active torsions:
REMARK  status: ('A' for Active; 'I' for Inactive)
REMARK    1  A    between atoms: C_5  and  C_6 
REMARK       I    between atoms: C_6  and  N_8 
REMARK    2  A    between atoms: N_8  and  N_9 
REMARK       I    between atoms: N_9  and  C_10 
REMARK    3  A    between atoms: C_10  and  C_12 
REMARK    4  A    between atoms: C_12  and  C_13 
REMARK    5  A    between atoms: C_13  and  C_14 
REMARK       I    between atoms: C_14  and  N_16 
REMARK    6  A    between atoms: N_16  and  C_17 
ROOT
ATOM      1  N   UNL d   1      26.934 -15.643   0.484  0.00  0.00    -0.267 N 
ATOM      2  C   UNL d   1      26.726 -16.984   0.172  0.00  0.00     0.236 C 
ATOM      3  O   UNL d   1      27.010 -17.883   0.966  0.00  0.00    -0.272 OA
ATOM      4  H   UNL d   1      26.718 -14.859  -0.128  0.00  0.00     0.190 HD
ENDROOT
BRANCH   2   5
ATOM      5  C   UNL d   1      26.127 -17.271  -1.205  0.00  0.00     0.114 C 
BRANCH   5   6
ATOM      6  C   UNL d   1      24.644 -16.825  -1.341  0.00  0.00     0.112 C 
BRANCH   6   7
ATOM      7  C   UNL d   1      23.691 -17.891  -0.795  0.00  0.00     0.222 C 
ATOM      8  O   UNL d   1      24.140 -18.955  -0.370  0.00  0.00    -0.273 OA
ATOM      9  N   UNL d   1      22.325 -17.592  -0.854  0.00  0.00    -0.327 N 
ATOM     10  H   UNL d   1      22.010 -16.831  -1.443  0.00  0.00     0.169 HD
BRANCH   9  11
ATOM     11  C   UNL d   1      21.339 -18.512  -0.386  0.00  0.00     0.035 A 
ATOM     12  C   UNL d   1      20.362 -18.994  -1.257  0.00  0.00     0.030 A 
ATOM     13  C   UNL d   1      19.355 -19.851  -0.812  0.00  0.00     0.009 A 
ATOM     14  C   UNL d   1      19.284 -20.244   0.528  0.00  0.00    -0.056 A 
ATOM     15  C   UNL d   1      18.145 -21.125   0.968  0.00  0.00     0.049 C 
ATOM     16  C   UNL d   1      20.273 -19.788   1.424  0.00  0.00    -0.054 A 
ATOM     17  C   UNL d   1      20.225 -20.151   2.888  0.00  0.00     0.049 C 
ATOM     18  C   UNL d   1      21.314 -18.946   0.949  0.00  0.00     0.037 A 
ENDBRANCH   9  11
ENDBRANCH   6   7
ENDBRANCH   5   6
ENDBRANCH   2   5
BRANCH   1  19
ATOM     19  N   UNL d   1      27.495 -15.321   1.757  0.00  0.00    -0.263 N 
ATOM     20  C   UNL d   1      27.350 -14.049   2.304  0.00  0.00     0.270 C 
ATOM     21  O   UNL d   1      26.735 -13.155   1.713  0.00  0.00    -0.266 OA
ATOM     22  H   UNL d   1      27.988 -16.087   2.207  0.00  0.00     0.190 HD
BRANCH  20  23
ATOM     23  C   UNL d   1      27.966 -13.774   3.661  0.00  0.00     0.033 A 
ATOM     24  C   UNL d   1      28.582 -14.823   4.373  0.00  0.00     0.017 A 
ATOM     25  C   UNL d   1      29.183 -14.602   5.627  0.00  0.00     0.007 A 
ATOM     26  C   UNL d   1      29.184 -13.326   6.200  0.00  0.00    -0.062 A 
ATOM     27  C   UNL d   1      29.837 -13.056   7.526  0.00  0.00     0.048 C 
ATOM     28  C   UNL d   1      28.565 -12.285   5.502  0.00  0.00     0.007 A 
ATOM     29  C   UNL d   1      27.964 -12.503   4.252  0.00  0.00     0.017 A 
ENDBRANCH  20  23
ENDBRANCH   1  19
TORSDOF 6
ENDMDL
MODEL 4
REMARK VINA RESULT:    -8.028      3.899      5.909
REMARK INTER + INTRA:         -11.979
REMARK INTER:                  -9.818
REMARK INTRA:                  -2.161
REMARK CONF_INDEPENDENT:        1.790
REMARK UNBOUND:                -2.161
REMARK  6 active torsions:
REMARK  status: ('A' for Active; 'I' for Inactive)
REMARK    1  A    between atoms: C_5  and  C_6 
REMARK       I    between atoms: C_6  and  N_8 
REMARK    2  A    between atoms: N_8  and  N_9 
REMARK       I    between atoms: N_9  and  C_10 
REMARK    3  A    between atoms: C_10  and  C_12 
REMARK    4  A    between atoms: C_12  and  C_13 
REMARK    5  A    between atoms: C_13  and  C_14 
REMARK       I    between atoms: C_14  and  N_16 
REMARK    6  A    between atoms: N_16  and  C_17 
ROOT
ATOM      1  N   UNL d   1      24.535 -17.561  -0.264  0.00  0.00    -0.267 N 
ATOM      2  C   UNL d   1      25.715 -17.735   0.455  0.00  0.00     0.236 C 
ATOM      3  O   UNL d   1      25.806 -18.575   1.352  0.00  0.00    -0.272 OA
ATOM      4  H   UNL d   1      24.401 -16.887  -1.016  0.00  0.00     0.190 HD
ENDROOT
BRANCH   2   5
ATOM      5  C   UNL d   1      26.882 -16.827   0.066  0.00  0.00     0.114 C 
BRANCH   5   6
ATOM      6  C   UNL d   1      27.299 -16.959  -1.426  0.00  0.00     0.112 C 
BRANCH   6   7
ATOM      7  C   UNL d   1      26.690 -15.840  -2.275  0.00  0.00     0.222 C 
ATOM      8  O   UNL d   1      25.473 -15.804  -2.460  0.00  0.00    -0.273 OA
ATOM      9  N   UNL d   1      27.589 -14.926  -2.836  0.00  0.00    -0.327 N 
ATOM     10  H   UNL d   1      28.575 -15.156  -2.864  0.00  0.00     0.169 HD
BRANCH   9  11
ATOM     11  C   UNL d   1      27.142 -13.846  -3.655  0.00  0.00     0.035 A 
ATOM     12  C   UNL d   1      26.024 -13.101  -3.281  0.00  0.00     0.030 A 
ATOM     13  C   UNL d   1      25.533 -12.076  -4.091  0.00  0.00     0.009 A 
ATOM     14  C   UNL d   1      26.141 -11.770  -5.313  0.00  0.00    -0.056 A 
ATOM     15  C   UNL d   1      25.539 -10.692  -6.174  0.00  0.00     0.049 C 
ATOM     16  C   UNL d   1      27.287 -12.494  -5.703  0.00  0.00    -0.054 A 
ATOM     17  C   UNL d   1      27.961 -12.232  -7.027  0.00  0.00     0.049 C 
ATOM     18  C   UNL d   1      27.797 -13.510  -4.850  0.00  0.00     0.037 A 
ENDBRANCH   9  11
ENDBRANCH   6   7
ENDBRANCH   5   6
ENDBRANCH   2   5
BRANCH   1  19
ATOM     19  N   UNL d   1      23.414 -18.382   0.062  0.00  0.00    -0.263 N 
ATOM     20  C   UNL d   1      22.127 -18.032  -0.341  0.00  0.00     0.270 C 
ATOM     21  O   UNL d   1      21.908 -17.005  -0.991  0.00  0.00    -0.266 OA
ATOM     22  H   UNL d   1      23.643 -19.216   0.594  0.00  0.00     0.190 HD
BRANCH  20  23
ATOM     23  C   UNL d   1      20.981 -18.949   0.035  0.00  0.00     0.033 A 
ATOM     24  C   UNL d   1      20.795 -19.317   1.383  0.00  0.00     0.017 A 
ATOM     25  C   UNL d   1      19.730 -20.151   1.774  0.00  0.00     0.007 A 
ATOM     26  C   UNL d   1      18.823 -20.636   0.827  0.00  0.00    -0.062 A 
ATOM     27  C   UNL d   1      17.663 -21.509   1.217  0.00  0.00     0.048 C 
ATOM     28  C   UNL d   1      19.009 -20.282  -0.513  0.00  0.00     0.007 A 
ATOM     29  C   UNL d   1      20.072 -19.451  -0.905  0.00  0.00     0.017 A 
ENDBRANCH  20  23
ENDBRANCH   1  19
TORSDOF 6
ENDMDL
MODEL 5
REMARK VINA RESULT:    -7.735      3.281      9.144
REMARK INTER + INTRA:         -11.795
REMARK INTER:                  -9.525
REMARK INTRA:                  -2.270
REMARK CONF_INDEPENDENT:        1.790
REMARK UNBOUND:                -2.270
REMARK  6 active torsions:
REMARK  status: ('A' for Active; 'I' for Inactive)
REMARK    1  A    between atoms: C_5  and  C_6 
REMARK       I    between atoms: C_6  and  N_8 
REMARK    2  A    between atoms: N_8  and  N_9 
REMARK       I    between atoms: N_9  and  C_10 
REMARK    3  A    between atoms: C_10  and  C_12 
REMARK    4  A    between atoms: C_12  and  C_13 
REMARK    5  A    between atoms: C_13  and  C_14 
REMARK       I    between atoms: C_14  and  N_16 
REMARK    6  A    between atoms: N_16  and  C_17 
ROOT
ATOM      1  N   UNL d   1      30.582 -14.814   2.597  0.00  0.00    -0.267 N 
ATOM      2  C   UNL d   1      31.794 -14.604   1.945  0.00  0.00     0.236 C 
ATOM      3  O   UNL d   1      32.737 -14.040   2.502  0.00  0.00    -0.272 OA
ATOM      4  H   UNL d   1      29.770 -15.276   2.190  0.00  0.00     0.190 HD
ENDROOT
BRANCH   2   5
ATOM      5  C   UNL d   1      31.882 -15.113   0.505  0.00  0.00     0.114 C 
BRANCH   5   6
ATOM      6  C   UNL d   1      31.144 -16.462   0.278  0.00  0.00     0.112 C 
BRANCH   6   7
ATOM      7  C   UNL d   1      29.638 -16.250   0.108  0.00  0.00     0.222 C 
ATOM      8  O   UNL d   1      29.163 -15.119   0.208  0.00  0.00    -0.273 OA
ATOM      9  N   UNL d   1      28.870 -17.398  -0.119  0.00  0.00    -0.327 N 
ATOM     10  H   UNL d   1      29.274 -18.308   0.067  0.00  0.00     0.169 HD
BRANCH   9  11
ATOM     11  C   UNL d   1      27.454 -17.329  -0.283  0.00  0.00     0.035 A 
ATOM     12  C   UNL d   1      26.626 -18.207   0.415  0.00  0.00     0.030 A 
ATOM     13  C   UNL d   1      25.242 -18.196   0.231  0.00  0.00     0.009 A 
ATOM     14  C   UNL d   1      24.642 -17.312  -0.671  0.00  0.00    -0.056 A 
ATOM     15  C   UNL d   1      23.151 -17.380  -0.872  0.00  0.00     0.049 C 
ATOM     16  C   UNL d   1      25.456 -16.399  -1.372  0.00  0.00    -0.054 A 
ATOM     17  C   UNL d   1      24.867 -15.447  -2.384  0.00  0.00     0.049 C 
ATOM     18  C   UNL d   1      26.859 -16.395  -1.147  0.00  0.00     0.037 A 
ENDBRANCH   9  11
ENDBRANCH   6   7
ENDBRANCH   5   6
ENDBRANCH   2   5
BRANCH   1  19
ATOM     19  N   UNL d   1      30.445 -14.355   3.942  0.00  0.00    -0.263 N 
ATOM     20  C   UNL d   1      29.212 -14.385   4.588  0.00  0.00     0.270 C 
ATOM     21  O   UNL d   1      28.196 -14.806   4.028  0.00  0.00    -0.266 OA
ATOM     22  H   UNL d   1      31.307 -14.021   4.363  0.00  0.00     0.190 HD
BRANCH  20  23
ATOM     23  C   UNL d   1      29.137 -13.886   6.017  0.00  0.00     0.033 A 
ATOM     24  C   UNL d   1      28.276 -12.818   6.339  0.00  0.00     0.017 A 
ATOM     25  C   UNL d   1      28.163 -12.341   7.659  0.00  0.00     0.007 A 
ATOM     26  C   UNL d   1      28.908 -12.921   8.691  0.00  0.00    -0.062 A 
ATOM     27  C   UNL d   1      28.793 -12.447  10.112  0.00  0.00     0.048 C 
ATOM     28  C   UNL d   1      29.772 -13.974   8.374  0.00  0.00     0.007 A 
ATOM     29  C   UNL d   1      29.887 -14.450   7.058  0.00  0.00     0.017 A 
ENDBRANCH  20  23
ENDBRANCH   1  19
TORSDOF 6
ENDMDL
MODEL 6
REMARK VINA RESULT:    -7.662      5.226      8.203
REMARK INTER + INTRA:         -11.262
REMARK INTER:                  -9.452
REMARK INTRA:                  -1.810
REMARK CONF_INDEPENDENT:        1.790
REMARK UNBOUND:                -1.810
REMARK  6 active torsions:
REMARK  status: ('A' for Active; 'I' for Inactive)
REMARK    1  A    between atoms: C_5  and  C_6 
REMARK       I    between atoms: C_6  and  N_8 
REMARK    2  A    between atoms: N_8  and  N_9 
REMARK       I    between atoms: N_9  and  C_10 
REMARK    3  A    between atoms: C_10  and  C_12 
REMARK    4  A    between atoms: C_12  and  C_13 
REMARK    5  A    between atoms: C_13  and  C_14 
REMARK       I    between atoms: C_14  and  N_16 
REMARK    6  A    between atoms: N_16  and  C_17 
ROOT
ATOM      1  N   UNL d   1      26.457 -14.271  -3.151  0.00  0.00    -0.267 N 
ATOM      2  C   UNL d   1      26.118 -13.339  -4.128  0.00  0.00     0.236 C 
ATOM      3  O   UNL d   1      24.969 -13.247  -4.562  0.00  0.00    -0.272 OA
ATOM      4  H   UNL d   1      27.387 -14.391  -2.753  0.00  0.00     0.190 HD
ENDROOT
BRANCH   2   5
ATOM      5  C   UNL d   1      27.252 -12.440  -4.624  0.00  0.00     0.114 C 
BRANCH   5   6
ATOM      6  C   UNL d   1      27.853 -12.894  -5.984  0.00  0.00     0.112 C 
BRANCH   6   7
ATOM      7  C   UNL d   1      28.181 -14.389  -5.976  0.00  0.00     0.222 C 
ATOM      8  O   UNL d   1      27.281 -15.215  -6.135  0.00  0.00    -0.273 OA
ATOM      9  N   UNL d   1      29.517 -14.731  -5.741  0.00  0.00    -0.327 N 
ATOM     10  H   UNL d   1      30.147 -14.034  -5.364  0.00  0.00     0.169 HD
BRANCH   9  11
ATOM     11  C   UNL d   1      29.943 -16.093  -5.699  0.00  0.00     0.035 A 
ATOM     12  C   UNL d   1      29.944 -16.789  -4.490  0.00  0.00     0.030 A 
ATOM     13  C   UNL d   1      30.406 -18.103  -4.412  0.00  0.00     0.009 A 
ATOM     14  C   UNL d   1      30.897 -18.762  -5.544  0.00  0.00    -0.056 A 
ATOM     15  C   UNL d   1      31.435 -20.161  -5.394  0.00  0.00     0.049 C 
ATOM     16  C   UNL d   1      30.885 -18.088  -6.782  0.00  0.00    -0.054 A 
ATOM     17  C   UNL d   1      31.436 -18.737  -8.028  0.00  0.00     0.049 C 
ATOM     18  C   UNL d   1      30.376 -16.763  -6.854  0.00  0.00     0.037 A 
ENDBRANCH   9  11
ENDBRANCH   6   7
ENDBRANCH   5   6
ENDBRANCH   2   5
BRANCH   1  19
ATOM     19  N   UNL d   1      25.436 -15.137  -2.656  0.00  0.00    -0.263 N 
ATOM     20  C   UNL d   1      25.664 -15.957  -1.553  0.00  0.00     0.270 C 
ATOM     21  O   UNL d   1      26.749 -15.967  -0.965  0.00  0.00    -0.266 OA
ATOM     22  H   UNL d   1      24.560 -15.092  -3.169  0.00  0.00     0.190 HD
BRANCH  20  23
ATOM     23  C   UNL d   1      24.536 -16.849  -1.076  0.00  0.00     0.033 A 
ATOM     24  C   UNL d   1      23.234 -16.323  -0.950  0.00  0.00     0.017 A 
ATOM     25  C   UNL d   1      22.157 -17.127  -0.529  0.00  0.00     0.007 A 
ATOM     26  C   UNL d   1      22.354 -18.477  -0.225  0.00  0.00    -0.062 A 
ATOM     27  C   UNL d   1      21.220 -19.364   0.205  0.00  0.00     0.048 C 
ATOM     28  C   UNL d   1      23.646 -19.001  -0.338  0.00  0.00     0.007 A 
ATOM     29  C   UNL d   1      24.722 -18.201  -0.756  0.00  0.00     0.017 A 
ENDBRANCH  20  23
ENDBRANCH   1  19
TORSDOF 6
ENDMDL
MODEL 7
REMARK VINA RESULT:    -7.567      6.026      9.356
REMARK INTER + INTRA:         -11.189
REMARK INTER:                  -9.357
REMARK INTRA:                  -1.832
REMARK CONF_INDEPENDENT:        1.790
REMARK UNBOUND:                -1.832
REMARK  6 active torsions:
REMARK  status: ('A' for Active; 'I' for Inactive)
REMARK    1  A    between atoms: C_5  and  C_6 
REMARK       I    between atoms: C_6  and  N_8 
REMARK    2  A    between atoms: N_8  and  N_9 
REMARK       I    between atoms: N_9  and  C_10 
REMARK    3  A    between atoms: C_10  and  C_12 
REMARK    4  A    between atoms: C_12  and  C_13 
REMARK    5  A    between atoms: C_13  and  C_14 
REMARK       I    between atoms: C_14  and  N_16 
REMARK    6  A    between atoms: N_16  and  C_17 
ROOT
ATOM      1  N   UNL d   1      29.138 -14.325  -6.503  0.00  0.00    -0.267 N 
ATOM      2  C   UNL d   1      27.799 -14.220  -6.134  0.00  0.00     0.236 C 
ATOM      3  O   UNL d   1      27.055 -15.202  -6.121  0.00  0.00    -0.272 OA
ATOM      4  H   UNL d   1      29.800 -13.551  -6.530  0.00  0.00     0.190 HD
ENDROOT
BRANCH   2   5
ATOM      5  C   UNL d   1      27.314 -12.823  -5.745  0.00  0.00     0.114 C 
BRANCH   5   6
ATOM      6  C   UNL d   1      25.942 -12.824  -5.014  0.00  0.00     0.112 C 
BRANCH   6   7
ATOM      7  C   UNL d   1      26.028 -13.555  -3.672  0.00  0.00     0.222 C 
ATOM      8  O   UNL d   1      26.293 -12.926  -2.647  0.00  0.00    -0.273 OA
ATOM      9  N   UNL d   1      25.833 -14.940  -3.705  0.00  0.00    -0.327 N 
ATOM     10  H   UNL d   1      25.879 -15.425  -4.592  0.00  0.00     0.169 HD
BRANCH   9  11
ATOM     11  C   UNL d   1      25.899 -15.732  -2.519  0.00  0.00     0.035 A 
ATOM     12  C   UNL d   1      27.103 -15.851  -1.824  0.00  0.00     0.030 A 
ATOM     13  C   UNL d   1      27.208 -16.662  -0.693  0.00  0.00     0.009 A 
ATOM     14  C   UNL d   1      26.111 -17.393  -0.227  0.00  0.00    -0.056 A 
ATOM     15  C   UNL d   1      26.294 -18.296   0.965  0.00  0.00     0.049 C 
ATOM     16  C   UNL d   1      24.878 -17.272  -0.898  0.00  0.00    -0.054 A 
ATOM     17  C   UNL d   1      23.671 -18.065  -0.461  0.00  0.00     0.049 C 
ATOM     18  C   UNL d   1      24.775 -16.413  -2.026  0.00  0.00     0.037 A 
ENDBRANCH   9  11
ENDBRANCH   6   7
ENDBRANCH   5   6
ENDBRANCH   2   5
BRANCH   1  19
ATOM     19  N   UNL d   1      29.641 -15.607  -6.878  0.00  0.00    -0.263 N 
ATOM     20  C   UNL d   1      29.980 -16.554  -5.915  0.00  0.00     0.270 C 
ATOM     21  O   UNL d   1      29.859 -16.324  -4.708  0.00  0.00    -0.266 OA
ATOM     22  H   UNL d   1      29.720 -15.752  -7.880  0.00  0.00     0.190 HD
BRANCH  20  23
ATOM     23  C   UNL d   1      30.505 -17.897  -6.380  0.00  0.00     0.033 A 
ATOM     24  C   UNL d   1      30.405 -19.017  -5.531  0.00  0.00     0.017 A 
ATOM     25  C   UNL d   1      30.863 -20.286  -5.936  0.00  0.00     0.007 A 
ATOM     26  C   UNL d   1      31.431 -20.466  -7.201  0.00  0.00    -0.062 A 
ATOM     27  C   UNL d   1      31.908 -21.812  -7.669  0.00  0.00     0.048 C 
ATOM     28  C   UNL d   1      31.542 -19.355  -8.043  0.00  0.00     0.007 A 
ATOM     29  C   UNL d   1      31.087 -18.089  -7.640  0.00  0.00     0.017 A 
ENDBRANCH  20  23
ENDBRANCH   1  19
TORSDOF 6
ENDMDL
MODEL 8
REMARK VINA RESULT:    -7.269      5.745      8.823
REMARK INTER + INTRA:         -11.266
REMARK INTER:                  -9.058
REMARK INTRA:                  -2.208
REMARK CONF_INDEPENDENT:        1.790
REMARK UNBOUND:                -2.208
REMARK  6 active torsions:
REMARK  status: ('A' for Active; 'I' for Inactive)
REMARK    1  A    between atoms: C_5  and  C_6 
REMARK       I    between atoms: C_6  and  N_8 
REMARK    2  A    between atoms: N_8  and  N_9 
REMARK       I    between atoms: N_9  and  C_10 
REMARK    3  A    between atoms: C_10  and  C_12 
REMARK    4  A    between atoms: C_12  and  C_13 
REMARK    5  A    between atoms: C_13  and  C_14 
REMARK       I    between atoms: C_14  and  N_16 
REMARK    6  A    between atoms: N_16  and  C_17 
ROOT
ATOM      1  N   UNL d   1      27.353 -15.125  -3.119  0.00  0.00    -0.267 N 
ATOM      2  C   UNL d   1      27.631 -15.016  -4.479  0.00  0.00     0.236 C 
ATOM      3  O   UNL d   1      26.934 -15.575  -5.328  0.00  0.00    -0.272 OA
ATOM      4  H   UNL d   1      27.889 -14.685  -2.374  0.00  0.00     0.190 HD
ENDROOT
BRANCH   2   5
ATOM      5  C   UNL d   1      28.845 -14.164  -4.852  0.00  0.00     0.114 C 
BRANCH   5   6
ATOM      6  C   UNL d   1      29.258 -14.294  -6.345  0.00  0.00     0.112 C 
BRANCH   6   7
ATOM      7  C   UNL d   1      30.084 -15.560  -6.586  0.00  0.00     0.222 C 
ATOM      8  O   UNL d   1      31.043 -15.529  -7.358  0.00  0.00    -0.273 OA
ATOM      9  N   UNL d   1      29.657 -16.716  -5.923  0.00  0.00    -0.327 N 
ATOM     10  H   UNL d   1      28.729 -16.740  -5.520  0.00  0.00     0.169 HD
BRANCH   9  11
ATOM     11  C   UNL d   1      30.339 -17.960  -6.077  0.00  0.00     0.035 A 
ATOM     12  C   UNL d   1      30.783 -18.363  -7.336  0.00  0.00     0.030 A 
ATOM     13  C   UNL d   1      31.405 -19.598  -7.524  0.00  0.00     0.009 A 
ATOM     14  C   UNL d   1      31.591 -20.480  -6.454  0.00  0.00    -0.056 A 
ATOM     15  C   UNL d   1      32.217 -21.824  -6.721  0.00  0.00     0.049 C 
ATOM     16  C   UNL d   1      31.171 -20.087  -5.167  0.00  0.00    -0.054 A 
ATOM     17  C   UNL d   1      31.314 -21.012  -3.984  0.00  0.00     0.049 C 
ATOM     18  C   UNL d   1      30.574 -18.810  -4.985  0.00  0.00     0.037 A 
ENDBRANCH   9  11
ENDBRANCH   6   7
ENDBRANCH   5   6
ENDBRANCH   2   5
BRANCH   1  19
ATOM     19  N   UNL d   1      26.232 -15.912  -2.717  0.00  0.00    -0.263 N 
ATOM     20  C   UNL d   1      25.873 -16.017  -1.375  0.00  0.00     0.270 C 
ATOM     21  O   UNL d   1      26.506 -15.437  -0.487  0.00  0.00    -0.266 OA
ATOM     22  H   UNL d   1      25.740 -16.367  -3.481  0.00  0.00     0.190 HD
BRANCH  20  23
ATOM     23  C   UNL d   1      24.670 -16.865  -1.016  0.00  0.00     0.033 A 
ATOM     24  C   UNL d   1      23.374 -16.325  -1.138  0.00  0.00     0.017 A 
ATOM     25  C   UNL d   1      22.231 -17.089  -0.834  0.00  0.00     0.007 A 
ATOM     26  C   UNL d   1      22.355 -18.413  -0.400  0.00  0.00    -0.062 A 
ATOM     27  C   UNL d   1      21.153 -19.259  -0.089  0.00  0.00     0.048 C 
ATOM     28  C   UNL d   1      23.640 -18.949  -0.267  0.00  0.00     0.007 A 
ATOM     29  C   UNL d   1      24.781 -18.189  -0.570  0.00  0.00     0.017 A 
ENDBRANCH  20  23
ENDBRANCH   1  19
TORSDOF 6
ENDMDL
MODEL 9
REMARK VINA RESULT:    -6.391      5.764      8.916
REMARK INTER + INTRA:         -11.287
REMARK INTER:                  -8.181
REMARK INTRA:                  -3.106
REMARK CONF_INDEPENDENT:        1.790
REMARK UNBOUND:                -3.106
REMARK  6 active torsions:
REMARK  status: ('A' for Active; 'I' for Inactive)
REMARK    1  A    between atoms: C_5  and  C_6 
REMARK       I    between atoms: C_6  and  N_8 
REMARK    2  A    between atoms: N_8  and  N_9 
REMARK       I    between atoms: N_9  and  C_10 
REMARK    3  A    between atoms: C_10  and  C_12 
REMARK    4  A    between atoms: C_12  and  C_13 
REMARK    5  A    between atoms: C_13  and  C_14 
REMARK       I    between atoms: C_14  and  N_16 
REMARK    6  A    between atoms: N_16  and  C_17 
ROOT
ATOM      1  N   UNL d   1      25.220 -11.557  -3.865  0.00  0.00    -0.267 N 
ATOM      2  C   UNL d   1      25.530 -10.247  -3.511  0.00  0.00     0.236 C 
ATOM      3  O   UNL d   1      26.075  -9.979  -2.439  0.00  0.00    -0.272 OA
ATOM      4  H   UNL d   1      24.774 -11.839  -4.736  0.00  0.00     0.190 HD
ENDROOT
BRANCH   2   5
ATOM      5  C   UNL d   1      25.158  -9.167  -4.528  0.00  0.00     0.114 C 
BRANCH   5   6
ATOM      6  C   UNL d   1      26.023  -9.207  -5.819  0.00  0.00     0.112 C 
BRANCH   6   7
ATOM      7  C   UNL d   1      26.526 -10.623  -6.109  0.00  0.00     0.222 C 
ATOM      8  O   UNL d   1      25.770 -11.450  -6.621  0.00  0.00    -0.273 OA
ATOM      9  N   UNL d   1      27.841 -10.907  -5.724  0.00  0.00    -0.327 N 
ATOM     10  H   UNL d   1      28.315 -10.282  -5.084  0.00  0.00     0.169 HD
BRANCH   9  11
ATOM     11  C   UNL d   1      28.418 -12.196  -5.932  0.00  0.00     0.035 A 
ATOM     12  C   UNL d   1      29.182 -12.445  -7.072  0.00  0.00     0.030 A 
ATOM     13  C   UNL d   1      29.712 -13.710  -7.327  0.00  0.00     0.009 A 
ATOM     14  C   UNL d   1      29.482 -14.776  -6.451  0.00  0.00    -0.056 A 
ATOM     15  C   UNL d   1      30.030 -16.135  -6.801  0.00  0.00     0.049 C 
ATOM     16  C   UNL d   1      28.732 -14.545  -5.280  0.00  0.00    -0.054 A 
ATOM     17  C   UNL d   1      28.422 -15.666  -4.319  0.00  0.00     0.049 C 
ATOM     18  C   UNL d   1      28.230 -13.242  -5.015  0.00  0.00     0.037 A 
ENDBRANCH   9  11
ENDBRANCH   6   7
ENDBRANCH   5   6
ENDBRANCH   2   5
BRANCH   1  19
ATOM     19  N   UNL d   1      25.544 -12.603  -2.949  0.00  0.00    -0.263 N 
ATOM     20  C   UNL d   1      25.243 -13.931  -3.241  0.00  0.00     0.270 C 
ATOM     21  O   UNL d   1      24.690 -14.254  -4.296  0.00  0.00    -0.266 OA
ATOM     22  H   UNL d   1      26.001 -12.290  -2.097  0.00  0.00     0.190 HD
BRANCH  20  23
ATOM     23  C   UNL d   1      25.618 -14.993  -2.226  0.00  0.00     0.033 A 
ATOM     24  C   UNL d   1      24.762 -16.094  -2.021  0.00  0.00     0.017 A 
ATOM     25  C   UNL d   1      25.086 -17.111  -1.103  0.00  0.00     0.007 A 
ATOM     26  C   UNL d   1      26.274 -17.053  -0.367  0.00  0.00    -0.062 A 
ATOM     27  C   UNL d   1      26.656 -18.135   0.604  0.00  0.00     0.048 C 
ATOM     28  C   UNL d   1      27.120 -15.957  -0.559  0.00  0.00     0.007 A 
ATOM     29  C   UNL d   1      26.799 -14.941  -1.474  0.00  0.00     0.017 A 
ENDBRANCH  20  23
ENDBRANCH   1  19
TORSDOF 6
ENDMDL
