MODEL 1
REMARK VINA RESULT:    -8.666      0.000      0.000
REMARK INTER + INTRA:         -15.669
REMARK INTER:                 -11.649
REMARK INTRA:                  -4.020
REMARK CONF_INDEPENDENT:        2.983
REMARK UNBOUND:                -4.020
REMARK  10 active torsions:
REMARK  status: ('A' for Active; 'I' for Inactive)
REMARK    1  A    between atoms: C_7  and  N_8 
REMARK       I    between atoms: N_8  and  C_9 
REMARK    2  A    between atoms: N_8  and  C_20 
REMARK    3  A    between atoms: C_9  and  C_11 
REMARK    4  A    between atoms: C_14  and  C_15 
REMARK       I    between atoms: C_15  and  N_16 
REMARK    5  A    between atoms: C_18  and  N_19 
REMARK    6  A    between atoms: C_20  and  C_21 
REMARK    7  A    between atoms: C_20  and  C_29 
REMARK       I    between atoms: C_21  and  N_23 
REMARK    8  A    between atoms: N_23  and  C_24 
REMARK    9  A    between atoms: C_24  and  C_25 
REMARK   10  A    between atoms: C_25  and  C_26 
ROOT
ATOM      1  N   UNL d   1      26.630 -13.839  -1.418  0.00  0.00    -0.295 N 
ATOM      2  C   UNL d   1      27.360 -14.392  -0.106  0.00  0.00     0.269 C 
ATOM      3  O   UNL d   1      27.635 -15.594  -0.021  0.00  0.00    -0.266 OA
ENDROOT
BRANCH   1   4
ATOM      4  C   UNL d   1      27.019 -12.534  -2.128  0.00  0.00     0.045 C 
ATOM      5  C   UNL d   1      28.357 -12.160  -2.319  0.00  0.00    -0.035 C 
ATOM      6  C   UNL d   1      28.810 -10.900  -2.680  0.00  0.00     0.009 C 
ATOM      7  C   UNL d   1      29.448 -13.009  -1.908  0.00  0.00     0.050 C 
ATOM      8  C   UNL d   1      27.975 -10.096  -3.364  0.00  0.00     0.007 C 
ATOM      9  C   UNL d   1      26.652 -10.491  -3.477  0.00  0.00    -0.060 C 
ATOM     10  C   UNL d   1      25.858  -9.736  -4.491  0.00  0.00     0.048 C 
ATOM     11  C   UNL d   1      26.144 -11.599  -2.714  0.00  0.00     0.037 C 
ENDBRANCH   1   4
BRANCH   1  12
ATOM     12  C   UNL d   1      25.673 -14.774  -2.364  0.00  0.00     0.218 C 
BRANCH  12  13
ATOM     13  C   UNL d   1      26.258 -15.210  -3.815  0.00  0.00     0.245 C 
ATOM     14  O   UNL d   1      25.530 -15.425  -4.789  0.00  0.00    -0.271 OA
ATOM     15  N   UNL d   1      27.623 -15.178  -4.041  0.00  0.00    -0.359 N 
ATOM     16  H   UNL d   1      28.286 -15.190  -3.304  0.00  0.00     0.162 HD
BRANCH  15  17
ATOM     17  C   UNL d   1      28.230 -15.574  -5.284  0.00  0.00     0.123 C 
BRANCH  17  18
ATOM     18  C   UNL d   1      29.174 -14.484  -5.806  0.00  0.00     0.023 C 
BRANCH  18  19
ATOM     19  C   UNL d   1      28.468 -13.475  -6.704  0.00  0.00    -0.021 C 
ATOM     20  C   UNL d   1      27.397 -12.748  -5.896  0.00  0.00     0.009 C 
ATOM     21  C   UNL d   1      29.457 -12.459  -7.278  0.00  0.00     0.009 C 
ENDBRANCH  18  19
ENDBRANCH  17  18
ENDBRANCH  15  17
ENDBRANCH  12  13
BRANCH  12  22
ATOM     22  C   UNL d   1      24.987 -16.011  -1.713  0.00  0.00    -0.026 C 
ATOM     23  C   UNL d   1      23.623 -15.981  -1.534  0.00  0.00     0.013 C 
ATOM     24  C   UNL d   1      22.907 -16.703  -0.602  0.00  0.00     0.043 C 
ATOM     25  C   UNL d   1      23.502 -17.833  -0.133  0.00  0.00     0.116 C 
ATOM     26  F   UNL d   1      22.769 -18.694   0.581  0.00  0.00    -0.206 F 
ATOM     27  C   UNL d   1      24.811 -18.130  -0.521  0.00  0.00     0.043 C 
ATOM     28  C   UNL d   1      25.579 -17.202  -1.272  0.00  0.00     0.013 C 
ENDBRANCH  12  22
ENDBRANCH   1  12
BRANCH   2  29
ATOM     29  C   UNL d   1      27.836 -13.576   1.116  0.00  0.00     0.115 C 
ATOM     30  S   UNL d   1      26.690 -12.356   1.701  0.00  0.00     0.019 SA
ATOM     31  N   UNL d   1      27.040 -12.529   3.321  0.00  0.00    -0.203 NA
ATOM     32  C   UNL d   1      28.120 -13.306   3.448  0.00  0.00     0.155 C 
ATOM     33  C   UNL d   1      28.713 -13.810   2.186  0.00  0.00     0.065 C 
BRANCH  32  34
ATOM     34  C   UNL d   1      28.513 -13.858   4.774  0.00  0.00     0.270 C 
ATOM     35  N   UNL d   1      28.813 -15.204   4.808  0.00  0.00    -0.365 N 
ATOM     36  H   UNL d   1      28.796 -15.771   3.977  0.00  0.00     0.159 HD
ATOM     37  H   UNL d   1      28.900 -15.617   5.725  0.00  0.00     0.159 HD
ATOM     38  O   UNL d   1      28.622 -13.194   5.769  0.00  0.00    -0.266 OA
ENDBRANCH  32  34
BRANCH  33  39
ATOM     39  N   UNL d   1      29.635 -14.823   2.200  0.00  0.00    -0.299 NA
ATOM     40  H   UNL d   1      29.843 -15.196   3.143  0.00  0.00     0.124 HD
ATOM     41  H   UNL d   1      29.466 -15.631   1.606  0.00  0.00     0.124 HD
ENDBRANCH  33  39
ENDBRANCH   2  29
TORSDOF 10
ENDMDL
MODEL 2
REMARK VINA RESULT:    -8.571      2.683      5.320
REMARK INTER + INTRA:         -15.854
REMARK INTER:                 -11.554
REMARK INTRA:                  -4.300
REMARK CONF_INDEPENDENT:        2.983
REMARK UNBOUND:                -4.300
REMARK  10 active torsions:
REMARK  status: ('A' for Active; 'I' for Inactive)
REMARK    1  A    between atoms: C_7  and  N_8 
REMARK       I    between atoms: N_8  and  C_9 
REMARK    2  A    between atoms: N_8  and  C_20 
REMARK    3  A    between atoms: C_9  and  C_11 
REMARK    4  A    between atoms: C_14  and  C_15 
REMARK       I    between atoms: C_15  and  N_16 
REMARK    5  A    between atoms: C_18  and  N_19 
REMARK    6  A    between atoms: C_20  and  C_21 
REMARK    7  A    between atoms: C_20  and  C_29 
REMARK       I    between atoms: C_21  and  N_23 
REMARK    8  A    between atoms: N_23  and  C_24 
REMARK    9  A    between atoms: C_24  and  C_25 
REMARK   10  A    between atoms: C_25  and  C_26 
ROOT
ATOM      1  N   UNL d   1      26.932 -15.453  -1.738  0.00  0.00    -0.295 N 
ATOM      2  C   UNL d   1      27.809 -14.479  -0.821  0.00  0.00     0.269 C 
ATOM      3  O   UNL d   1      27.981 -13.305  -1.167  0.00  0.00    -0.266 OA
ENDROOT
BRANCH   1   4
ATOM      4  C   UNL d   1      25.886 -16.436  -1.189  0.00  0.00     0.045 C 
ATOM      5  C   UNL d   1      26.232 -17.483  -0.323  0.00  0.00    -0.035 C 
ATOM      6  C   UNL d   1      25.439 -18.575  -0.004  0.00  0.00     0.009 C 
ATOM      7  C   UNL d   1      27.583 -17.665   0.148  0.00  0.00     0.050 C 
ATOM      8  C   UNL d   1      24.103 -18.441  -0.102  0.00  0.00     0.007 C 
ATOM      9  C   UNL d   1      23.616 -17.299  -0.716  0.00  0.00    -0.060 C 
ATOM     10  C   UNL d   1      22.155 -17.058  -0.520  0.00  0.00     0.048 C 
ATOM     11  C   UNL d   1      24.497 -16.401  -1.412  0.00  0.00     0.037 C 
ENDBRANCH   1   4
BRANCH   1  12
ATOM     12  C   UNL d   1      26.764 -15.241  -3.355  0.00  0.00     0.218 C 
BRANCH  12  13
ATOM     13  C   UNL d   1      25.901 -13.958  -3.852  0.00  0.00     0.245 C 
ATOM     14  O   UNL d   1      24.866 -14.069  -4.515  0.00  0.00    -0.271 OA
ATOM     15  N   UNL d   1      26.221 -12.696  -3.384  0.00  0.00    -0.359 N 
ATOM     16  H   UNL d   1      27.108 -12.477  -3.000  0.00  0.00     0.162 HD
BRANCH  15  17
ATOM     17  C   UNL d   1      25.530 -11.501  -3.791  0.00  0.00     0.123 C 
BRANCH  17  18
ATOM     18  C   UNL d   1      26.409 -10.645  -4.711  0.00  0.00     0.023 C 
BRANCH  18  19
ATOM     19  C   UNL d   1      26.859 -11.396  -5.960  0.00  0.00    -0.021 C 
ATOM     20  C   UNL d   1      26.279 -10.709  -7.193  0.00  0.00     0.009 C 
ATOM     21  C   UNL d   1      28.385 -11.434  -6.061  0.00  0.00     0.009 C 
ENDBRANCH  18  19
ENDBRANCH  17  18
ENDBRANCH  15  17
ENDBRANCH  12  13
BRANCH  12  22
ATOM     22  C   UNL d   1      28.038 -15.358  -4.243  0.00  0.00    -0.026 C 
ATOM     23  C   UNL d   1      28.082 -14.640  -5.417  0.00  0.00     0.013 C 
ATOM     24  C   UNL d   1      28.844 -14.939  -6.527  0.00  0.00     0.043 C 
ATOM     25  C   UNL d   1      29.940 -15.716  -6.310  0.00  0.00     0.116 C 
ATOM     26  F   UNL d   1      30.841 -15.840  -7.290  0.00  0.00    -0.206 F 
ATOM     27  C   UNL d   1      30.165 -16.244  -5.037  0.00  0.00     0.043 C 
ATOM     28  C   UNL d   1      29.195 -16.112  -4.009  0.00  0.00     0.013 C 
ENDBRANCH  12  22
ENDBRANCH   1  12
BRANCH   2  29
ATOM     29  C   UNL d   1      28.468 -14.811   0.536  0.00  0.00     0.115 C 
ATOM     30  S   UNL d   1      30.099 -15.495   0.435  0.00  0.00     0.019 SA
ATOM     31  N   UNL d   1      30.700 -14.755   1.802  0.00  0.00    -0.203 NA
ATOM     32  C   UNL d   1      29.689 -14.179   2.459  0.00  0.00     0.155 C 
ATOM     33  C   UNL d   1      28.347 -14.319   1.845  0.00  0.00     0.065 C 
BRANCH  32  34
ATOM     34  C   UNL d   1      29.947 -13.219   3.568  0.00  0.00     0.270 C 
ATOM     35  N   UNL d   1      31.152 -13.359   4.226  0.00  0.00    -0.365 N 
ATOM     36  H   UNL d   1      31.828 -14.051   3.950  0.00  0.00     0.159 HD
ATOM     37  H   UNL d   1      31.252 -12.838   5.085  0.00  0.00     0.159 HD
ATOM     38  O   UNL d   1      29.199 -12.330   3.872  0.00  0.00    -0.266 OA
ENDBRANCH  32  34
BRANCH  33  39
ATOM     39  N   UNL d   1      27.297 -13.548   2.269  0.00  0.00    -0.299 NA
ATOM     40  H   UNL d   1      27.577 -12.696   2.788  0.00  0.00     0.124 HD
ATOM     41  H   UNL d   1      26.615 -13.248   1.577  0.00  0.00     0.124 HD
ENDBRANCH  33  39
ENDBRANCH   2  29
TORSDOF 10
ENDMDL
MODEL 3
REMARK VINA RESULT:    -8.381      2.760      5.096
REMARK INTER + INTRA:         -15.862
REMARK INTER:                 -11.364
REMARK INTRA:                  -4.498
REMARK CONF_INDEPENDENT:        2.983
REMARK UNBOUND:                -4.498
REMARK  10 active torsions:
REMARK  status: ('A' for Active; 'I' for Inactive)
REMARK    1  A    between atoms: C_7  and  N_8 
REMARK       I    between atoms: N_8  and  C_9 
REMARK    2  A    between atoms: N_8  and  C_20 
REMARK    3  A    between atoms: C_9  and  C_11 
REMARK    4  A    between atoms: C_14  and  C_15 
REMARK       I    between atoms: C_15  and  N_16 
REMARK    5  A    between atoms: C_18  and  N_19 
REMARK    6  A    between atoms: C_20  and  C_21 
REMARK    7  A    between atoms: C_20  and  C_29 
REMARK       I    between atoms: C_21  and  N_23 
REMARK    8  A    between atoms: N_23  and  C_24 
REMARK    9  A    between atoms: C_24  and  C_25 
REMARK   10  A    between atoms: C_25  and  C_26 
ROOT
ATOM      1  N   UNL d   1      27.484 -15.410  -1.621  0.00  0.00    -0.295 N 
ATOM      2  C   UNL d   1      27.944 -13.959  -1.131  0.00  0.00     0.269 C 
ATOM      3  O   UNL d   1      28.234 -13.095  -1.966  0.00  0.00    -0.266 OA
ENDROOT
BRANCH   1   4
ATOM      4  C   UNL d   1      26.308 -16.188  -1.011  0.00  0.00     0.045 C 
ATOM      5  C   UNL d   1      26.489 -17.123   0.019  0.00  0.00    -0.035 C 
ATOM      6  C   UNL d   1      25.564 -18.069   0.435  0.00  0.00     0.009 C 
ATOM      7  C   UNL d   1      27.784 -17.367   0.605  0.00  0.00     0.050 C 
ATOM      8  C   UNL d   1      24.259 -17.817   0.226  0.00  0.00     0.007 C 
ATOM      9  C   UNL d   1      23.935 -16.737  -0.578  0.00  0.00    -0.060 C 
ATOM     10  C   UNL d   1      22.500 -16.323  -0.522  0.00  0.00     0.048 C 
ATOM     11  C   UNL d   1      24.945 -16.047  -1.333  0.00  0.00     0.037 C 
ENDBRANCH   1   4
BRANCH   1  12
ATOM     12  C   UNL d   1      27.947 -16.052  -3.056  0.00  0.00     0.218 C 
BRANCH  12  13
ATOM     13  C   UNL d   1      27.630 -15.189  -4.395  0.00  0.00     0.245 C 
ATOM     14  O   UNL d   1      26.840 -15.574  -5.263  0.00  0.00    -0.271 OA
ATOM     15  N   UNL d   1      28.115 -13.898  -4.508  0.00  0.00    -0.359 N 
ATOM     16  H   UNL d   1      28.878 -13.566  -3.970  0.00  0.00     0.162 HD
BRANCH  15  17
ATOM     17  C   UNL d   1      27.907 -13.073  -5.668  0.00  0.00     0.123 C 
BRANCH  17  18
ATOM     18  C   UNL d   1      26.601 -12.279  -5.551  0.00  0.00     0.023 C 
BRANCH  18  19
ATOM     19  C   UNL d   1      25.987 -12.359  -4.157  0.00  0.00    -0.021 C 
ATOM     20  C   UNL d   1      25.530 -10.967  -3.731  0.00  0.00     0.009 C 
ATOM     21  C   UNL d   1      24.798 -13.321  -4.131  0.00  0.00     0.009 C 
ENDBRANCH  18  19
ENDBRANCH  17  18
ENDBRANCH  15  17
ENDBRANCH  12  13
BRANCH  12  22
ATOM     22  C   UNL d   1      29.389 -16.630  -3.168  0.00  0.00    -0.026 C 
ATOM     23  C   UNL d   1      30.068 -16.462  -4.352  0.00  0.00     0.013 C 
ATOM     24  C   UNL d   1      31.097 -17.252  -4.821  0.00  0.00     0.043 C 
ATOM     25  C   UNL d   1      31.783 -17.962  -3.884  0.00  0.00     0.116 C 
ATOM     26  F   UNL d   1      32.929 -18.551  -4.240  0.00  0.00    -0.206 F 
ATOM     27  C   UNL d   1      31.351 -17.940  -2.556  0.00  0.00     0.043 C 
ATOM     28  C   UNL d   1      30.128 -17.317  -2.195  0.00  0.00     0.013 C 
ENDBRANCH  12  22
ENDBRANCH   1  12
BRANCH   2  29
ATOM     29  C   UNL d   1      28.034 -13.446   0.323  0.00  0.00     0.115 C 
ATOM     30  S   UNL d   1      26.654 -12.474   0.866  0.00  0.00     0.019 SA
ATOM     31  N   UNL d   1      26.644 -13.023   2.441  0.00  0.00    -0.203 NA
ATOM     32  C   UNL d   1      27.748 -13.746   2.651  0.00  0.00     0.155 C 
ATOM     33  C   UNL d   1      28.666 -13.888   1.496  0.00  0.00     0.065 C 
BRANCH  32  34
ATOM     34  C   UNL d   1      27.890 -14.586   3.873  0.00  0.00     0.270 C 
ATOM     35  N   UNL d   1      29.113 -15.200   4.051  0.00  0.00    -0.365 N 
ATOM     36  H   UNL d   1      29.873 -15.061   3.407  0.00  0.00     0.159 HD
ATOM     37  H   UNL d   1      29.154 -15.908   4.769  0.00  0.00     0.159 HD
ATOM     38  O   UNL d   1      27.031 -14.710   4.703  0.00  0.00    -0.266 OA
ENDBRANCH  32  34
BRANCH  33  39
ATOM     39  N   UNL d   1      29.670 -14.820   1.507  0.00  0.00    -0.299 NA
ATOM     40  H   UNL d   1      30.473 -14.573   2.113  0.00  0.00     0.124 HD
ATOM     41  H   UNL d   1      29.427 -15.781   1.735  0.00  0.00     0.124 HD
ENDBRANCH  33  39
ENDBRANCH   2  29
TORSDOF 10
ENDMDL
MODEL 4
REMARK VINA RESULT:    -8.331      2.743      5.394
REMARK INTER + INTRA:         -15.701
REMARK INTER:                 -11.314
REMARK INTRA:                  -4.387
REMARK CONF_INDEPENDENT:        2.983
REMARK UNBOUND:                -4.387
REMARK  10 active torsions:
REMARK  status: ('A' for Active; 'I' for Inactive)
REMARK    1  A    between atoms: C_7  and  N_8 
REMARK       I    between atoms: N_8  and  C_9 
REMARK    2  A    between atoms: N_8  and  C_20 
REMARK    3  A    between atoms: C_9  and  C_11 
REMARK    4  A    between atoms: C_14  and  C_15 
REMARK       I    between atoms: C_15  and  N_16 
REMARK    5  A    between atoms: C_18  and  N_19 
REMARK    6  A    between atoms: C_20  and  C_21 
REMARK    7  A    between atoms: C_20  and  C_29 
REMARK       I    between atoms: C_21  and  N_23 
REMARK    8  A    between atoms: N_23  and  C_24 
REMARK    9  A    between atoms: C_24  and  C_25 
REMARK   10  A    between atoms: C_25  and  C_26 
ROOT
ATOM      1  N   UNL d   1      26.978 -14.987  -1.873  0.00  0.00    -0.295 N 
ATOM      2  C   UNL d   1      27.327 -13.546  -1.272  0.00  0.00     0.269 C 
ATOM      3  O   UNL d   1      27.122 -12.534  -1.951  0.00  0.00    -0.266 OA
ENDROOT
BRANCH   1   4
ATOM      4  C   UNL d   1      26.279 -16.101  -1.080  0.00  0.00     0.045 C 
ATOM      5  C   UNL d   1      26.954 -16.861  -0.114  0.00  0.00    -0.035 C 
ATOM      6  C   UNL d   1      26.512 -18.053   0.442  0.00  0.00     0.009 C 
ATOM      7  C   UNL d   1      28.331 -16.605   0.230  0.00  0.00     0.050 C 
ATOM      8  C   UNL d   1      25.187 -18.288   0.471  0.00  0.00     0.007 C 
ATOM      9  C   UNL d   1      24.368 -17.431  -0.244  0.00  0.00    -0.060 C 
ATOM     10  C   UNL d   1      22.912 -17.549   0.072  0.00  0.00     0.048 C 
ATOM     11  C   UNL d   1      24.921 -16.465  -1.153  0.00  0.00     0.037 C 
ENDBRANCH   1   4
BRANCH   1  12
ATOM     12  C   UNL d   1      26.963 -15.299  -3.483  0.00  0.00     0.218 C 
BRANCH  12  13
ATOM     13  C   UNL d   1      26.048 -14.338  -4.419  0.00  0.00     0.245 C 
ATOM     14  O   UNL d   1      25.049 -14.749  -5.018  0.00  0.00    -0.271 OA
ATOM     15  N   UNL d   1      26.273 -12.973  -4.426  0.00  0.00    -0.359 N 
ATOM     16  H   UNL d   1      27.130 -12.572  -4.130  0.00  0.00     0.162 HD
BRANCH  15  17
ATOM     17  C   UNL d   1      25.531 -12.052  -5.246  0.00  0.00     0.123 C 
BRANCH  17  18
ATOM     18  C   UNL d   1      26.388 -10.839  -5.623  0.00  0.00     0.023 C 
BRANCH  18  19
ATOM     19  C   UNL d   1      26.078  -9.611  -4.773  0.00  0.00    -0.021 C 
ATOM     20  C   UNL d   1      24.838  -8.917  -5.330  0.00  0.00     0.009 C 
ATOM     21  C   UNL d   1      25.840  -9.997  -3.312  0.00  0.00     0.009 C 
ENDBRANCH  18  19
ENDBRANCH  17  18
ENDBRANCH  15  17
ENDBRANCH  12  13
BRANCH  12  22
ATOM     22  C   UNL d   1      28.330 -15.531  -4.194  0.00  0.00    -0.026 C 
ATOM     23  C   UNL d   1      28.532 -14.946  -5.423  0.00  0.00     0.013 C 
ATOM     24  C   UNL d   1      29.411 -15.376  -6.395  0.00  0.00     0.043 C 
ATOM     25  C   UNL d   1      30.451 -16.141  -5.967  0.00  0.00     0.116 C 
ATOM     26  F   UNL d   1      31.458 -16.385  -6.813  0.00  0.00    -0.206 F 
ATOM     27  C   UNL d   1      30.509 -16.532  -4.627  0.00  0.00     0.043 C 
ATOM     28  C   UNL d   1      29.429 -16.273  -3.743  0.00  0.00     0.013 C 
ENDBRANCH  12  22
ENDBRANCH   1  12
BRANCH   2  29
ATOM     29  C   UNL d   1      27.873 -13.227   0.137  0.00  0.00     0.115 C 
ATOM     30  S   UNL d   1      26.958 -13.936   1.479  0.00  0.00     0.019 SA
ATOM     31  N   UNL d   1      28.269 -14.238   2.464  0.00  0.00    -0.203 NA
ATOM     32  C   UNL d   1      29.347 -13.650   1.937  0.00  0.00     0.155 C 
ATOM     33  C   UNL d   1      29.135 -12.916   0.667  0.00  0.00     0.065 C 
BRANCH  32  34
ATOM     34  C   UNL d   1      30.712 -13.964   2.443  0.00  0.00     0.270 C 
ATOM     35  N   UNL d   1      30.779 -14.822   3.522  0.00  0.00    -0.365 N 
ATOM     36  H   UNL d   1      29.953 -15.234   3.923  0.00  0.00     0.159 HD
ATOM     37  H   UNL d   1      31.676 -14.892   3.979  0.00  0.00     0.159 HD
ATOM     38  O   UNL d   1      31.722 -13.555   1.940  0.00  0.00    -0.266 OA
ENDBRANCH  32  34
BRANCH  33  39
ATOM     39  N   UNL d   1      30.199 -12.517  -0.099  0.00  0.00    -0.299 NA
ATOM     40  H   UNL d   1      30.008 -11.692  -0.695  0.00  0.00     0.124 HD
ATOM     41  H   UNL d   1      31.082 -12.331   0.370  0.00  0.00     0.124 HD
ENDBRANCH  33  39
ENDBRANCH   2  29
TORSDOF 10
ENDMDL
MODEL 5
REMARK VINA RESULT:    -8.028      3.558      5.291
REMARK INTER + INTRA:         -15.268
REMARK INTER:                 -11.011
REMARK INTRA:                  -4.257
REMARK CONF_INDEPENDENT:        2.983
REMARK UNBOUND:                -4.257
REMARK  10 active torsions:
REMARK  status: ('A' for Active; 'I' for Inactive)
REMARK    1  A    between atoms: C_7  and  N_8 
REMARK       I    between atoms: N_8  and  C_9 
REMARK    2  A    between atoms: N_8  and  C_20 
REMARK    3  A    between atoms: C_9  and  C_11 
REMARK    4  A    between atoms: C_14  and  C_15 
REMARK       I    between atoms: C_15  and  N_16 
REMARK    5  A    between atoms: C_18  and  N_19 
REMARK    6  A    between atoms: C_20  and  C_21 
REMARK    7  A    between atoms: C_20  and  C_29 
REMARK       I    between atoms: C_21  and  N_23 
REMARK    8  A    between atoms: N_23  and  C_24 
REMARK    9  A    between atoms: C_24  and  C_25 
REMARK   10  A    between atoms: C_25  and  C_26 
ROOT
ATOM      1  N   UNL d   1      28.522 -16.294  -0.550  0.00  0.00    -0.295 N 
ATOM      2  C   UNL d   1      29.213 -14.966   0.015  0.00  0.00     0.269 C 
ATOM      3  O   UNL d   1      30.186 -14.485  -0.576  0.00  0.00    -0.266 OA
ENDROOT
BRANCH   1   4
ATOM      4  C   UNL d   1      27.002 -16.497  -0.642  0.00  0.00     0.045 C 
ATOM      5  C   UNL d   1      26.186 -15.661  -1.418  0.00  0.00    -0.035 C 
ATOM      6  C   UNL d   1      24.803 -15.575  -1.348  0.00  0.00     0.009 C 
ATOM      7  C   UNL d   1      26.734 -14.595  -2.221  0.00  0.00     0.050 C 
ATOM      8  C   UNL d   1      24.122 -16.645  -0.899  0.00  0.00     0.007 C 
ATOM      9  C   UNL d   1      24.851 -17.680  -0.336  0.00  0.00    -0.060 C 
ATOM     10  C   UNL d   1      24.088 -18.950  -0.145  0.00  0.00     0.048 C 
ATOM     11  C   UNL d   1      26.250 -17.526  -0.046  0.00  0.00     0.037 C 
ENDBRANCH   1   4
BRANCH   1  12
ATOM     12  C   UNL d   1      29.329 -17.405  -1.444  0.00  0.00     0.218 C 
BRANCH  12  13
ATOM     13  C   UNL d   1      29.721 -16.994  -2.966  0.00  0.00     0.245 C 
ATOM     14  O   UNL d   1      29.831 -17.826  -3.872  0.00  0.00    -0.271 OA
ATOM     15  N   UNL d   1      29.770 -15.659  -3.324  0.00  0.00    -0.359 N 
ATOM     16  H   UNL d   1      29.868 -14.931  -2.658  0.00  0.00     0.162 HD
BRANCH  15  17
ATOM     17  C   UNL d   1      30.135 -15.203  -4.639  0.00  0.00     0.123 C 
BRANCH  17  18
ATOM     18  C   UNL d   1      28.960 -15.343  -5.614  0.00  0.00     0.023 C 
BRANCH  18  19
ATOM     19  C   UNL d   1      27.779 -14.452  -5.244  0.00  0.00    -0.021 C 
ATOM     20  C   UNL d   1      27.780 -13.220  -6.145  0.00  0.00     0.009 C 
ATOM     21  C   UNL d   1      26.454 -15.200  -5.395  0.00  0.00     0.009 C 
ENDBRANCH  18  19
ENDBRANCH  17  18
ENDBRANCH  15  17
ENDBRANCH  12  13
BRANCH  12  22
ATOM     22  C   UNL d   1      30.550 -18.120  -0.792  0.00  0.00    -0.026 C 
ATOM     23  C   UNL d   1      31.369 -17.386   0.035  0.00  0.00     0.013 C 
ATOM     24  C   UNL d   1      32.692 -17.655   0.319  0.00  0.00     0.043 C 
ATOM     25  C   UNL d   1      33.094 -18.943   0.141  0.00  0.00     0.116 C 
ATOM     26  F   UNL d   1      34.284 -19.315   0.623  0.00  0.00    -0.206 F 
ATOM     27  C   UNL d   1      32.204 -19.869  -0.410  0.00  0.00     0.043 C 
ATOM     28  C   UNL d   1      30.947 -19.457  -0.924  0.00  0.00     0.013 C 
ENDBRANCH  12  22
ENDBRANCH   1  12
BRANCH   2  29
ATOM     29  C   UNL d   1      28.776 -14.130   1.238  0.00  0.00     0.115 C 
ATOM     30  S   UNL d   1      27.100 -13.556   1.199  0.00  0.00     0.019 SA
ATOM     31  N   UNL d   1      26.812 -13.700   2.835  0.00  0.00    -0.203 NA
ATOM     32  C   UNL d   1      27.967 -13.961   3.454  0.00  0.00     0.155 C 
ATOM     33  C   UNL d   1      29.164 -14.063   2.585  0.00  0.00     0.065 C 
BRANCH  32  34
ATOM     34  C   UNL d   1      27.989 -14.406   4.875  0.00  0.00     0.270 C 
ATOM     35  N   UNL d   1      28.781 -15.500   5.158  0.00  0.00    -0.365 N 
ATOM     36  H   UNL d   1      29.335 -15.950   4.448  0.00  0.00     0.159 HD
ATOM     37  H   UNL d   1      28.658 -15.913   6.070  0.00  0.00     0.159 HD
ATOM     38  O   UNL d   1      27.405 -13.844   5.761  0.00  0.00    -0.266 OA
ENDBRANCH  32  34
BRANCH  33  39
ATOM     39  N   UNL d   1      30.334 -14.595   3.062  0.00  0.00    -0.299 NA
ATOM     40  H   UNL d   1      30.455 -14.505   4.087  0.00  0.00     0.124 HD
ATOM     41  H   UNL d   1      30.546 -15.563   2.834  0.00  0.00     0.124 HD
ENDBRANCH  33  39
ENDBRANCH   2  29
TORSDOF 10
ENDMDL
MODEL 6
REMARK VINA RESULT:    -7.934      2.626      5.518
REMARK INTER + INTRA:         -15.241
REMARK INTER:                 -10.917
REMARK INTRA:                  -4.324
REMARK CONF_INDEPENDENT:        2.983
REMARK UNBOUND:                -4.324
REMARK  10 active torsions:
REMARK  status: ('A' for Active; 'I' for Inactive)
REMARK    1  A    between atoms: C_7  and  N_8 
REMARK       I    between atoms: N_8  and  C_9 
REMARK    2  A    between atoms: N_8  and  C_20 
REMARK    3  A    between atoms: C_9  and  C_11 
REMARK    4  A    between atoms: C_14  and  C_15 
REMARK       I    between atoms: C_15  and  N_16 
REMARK    5  A    between atoms: C_18  and  N_19 
REMARK    6  A    between atoms: C_20  and  C_21 
REMARK    7  A    between atoms: C_20  and  C_29 
REMARK       I    between atoms: C_21  and  N_23 
REMARK    8  A    between atoms: N_23  and  C_24 
REMARK    9  A    between atoms: C_24  and  C_25 
REMARK   10  A    between atoms: C_25  and  C_26 
ROOT
ATOM      1  N   UNL d   1      27.893 -14.240  -1.411  0.00  0.00    -0.295 N 
ATOM      2  C   UNL d   1      27.172 -14.141   0.013  0.00  0.00     0.269 C 
ATOM      3  O   UNL d   1      26.015 -14.557   0.143  0.00  0.00    -0.266 OA
ENDROOT
BRANCH   1   4
ATOM      4  C   UNL d   1      29.349 -14.689  -1.605  0.00  0.00     0.045 C 
ATOM      5  C   UNL d   1      29.768 -15.997  -1.320  0.00  0.00    -0.035 C 
ATOM      6  C   UNL d   1      31.081 -16.423  -1.186  0.00  0.00     0.009 C 
ATOM      7  C   UNL d   1      28.843 -17.012  -0.880  0.00  0.00     0.050 C 
ATOM      8  C   UNL d   1      32.043 -15.728  -1.822  0.00  0.00     0.007 C 
ATOM      9  C   UNL d   1      31.689 -14.515  -2.389  0.00  0.00    -0.060 C 
ATOM     10  C   UNL d   1      32.699 -13.948  -3.332  0.00  0.00     0.048 C 
ATOM     11  C   UNL d   1      30.407 -13.921  -2.125  0.00  0.00     0.037 C 
ENDBRANCH   1   4
BRANCH   1  12
ATOM     12  C   UNL d   1      27.067 -14.258  -2.827  0.00  0.00     0.218 C 
BRANCH  12  13
ATOM     13  C   UNL d   1      25.901 -15.376  -2.995  0.00  0.00     0.245 C 
ATOM     14  O   UNL d   1      25.285 -15.540  -4.052  0.00  0.00    -0.271 OA
ATOM     15  N   UNL d   1      25.693 -16.304  -1.990  0.00  0.00    -0.359 N 
ATOM     16  H   UNL d   1      26.000 -16.161  -1.059  0.00  0.00     0.162 HD
BRANCH  15  17
ATOM     17  C   UNL d   1      24.666 -17.311  -2.043  0.00  0.00     0.123 C 
BRANCH  17  18
ATOM     18  C   UNL d   1      24.465 -17.963  -0.669  0.00  0.00     0.023 C 
BRANCH  18  19
ATOM     19  C   UNL d   1      23.028 -17.853  -0.171  0.00  0.00    -0.021 C 
ATOM     20  C   UNL d   1      22.483 -16.470  -0.516  0.00  0.00     0.009 C 
ATOM     21  C   UNL d   1      22.141 -18.928  -0.801  0.00  0.00     0.009 C 
ENDBRANCH  18  19
ENDBRANCH  17  18
ENDBRANCH  15  17
ENDBRANCH  12  13
BRANCH  12  22
ATOM     22  C   UNL d   1      26.537 -12.901  -3.381  0.00  0.00    -0.026 C 
ATOM     23  C   UNL d   1      26.246 -12.815  -4.723  0.00  0.00     0.013 C 
ATOM     24  C   UNL d   1      26.228 -11.663  -5.480  0.00  0.00     0.043 C 
ATOM     25  C   UNL d   1      26.049 -10.499  -4.797  0.00  0.00     0.116 C 
ATOM     26  F   UNL d   1      25.783  -9.385  -5.489  0.00  0.00    -0.206 F 
ATOM     27  C   UNL d   1      26.006 -10.523  -3.402  0.00  0.00     0.043 C 
ATOM     28  C   UNL d   1      26.298 -11.711  -2.682  0.00  0.00     0.013 C 
ENDBRANCH  12  22
ENDBRANCH   1  12
BRANCH   2  29
ATOM     29  C   UNL d   1      27.774 -13.611   1.334  0.00  0.00     0.115 C 
ATOM     30  S   UNL d   1      26.655 -12.693   2.357  0.00  0.00     0.019 SA
ATOM     31  N   UNL d   1      27.254 -13.227   3.818  0.00  0.00    -0.203 NA
ATOM     32  C   UNL d   1      28.386 -13.902   3.599  0.00  0.00     0.155 C 
ATOM     33  C   UNL d   1      28.814 -14.016   2.184  0.00  0.00     0.065 C 
BRANCH  32  34
ATOM     34  C   UNL d   1      29.006 -14.725   4.675  0.00  0.00     0.270 C 
ATOM     35  N   UNL d   1      28.154 -15.179   5.660  0.00  0.00    -0.365 N 
ATOM     36  H   UNL d   1      27.166 -14.989   5.635  0.00  0.00     0.159 HD
ATOM     37  H   UNL d   1      28.593 -15.576   6.478  0.00  0.00     0.159 HD
ATOM     38  O   UNL d   1      30.166 -15.037   4.693  0.00  0.00    -0.266 OA
ENDBRANCH  32  34
BRANCH  33  39
ATOM     39  N   UNL d   1      29.789 -14.906   1.816  0.00  0.00    -0.299 NA
ATOM     40  H   UNL d   1      30.409 -15.202   2.590  0.00  0.00     0.124 HD
ATOM     41  H   UNL d   1      29.502 -15.758   1.339  0.00  0.00     0.124 HD
ENDBRANCH  33  39
ENDBRANCH   2  29
TORSDOF 10
ENDMDL
MODEL 7
REMARK VINA RESULT:    -7.914      2.795      4.358
REMARK INTER + INTRA:         -15.471
REMARK INTER:                 -10.897
REMARK INTRA:                  -4.574
REMARK CONF_INDEPENDENT:        2.983
REMARK UNBOUND:                -4.574
REMARK  10 active torsions:
REMARK  status: ('A' for Active; 'I' for Inactive)
REMARK    1  A    between atoms: C_7  and  N_8 
REMARK       I    between atoms: N_8  and  C_9 
REMARK    2  A    between atoms: N_8  and  C_20 
REMARK    3  A    between atoms: C_9  and  C_11 
REMARK    4  A    between atoms: C_14  and  C_15 
REMARK       I    between atoms: C_15  and  N_16 
REMARK    5  A    between atoms: C_18  and  N_19 
REMARK    6  A    between atoms: C_20  and  C_21 
REMARK    7  A    between atoms: C_20  and  C_29 
REMARK       I    between atoms: C_21  and  N_23 
REMARK    8  A    between atoms: N_23  and  C_24 
REMARK    9  A    between atoms: C_24  and  C_25 
REMARK   10  A    between atoms: C_25  and  C_26 
ROOT
ATOM      1  N   UNL d   1      27.137 -15.598  -0.682  0.00  0.00    -0.295 N 
ATOM      2  C   UNL d   1      28.288 -16.436  -1.411  0.00  0.00     0.269 C 
ATOM      3  O   UNL d   1      28.212 -16.650  -2.627  0.00  0.00    -0.266 OA
ENDROOT
BRANCH   1   4
ATOM      4  C   UNL d   1      27.404 -14.503   0.362  0.00  0.00     0.045 C 
ATOM      5  C   UNL d   1      27.445 -13.144   0.020  0.00  0.00    -0.035 C 
ATOM      6  C   UNL d   1      27.951 -12.119   0.806  0.00  0.00     0.009 C 
ATOM      7  C   UNL d   1      27.182 -12.690  -1.323  0.00  0.00     0.050 C 
ATOM      8  C   UNL d   1      27.965 -12.289   2.141  0.00  0.00     0.007 C 
ATOM      9  C   UNL d   1      27.676 -13.552   2.630  0.00  0.00    -0.060 C 
ATOM     10  C   UNL d   1      27.404 -13.607   4.097  0.00  0.00     0.048 C 
ATOM     11  C   UNL d   1      27.579 -14.682   1.747  0.00  0.00     0.037 C 
ENDBRANCH   1   4
BRANCH   1  12
ATOM     12  C   UNL d   1      25.597 -15.531  -1.239  0.00  0.00     0.218 C 
BRANCH  12  13
ATOM     13  C   UNL d   1      25.381 -15.049  -2.775  0.00  0.00     0.245 C 
ATOM     14  O   UNL d   1      24.368 -14.450  -3.148  0.00  0.00    -0.271 OA
ATOM     15  N   UNL d   1      26.425 -15.148  -3.677  0.00  0.00    -0.359 N 
ATOM     16  H   UNL d   1      27.197 -15.754  -3.536  0.00  0.00     0.162 HD
BRANCH  15  17
ATOM     17  C   UNL d   1      26.315 -14.773  -5.062  0.00  0.00     0.123 C 
BRANCH  17  18
ATOM     18  C   UNL d   1      27.670 -14.321  -5.618  0.00  0.00     0.023 C 
BRANCH  18  19
ATOM     19  C   UNL d   1      28.820 -15.210  -5.160  0.00  0.00    -0.021 C 
ATOM     20  C   UNL d   1      29.673 -15.587  -6.368  0.00  0.00     0.009 C 
ATOM     21  C   UNL d   1      29.687 -14.500  -4.119  0.00  0.00     0.009 C 
ENDBRANCH  18  19
ENDBRANCH  17  18
ENDBRANCH  15  17
ENDBRANCH  12  13
BRANCH  12  22
ATOM     22  C   UNL d   1      24.668 -16.751  -0.965  0.00  0.00    -0.026 C 
ATOM     23  C   UNL d   1      23.316 -16.598  -1.171  0.00  0.00     0.013 C 
ATOM     24  C   UNL d   1      22.313 -17.333  -0.575  0.00  0.00     0.043 C 
ATOM     25  C   UNL d   1      22.667 -18.559  -0.102  0.00  0.00     0.116 C 
ATOM     26  F   UNL d   1      21.701 -19.408   0.265  0.00  0.00    -0.206 F 
ATOM     27  C   UNL d   1      24.008 -18.949  -0.145  0.00  0.00     0.043 C 
ATOM     28  C   UNL d   1      25.023 -18.034  -0.529  0.00  0.00     0.013 C 
ENDBRANCH  12  22
ENDBRANCH   1  12
BRANCH   2  29
ATOM     29  C   UNL d   1      29.577 -17.006  -0.778  0.00  0.00     0.115 C 
ATOM     30  S   UNL d   1      30.439 -18.198  -1.766  0.00  0.00     0.019 SA
ATOM     31  N   UNL d   1      31.978 -17.740  -1.316  0.00  0.00    -0.203 NA
ATOM     32  C   UNL d   1      31.889 -16.874  -0.303  0.00  0.00     0.155 C 
ATOM     33  C   UNL d   1      30.519 -16.537   0.151  0.00  0.00     0.065 C 
BRANCH  32  34
ATOM     34  C   UNL d   1      33.076 -16.087   0.135  0.00  0.00     0.270 C 
ATOM     35  N   UNL d   1      34.237 -16.288  -0.583  0.00  0.00    -0.365 N 
ATOM     36  H   UNL d   1      34.270 -16.908  -1.374  0.00  0.00     0.159 HD
ATOM     37  H   UNL d   1      35.079 -15.901  -0.182  0.00  0.00     0.159 HD
ATOM     38  O   UNL d   1      33.052 -15.279   1.023  0.00  0.00    -0.266 OA
ENDBRANCH  32  34
BRANCH  33  39
ATOM     39  N   UNL d   1      30.297 -15.467   0.978  0.00  0.00    -0.299 NA
ATOM     40  H   UNL d   1      29.653 -15.666   1.765  0.00  0.00     0.124 HD
ATOM     41  H   UNL d   1      31.105 -15.000   1.382  0.00  0.00     0.124 HD
ENDBRANCH  33  39
ENDBRANCH   2  29
TORSDOF 10
ENDMDL
MODEL 8
REMARK VINA RESULT:    -7.799      2.844      4.517
REMARK INTER + INTRA:         -15.161
REMARK INTER:                 -10.782
REMARK INTRA:                  -4.379
REMARK CONF_INDEPENDENT:        2.983
REMARK UNBOUND:                -4.379
REMARK  10 active torsions:
REMARK  status: ('A' for Active; 'I' for Inactive)
REMARK    1  A    between atoms: C_7  and  N_8 
REMARK       I    between atoms: N_8  and  C_9 
REMARK    2  A    between atoms: N_8  and  C_20 
REMARK    3  A    between atoms: C_9  and  C_11 
REMARK    4  A    between atoms: C_14  and  C_15 
REMARK       I    between atoms: C_15  and  N_16 
REMARK    5  A    between atoms: C_18  and  N_19 
REMARK    6  A    between atoms: C_20  and  C_21 
REMARK    7  A    between atoms: C_20  and  C_29 
REMARK       I    between atoms: C_21  and  N_23 
REMARK    8  A    between atoms: N_23  and  C_24 
REMARK    9  A    between atoms: C_24  and  C_25 
REMARK   10  A    between atoms: C_25  and  C_26 
ROOT
ATOM      1  N   UNL d   1      27.331 -15.516  -0.565  0.00  0.00    -0.295 N 
ATOM      2  C   UNL d   1      28.522 -16.275  -1.317  0.00  0.00     0.269 C 
ATOM      3  O   UNL d   1      28.507 -16.366  -2.550  0.00  0.00    -0.266 OA
ENDROOT
BRANCH   1   4
ATOM      4  C   UNL d   1      27.540 -14.531   0.595  0.00  0.00     0.045 C 
ATOM      5  C   UNL d   1      27.463 -13.143   0.415  0.00  0.00    -0.035 C 
ATOM      6  C   UNL d   1      27.908 -12.177   1.306  0.00  0.00     0.009 C 
ATOM      7  C   UNL d   1      27.127 -12.559  -0.861  0.00  0.00     0.050 C 
ATOM      8  C   UNL d   1      27.973 -12.499   2.611  0.00  0.00     0.007 C 
ATOM      9  C   UNL d   1      27.800 -13.830   2.953  0.00  0.00    -0.060 C 
ATOM     10  C   UNL d   1      27.574 -14.076   4.409  0.00  0.00     0.048 C 
ATOM     11  C   UNL d   1      27.767 -14.854   1.946  0.00  0.00     0.037 C 
ENDBRANCH   1   4
BRANCH   1  12
ATOM     12  C   UNL d   1      25.820 -15.395  -1.189  0.00  0.00     0.218 C 
BRANCH  12  13
ATOM     13  C   UNL d   1      25.689 -14.940  -2.742  0.00  0.00     0.245 C 
ATOM     14  O   UNL d   1      24.599 -14.813  -3.308  0.00  0.00    -0.271 OA
ATOM     15  N   UNL d   1      26.811 -14.507  -3.425  0.00  0.00    -0.359 N 
ATOM     16  H   UNL d   1      27.732 -14.726  -3.132  0.00  0.00     0.162 HD
BRANCH  15  17
ATOM     17  C   UNL d   1      26.793 -14.112  -4.809  0.00  0.00     0.123 C 
BRANCH  17  18
ATOM     18  C   UNL d   1      25.905 -12.880  -5.018  0.00  0.00     0.023 C 
BRANCH  18  19
ATOM     19  C   UNL d   1      26.631 -11.573  -4.718  0.00  0.00    -0.021 C 
ATOM     20  C   UNL d   1      25.907 -10.847  -3.588  0.00  0.00     0.009 C 
ATOM     21  C   UNL d   1      28.085 -11.828  -4.318  0.00  0.00     0.009 C 
ENDBRANCH  18  19
ENDBRANCH  17  18
ENDBRANCH  15  17
ENDBRANCH  12  13
BRANCH  12  22
ATOM     22  C   UNL d   1      24.827 -16.566  -0.928  0.00  0.00    -0.026 C 
ATOM     23  C   UNL d   1      23.483 -16.334  -1.114  0.00  0.00     0.013 C 
ATOM     24  C   UNL d   1      22.447 -17.025  -0.520  0.00  0.00     0.043 C 
ATOM     25  C   UNL d   1      22.738 -18.279  -0.079  0.00  0.00     0.116 C 
ATOM     26  F   UNL d   1      21.730 -19.080   0.283  0.00  0.00    -0.206 F 
ATOM     27  C   UNL d   1      24.054 -18.742  -0.147  0.00  0.00     0.043 C 
ATOM     28  C   UNL d   1      25.114 -17.877  -0.524  0.00  0.00     0.013 C 
ENDBRANCH  12  22
ENDBRANCH   1  12
BRANCH   2  29
ATOM     29  C   UNL d   1      29.781 -16.904  -0.681  0.00  0.00     0.115 C 
ATOM     30  S   UNL d   1      30.563 -18.167  -1.648  0.00  0.00     0.019 SA
ATOM     31  N   UNL d   1      32.130 -17.789  -1.221  0.00  0.00    -0.203 NA
ATOM     32  C   UNL d   1      32.101 -16.896  -0.227  0.00  0.00     0.155 C 
ATOM     33  C   UNL d   1      30.757 -16.470   0.229  0.00  0.00     0.065 C 
BRANCH  32  34
ATOM     34  C   UNL d   1      33.335 -16.169   0.183  0.00  0.00     0.270 C 
ATOM     35  N   UNL d   1      34.480 -16.464  -0.530  0.00  0.00    -0.365 N 
ATOM     36  H   UNL d   1      34.471 -17.110  -1.301  0.00  0.00     0.159 HD
ATOM     37  H   UNL d   1      35.345 -16.117  -0.143  0.00  0.00     0.159 HD
ATOM     38  O   UNL d   1      33.364 -15.333   1.044  0.00  0.00    -0.266 OA
ENDBRANCH  32  34
BRANCH  33  39
ATOM     39  N   UNL d   1      30.604 -15.371   1.034  0.00  0.00    -0.299 NA
ATOM     40  H   UNL d   1      30.406 -15.595   2.025  0.00  0.00     0.124 HD
ATOM     41  H   UNL d   1      31.348 -14.678   1.041  0.00  0.00     0.124 HD
ENDBRANCH  33  39
ENDBRANCH   2  29
TORSDOF 10
ENDMDL
MODEL 9
REMARK VINA RESULT:    -7.735      2.440      3.640
REMARK INTER + INTRA:         -15.313
REMARK INTER:                 -10.718
REMARK INTRA:                  -4.595
REMARK CONF_INDEPENDENT:        2.983
REMARK UNBOUND:                -4.595
REMARK  10 active torsions:
REMARK  status: ('A' for Active; 'I' for Inactive)
REMARK    1  A    between atoms: C_7  and  N_8 
REMARK       I    between atoms: N_8  and  C_9 
REMARK    2  A    between atoms: N_8  and  C_20 
REMARK    3  A    between atoms: C_9  and  C_11 
REMARK    4  A    between atoms: C_14  and  C_15 
REMARK       I    between atoms: C_15  and  N_16 
REMARK    5  A    between atoms: C_18  and  N_19 
REMARK    6  A    between atoms: C_20  and  C_21 
REMARK    7  A    between atoms: C_20  and  C_29 
REMARK       I    between atoms: C_21  and  N_23 
REMARK    8  A    between atoms: N_23  and  C_24 
REMARK    9  A    between atoms: C_24  and  C_25 
REMARK   10  A    between atoms: C_25  and  C_26 
ROOT
ATOM      1  N   UNL d   1      27.398 -14.226  -0.776  0.00  0.00    -0.295 N 
ATOM      2  C   UNL d   1      28.733 -14.516  -1.608  0.00  0.00     0.269 C 
ATOM      3  O   UNL d   1      28.692 -14.529  -2.843  0.00  0.00    -0.266 OA
ENDROOT
BRANCH   1   4
ATOM      4  C   UNL d   1      27.334 -13.301   0.449  0.00  0.00     0.045 C 
ATOM      5  C   UNL d   1      27.493 -13.785   1.755  0.00  0.00    -0.035 C 
ATOM      6  C   UNL d   1      27.175 -13.106   2.922  0.00  0.00     0.009 C 
ATOM      7  C   UNL d   1      27.780 -15.173   2.022  0.00  0.00     0.050 C 
ATOM      8  C   UNL d   1      27.176 -11.761   2.895  0.00  0.00     0.007 C 
ATOM      9  C   UNL d   1      27.283 -11.144   1.660  0.00  0.00    -0.060 C 
ATOM     10  C   UNL d   1      27.589  -9.683   1.715  0.00  0.00     0.048 C 
ATOM     11  C   UNL d   1      27.178 -11.902   0.443  0.00  0.00     0.037 C 
ENDBRANCH   1   4
BRANCH   1  12
ATOM     12  C   UNL d   1      25.900 -14.555  -1.355  0.00  0.00     0.218 C 
BRANCH  12  13
ATOM     13  C   UNL d   1      25.573 -14.096  -2.878  0.00  0.00     0.245 C 
ATOM     14  O   UNL d   1      24.550 -14.450  -3.474  0.00  0.00    -0.271 OA
ATOM     15  N   UNL d   1      26.363 -13.140  -3.490  0.00  0.00    -0.359 N 
ATOM     16  H   UNL d   1      27.280 -12.927  -3.179  0.00  0.00     0.162 HD
BRANCH  15  17
ATOM     17  C   UNL d   1      26.164 -12.695  -4.844  0.00  0.00     0.123 C 
BRANCH  17  18
ATOM     18  C   UNL d   1      27.475 -12.741  -5.636  0.00  0.00     0.023 C 
BRANCH  18  19
ATOM     19  C   UNL d   1      27.813 -14.142  -6.135  0.00  0.00    -0.021 C 
ATOM     20  C   UNL d   1      29.293 -14.419  -5.887  0.00  0.00     0.009 C 
ATOM     21  C   UNL d   1      26.965 -15.200  -5.428  0.00  0.00     0.009 C 
ENDBRANCH  18  19
ENDBRANCH  17  18
ENDBRANCH  15  17
ENDBRANCH  12  13
BRANCH  12  22
ATOM     22  C   UNL d   1      25.330 -15.989  -1.134  0.00  0.00    -0.026 C 
ATOM     23  C   UNL d   1      24.006 -16.215  -1.429  0.00  0.00     0.013 C 
ATOM     24  C   UNL d   1      23.210 -17.207  -0.895  0.00  0.00     0.043 C 
ATOM     25  C   UNL d   1      23.861 -18.292  -0.392  0.00  0.00     0.116 C 
ATOM     26  F   UNL d   1      23.147 -19.380  -0.084  0.00  0.00    -0.206 F 
ATOM     27  C   UNL d   1      25.256 -18.293  -0.345  0.00  0.00     0.043 C 
ATOM     28  C   UNL d   1      25.999 -17.128  -0.668  0.00  0.00     0.013 C 
ENDBRANCH  12  22
ENDBRANCH   1  12
BRANCH   2  29
ATOM     29  C   UNL d   1      30.154 -14.748  -1.048  0.00  0.00     0.115 C 
ATOM     30  S   UNL d   1      31.185 -13.309  -0.989  0.00  0.00     0.019 SA
ATOM     31  N   UNL d   1      31.976 -13.700   0.425  0.00  0.00    -0.203 NA
ATOM     32  C   UNL d   1      31.663 -14.955   0.760  0.00  0.00     0.155 C 
ATOM     33  C   UNL d   1      30.731 -15.661  -0.151  0.00  0.00     0.065 C 
BRANCH  32  34
ATOM     34  C   UNL d   1      32.000 -15.493   2.108  0.00  0.00     0.270 C 
ATOM     35  N   UNL d   1      32.136 -14.562   3.118  0.00  0.00    -0.365 N 
ATOM     36  H   UNL d   1      31.986 -13.580   2.956  0.00  0.00     0.159 HD
ATOM     37  H   UNL d   1      32.539 -14.898   3.980  0.00  0.00     0.159 HD
ATOM     38  O   UNL d   1      32.106 -16.663   2.353  0.00  0.00    -0.266 OA
ENDBRANCH  32  34
BRANCH  33  39
ATOM     39  N   UNL d   1      30.128 -16.831   0.230  0.00  0.00    -0.299 NA
ATOM     40  H   UNL d   1      30.717 -17.437   0.829  0.00  0.00     0.124 HD
ATOM     41  H   UNL d   1      29.221 -16.774   0.686  0.00  0.00     0.124 HD
ENDBRANCH  33  39
ENDBRANCH   2  29
TORSDOF 10
ENDMDL
