MODEL 1
REMARK VINA RESULT:   -29.376      0.000      0.000
REMARK INTER + INTRA:         -34.401
REMARK INTER:                 -32.060
REMARK INTRA:                  -2.341
REMARK CONF_INDEPENDENT:        2.685
REMARK UNBOUND:                -2.341
REMARK  9 active torsions:
REMARK  status: ('A' for Active; 'I' for Inactive)
REMARK    1  A    between atoms: C_5  and  S_6 
REMARK    2  A    between atoms: S_6  and  N_9 
REMARK    3  A    between atoms: N_9  and  C_10 
REMARK    4  A    between atoms: C_10  and  C_11 
REMARK    5  A    between atoms: C_17  and  C_18 
REMARK    6  A    between atoms: C_18  and  O_20 
REMARK    7  A    between atoms: O_20  and  C_21 
REMARK    8  A    between atoms: C_21  and  C_22 
REMARK       I    between atoms: C_22  and  N_24 
REMARK       I    between atoms: N_24  and  C_25 
REMARK       I    between atoms: C_25  and  N_27 
REMARK    9  A    between atoms: C_28  and  N_27 
ROOT
ATOM      1  C   UNL d   1      26.369 -18.091   0.025  0.00  0.00     0.294 C 
ATOM      2  O   UNL d   1      26.589 -18.878   0.921  0.00  0.00    -0.259 OA
ENDROOT
BRANCH   1   3
ATOM      3  C   UNL d   1      24.979 -17.583  -0.326  0.00  0.00     0.046 A 
ATOM      4  C   UNL d   1      23.888 -18.437  -0.025  0.00  0.00     0.042 A 
ATOM      5  C   UNL d   1      22.570 -18.043  -0.298  0.00  0.00     0.075 A 
ATOM      6  C   UNL d   1      22.316 -16.803  -0.889  0.00  0.00     0.025 A 
ATOM      7  C   UNL d   1      23.379 -15.953  -1.198  0.00  0.00     0.009 A 
ATOM      8  C   UNL d   1      24.712 -16.323  -0.918  0.00  0.00    -0.046 A 
ATOM      9  C   UNL d   1      25.797 -15.337  -1.264  0.00  0.00     0.049 C 
BRANCH   5  10
ATOM     10  S   UNL d   1      21.164 -19.060   0.103  0.00  0.00     0.241 S 
ATOM     11  O   UNL d   1      21.497 -20.414  -0.289  0.00  0.00    -0.206 OA
ATOM     12  O   UNL d   1      20.770 -18.744   1.456  0.00  0.00    -0.206 OA
BRANCH  10  13
ATOM     13  N   UNL d   1      19.897 -18.576  -0.928  0.00  0.00    -0.209 NA
ATOM     14  H   UNL d   1      20.226 -18.463  -1.887  0.00  0.00     0.140 HD
BRANCH  13  15
ATOM     15  C   UNL d   1      18.793 -19.565  -0.898  0.00  0.00     0.169 C 
BRANCH  15  16
ATOM     16  C   UNL d   1      18.615 -20.246   0.420  0.00  0.00     0.066 A 
ATOM     17  C   UNL d   1      18.598 -21.597   0.712  0.00  0.00     0.036 A 
ATOM     18  C   UNL d   1      18.399 -21.714   2.104  0.00  0.00     0.027 A 
ATOM     19  C   UNL d   1      18.303 -20.428   2.582  0.00  0.00     0.142 A 
ATOM     20  O   UNL d   1      18.425 -19.525   1.566  0.00  0.00    -0.326 OA
ENDBRANCH  15  16
ENDBRANCH  13  15
ENDBRANCH  10  13
ENDBRANCH   5  10
ENDBRANCH   1   3
BRANCH   1  21
ATOM     21  O   UNL d   1      27.318 -17.553  -0.776  0.00  0.00    -0.308 OA
BRANCH  21  22
ATOM     22  C   UNL d   1      28.718 -17.800  -0.548  0.00  0.00     0.282 C 
BRANCH  22  23
ATOM     23  C   UNL d   1      29.523 -16.500  -0.917  0.00  0.00     0.249 C 
ATOM     24  O   UNL d   1      30.335 -15.999  -0.146  0.00  0.00    -0.271 OA
ATOM     25  N   UNL d   1      29.251 -16.005  -2.192  0.00  0.00    -0.277 N 
ATOM     26  C   UNL d   1      29.680 -14.821  -2.780  0.00  0.00     0.323 C 
ATOM     27  H   UNL d   1      28.408 -16.409  -2.501  0.00  0.00     0.173 HD
ATOM     28  O   UNL d   1      30.526 -14.081  -2.284  0.00  0.00    -0.247 OA
ATOM     29  N   UNL d   1      29.153 -14.419  -3.995  0.00  0.00    -0.338 N 
ATOM     30  H   UNL d   1      29.612 -13.562  -4.296  0.00  0.00     0.164 HD
BRANCH  29  31
ATOM     31  C   UNL d   1      28.108 -14.919  -4.935  0.00  0.00     0.089 C 
ATOM     32  C   UNL d   1      28.000 -14.068  -6.226  0.00  0.00     0.026 C 
ATOM     33  C   UNL d   1      27.585 -12.624  -5.929  0.00  0.00     0.002 C 
ATOM     34  C   UNL d   1      26.333 -12.552  -5.048  0.00  0.00     0.001 C 
ATOM     35  C   UNL d   1      26.438 -13.457  -3.822  0.00  0.00     0.006 C 
ATOM     36  C   UNL d   1      26.756 -14.913  -4.247  0.00  0.00     0.004 C 
ATOM     37  C   UNL d   1      25.598 -15.579  -4.949  0.00  0.00     0.012 C 
ENDBRANCH  29  31
ENDBRANCH  22  23
ENDBRANCH  21  22
ENDBRANCH   1  21
TORSDOF 9
ENDMDL
MODEL 2
REMARK VINA RESULT:   -29.076      2.678      3.966
REMARK INTER + INTRA:         -33.508
REMARK INTER:                 -31.761
REMARK INTRA:                  -1.747
REMARK CONF_INDEPENDENT:        2.685
REMARK UNBOUND:                -1.747
REMARK  9 active torsions:
REMARK  status: ('A' for Active; 'I' for Inactive)
REMARK    1  A    between atoms: C_5  and  S_6 
REMARK    2  A    between atoms: S_6  and  N_9 
REMARK    3  A    between atoms: N_9  and  C_10 
REMARK    4  A    between atoms: C_10  and  C_11 
REMARK    5  A    between atoms: C_17  and  C_18 
REMARK    6  A    between atoms: C_18  and  O_20 
REMARK    7  A    between atoms: O_20  and  C_21 
REMARK    8  A    between atoms: C_21  and  C_22 
REMARK       I    between atoms: C_22  and  N_24 
REMARK       I    between atoms: N_24  and  C_25 
REMARK       I    between atoms: C_25  and  N_27 
REMARK    9  A    between atoms: C_28  and  N_27 
ROOT
ATOM      1  C   UNL d   1      26.373 -18.056  -0.004  0.00  0.00     0.294 C 
ATOM      2  O   UNL d   1      26.579 -19.028   0.693  0.00  0.00    -0.259 OA
ENDROOT
BRANCH   1   3
ATOM      3  C   UNL d   1      24.982 -17.553  -0.357  0.00  0.00     0.046 A 
ATOM      4  C   UNL d   1      23.890 -18.389  -0.012  0.00  0.00     0.042 A 
ATOM      5  C   UNL d   1      22.571 -17.997  -0.283  0.00  0.00     0.075 A 
ATOM      6  C   UNL d   1      22.316 -16.777  -0.916  0.00  0.00     0.025 A 
ATOM      7  C   UNL d   1      23.381 -15.946  -1.267  0.00  0.00     0.009 A 
ATOM      8  C   UNL d   1      24.715 -16.314  -0.991  0.00  0.00    -0.046 A 
ATOM      9  C   UNL d   1      25.801 -15.348  -1.385  0.00  0.00     0.049 C 
BRANCH   5  10
ATOM     10  S   UNL d   1      21.164 -18.990   0.170  0.00  0.00     0.241 S 
ATOM     11  O   UNL d   1      21.502 -20.366  -0.134  0.00  0.00    -0.206 OA
ATOM     12  O   UNL d   1      20.761 -18.592   1.499  0.00  0.00    -0.206 OA
BRANCH  10  13
ATOM     13  N   UNL d   1      19.904 -18.574  -0.896  0.00  0.00    -0.209 NA
ATOM     14  H   UNL d   1      20.254 -18.434  -1.844  0.00  0.00     0.140 HD
BRANCH  13  15
ATOM     15  C   UNL d   1      18.860 -19.628  -0.908  0.00  0.00     0.169 C 
BRANCH  15  16
ATOM     16  C   UNL d   1      18.662 -20.310   0.406  0.00  0.00     0.066 A 
ATOM     17  C   UNL d   1      18.575 -21.661   0.687  0.00  0.00     0.036 A 
ATOM     18  C   UNL d   1      18.388 -21.780   2.081  0.00  0.00     0.027 A 
ATOM     19  C   UNL d   1      18.371 -20.495   2.571  0.00  0.00     0.142 A 
ATOM     20  O   UNL d   1      18.528 -19.591   1.562  0.00  0.00    -0.326 OA
ENDBRANCH  15  16
ENDBRANCH  13  15
ENDBRANCH  10  13
ENDBRANCH   5  10
ENDBRANCH   1   3
BRANCH   1  21
ATOM     21  O   UNL d   1      27.340 -17.288  -0.555  0.00  0.00    -0.308 OA
BRANCH  21  22
ATOM     22  C   UNL d   1      28.736 -17.587  -0.361  0.00  0.00     0.282 C 
BRANCH  22  23
ATOM     23  C   UNL d   1      29.570 -16.279  -0.626  0.00  0.00     0.249 C 
ATOM     24  O   UNL d   1      30.295 -16.161  -1.608  0.00  0.00    -0.271 OA
ATOM     25  N   UNL d   1      29.382 -15.280   0.328  0.00  0.00    -0.277 N 
ATOM     26  C   UNL d   1      30.049 -14.070   0.470  0.00  0.00     0.323 C 
ATOM     27  H   UNL d   1      28.977 -15.694   1.125  0.00  0.00     0.173 HD
ATOM     28  O   UNL d   1      30.836 -13.624  -0.361  0.00  0.00    -0.247 OA
ATOM     29  N   UNL d   1      29.841 -13.289   1.594  0.00  0.00    -0.338 N 
ATOM     30  H   UNL d   1      30.369 -12.424   1.509  0.00  0.00     0.164 HD
BRANCH  29  31
ATOM     31  C   UNL d   1      29.058 -13.409   2.858  0.00  0.00     0.089 C 
ATOM     32  C   UNL d   1      27.796 -14.296   2.706  0.00  0.00     0.026 C 
ATOM     33  C   UNL d   1      26.802 -13.711   1.698  0.00  0.00     0.002 C 
ATOM     34  C   UNL d   1      26.480 -12.241   1.989  0.00  0.00     0.001 C 
ATOM     35  C   UNL d   1      27.741 -11.407   2.208  0.00  0.00     0.006 C 
ATOM     36  C   UNL d   1      28.619 -12.032   3.321  0.00  0.00     0.004 C 
ATOM     37  C   UNL d   1      27.998 -11.907   4.691  0.00  0.00     0.012 C 
ENDBRANCH  29  31
ENDBRANCH  22  23
ENDBRANCH  21  22
ENDBRANCH   1  21
TORSDOF 9
ENDMDL
MODEL 3
REMARK VINA RESULT:   -28.575      3.792      5.324
REMARK INTER + INTRA:         -32.435
REMARK INTER:                 -31.260
REMARK INTRA:                  -1.175
REMARK CONF_INDEPENDENT:        2.685
REMARK UNBOUND:                -1.175
REMARK  9 active torsions:
REMARK  status: ('A' for Active; 'I' for Inactive)
REMARK    1  A    between atoms: C_5  and  S_6 
REMARK    2  A    between atoms: S_6  and  N_9 
REMARK    3  A    between atoms: N_9  and  C_10 
REMARK    4  A    between atoms: C_10  and  C_11 
REMARK    5  A    between atoms: C_17  and  C_18 
REMARK    6  A    between atoms: C_18  and  O_20 
REMARK    7  A    between atoms: O_20  and  C_21 
REMARK    8  A    between atoms: C_21  and  C_22 
REMARK       I    between atoms: C_22  and  N_24 
REMARK       I    between atoms: N_24  and  C_25 
REMARK       I    between atoms: C_25  and  N_27 
REMARK    9  A    between atoms: C_28  and  N_27 
ROOT
ATOM      1  C   UNL d   1      26.330 -17.835   0.026  0.00  0.00     0.294 C 
ATOM      2  O   UNL d   1      26.720 -18.984   0.018  0.00  0.00    -0.259 OA
ENDROOT
BRANCH   1   3
ATOM      3  C   UNL d   1      24.927 -17.419  -0.386  0.00  0.00     0.046 A 
ATOM      4  C   UNL d   1      23.869 -18.298  -0.041  0.00  0.00     0.042 A 
ATOM      5  C   UNL d   1      22.541 -17.987  -0.365  0.00  0.00     0.075 A 
ATOM      6  C   UNL d   1      22.243 -16.805  -1.051  0.00  0.00     0.025 A 
ATOM      7  C   UNL d   1      23.274 -15.933  -1.403  0.00  0.00     0.009 A 
ATOM      8  C   UNL d   1      24.616 -16.219  -1.074  0.00  0.00    -0.046 A 
ATOM      9  C   UNL d   1      25.663 -15.212  -1.473  0.00  0.00     0.049 C 
BRANCH   5  10
ATOM     10  S   UNL d   1      21.173 -19.035   0.084  0.00  0.00     0.241 S 
ATOM     11  O   UNL d   1      21.528 -20.383  -0.311  0.00  0.00    -0.206 OA
ATOM     12  O   UNL d   1      20.815 -18.721   1.448  0.00  0.00    -0.206 OA
BRANCH  10  13
ATOM     13  N   UNL d   1      19.864 -18.588  -0.908  0.00  0.00    -0.209 NA
ATOM     14  H   UNL d   1      20.179 -18.345  -1.847  0.00  0.00     0.140 HD
BRANCH  13  15
ATOM     15  C   UNL d   1      18.873 -19.689  -0.991  0.00  0.00     0.169 C 
BRANCH  15  16
ATOM     16  C   UNL d   1      18.567 -20.339   0.319  0.00  0.00     0.066 A 
ATOM     17  C   UNL d   1      18.566 -19.793   1.589  0.00  0.00     0.036 A 
ATOM     18  C   UNL d   1      18.208 -20.826   2.481  0.00  0.00     0.027 A 
ATOM     19  C   UNL d   1      18.012 -21.944   1.705  0.00  0.00     0.142 A 
ATOM     20  O   UNL d   1      18.235 -21.664   0.388  0.00  0.00    -0.326 OA
ENDBRANCH  15  16
ENDBRANCH  13  15
ENDBRANCH  10  13
ENDBRANCH   5  10
ENDBRANCH   1   3
BRANCH   1  21
ATOM     21  O   UNL d   1      27.079 -16.773   0.404  0.00  0.00    -0.308 OA
BRANCH  21  22
ATOM     22  C   UNL d   1      28.512 -16.777   0.257  0.00  0.00     0.282 C 
BRANCH  22  23
ATOM     23  C   UNL d   1      29.020 -15.288   0.264  0.00  0.00     0.249 C 
ATOM     24  O   UNL d   1      29.636 -14.808  -0.682  0.00  0.00    -0.271 OA
ATOM     25  N   UNL d   1      28.679 -14.575   1.413  0.00  0.00    -0.277 N 
ATOM     26  C   UNL d   1      29.071 -13.299   1.799  0.00  0.00     0.323 C 
ATOM     27  H   UNL d   1      28.426 -15.224   2.109  0.00  0.00     0.173 HD
ATOM     28  O   UNL d   1      29.686 -12.525   1.070  0.00  0.00    -0.247 OA
ATOM     29  N   UNL d   1      28.769 -12.834   3.067  0.00  0.00    -0.338 N 
ATOM     30  H   UNL d   1      29.088 -11.873   3.161  0.00  0.00     0.164 HD
BRANCH  29  31
ATOM     31  C   UNL d   1      28.115 -13.385   4.290  0.00  0.00     0.089 C 
ATOM     32  C   UNL d   1      27.514 -12.284   5.202  0.00  0.00     0.026 C 
ATOM     33  C   UNL d   1      28.589 -11.336   5.740  0.00  0.00     0.002 C 
ATOM     34  C   UNL d   1      29.756 -12.091   6.387  0.00  0.00     0.001 C 
ATOM     35  C   UNL d   1      30.278 -13.216   5.497  0.00  0.00     0.006 C 
ATOM     36  C   UNL d   1      29.126 -14.174   5.100  0.00  0.00     0.004 C 
ATOM     37  C   UNL d   1      28.622 -14.992   6.264  0.00  0.00     0.012 C 
ENDBRANCH  29  31
ENDBRANCH  22  23
ENDBRANCH  21  22
ENDBRANCH   1  21
TORSDOF 9
ENDMDL
MODEL 4
REMARK VINA RESULT:   -28.309      2.759      3.418
REMARK INTER + INTRA:         -32.275
REMARK INTER:                 -30.993
REMARK INTRA:                  -1.282
REMARK CONF_INDEPENDENT:        2.685
REMARK UNBOUND:                -1.282
REMARK  9 active torsions:
REMARK  status: ('A' for Active; 'I' for Inactive)
REMARK    1  A    between atoms: C_5  and  S_6 
REMARK    2  A    between atoms: S_6  and  N_9 
REMARK    3  A    between atoms: N_9  and  C_10 
REMARK    4  A    between atoms: C_10  and  C_11 
REMARK    5  A    between atoms: C_17  and  C_18 
REMARK    6  A    between atoms: C_18  and  O_20 
REMARK    7  A    between atoms: O_20  and  C_21 
REMARK    8  A    between atoms: C_21  and  C_22 
REMARK       I    between atoms: C_22  and  N_24 
REMARK       I    between atoms: N_24  and  C_25 
REMARK       I    between atoms: C_25  and  N_27 
REMARK    9  A    between atoms: C_28  and  N_27 
ROOT
ATOM      1  C   UNL d   1      26.411 -18.135  -0.165  0.00  0.00     0.294 C 
ATOM      2  O   UNL d   1      26.641 -19.252   0.246  0.00  0.00    -0.259 OA
ENDROOT
BRANCH   1   3
ATOM      3  C   UNL d   1      25.020 -17.645  -0.539  0.00  0.00     0.046 A 
ATOM      4  C   UNL d   1      23.925 -18.446  -0.127  0.00  0.00     0.042 A 
ATOM      5  C   UNL d   1      22.607 -18.064  -0.412  0.00  0.00     0.075 A 
ATOM      6  C   UNL d   1      22.355 -16.887  -1.124  0.00  0.00     0.025 A 
ATOM      7  C   UNL d   1      23.422 -16.091  -1.541  0.00  0.00     0.009 A 
ATOM      8  C   UNL d   1      24.756 -16.449  -1.253  0.00  0.00    -0.046 A 
ATOM      9  C   UNL d   1      25.846 -15.522  -1.722  0.00  0.00     0.049 C 
BRANCH   5  10
ATOM     10  S   UNL d   1      21.197 -19.012   0.122  0.00  0.00     0.241 S 
ATOM     11  O   UNL d   1      21.484 -20.400  -0.178  0.00  0.00    -0.206 OA
ATOM     12  O   UNL d   1      20.867 -18.585   1.461  0.00  0.00    -0.206 OA
BRANCH  10  13
ATOM     13  N   UNL d   1      19.899 -18.577  -0.892  0.00  0.00    -0.209 NA
ATOM     14  H   UNL d   1      20.234 -18.234  -1.792  0.00  0.00     0.140 HD
BRANCH  13  15
ATOM     15  C   UNL d   1      18.996 -19.733  -1.109  0.00  0.00     0.169 C 
BRANCH  15  16
ATOM     16  C   UNL d   1      18.431 -20.315   0.146  0.00  0.00     0.066 A 
ATOM     17  C   UNL d   1      17.780 -21.519   0.337  0.00  0.00     0.036 A 
ATOM     18  C   UNL d   1      17.448 -21.594   1.707  0.00  0.00     0.027 A 
ATOM     19  C   UNL d   1      17.914 -20.432   2.273  0.00  0.00     0.142 A 
ATOM     20  O   UNL d   1      18.507 -19.640   1.333  0.00  0.00    -0.326 OA
ENDBRANCH  15  16
ENDBRANCH  13  15
ENDBRANCH  10  13
ENDBRANCH   5  10
ENDBRANCH   1   3
BRANCH   1  21
ATOM     21  O   UNL d   1      27.346 -17.173  -0.342  0.00  0.00    -0.308 OA
BRANCH  21  22
ATOM     22  C   UNL d   1      28.686 -17.500  -0.760  0.00  0.00     0.282 C 
BRANCH  22  23
ATOM     23  C   UNL d   1      29.122 -16.485  -1.880  0.00  0.00     0.249 C 
ATOM     24  O   UNL d   1      28.692 -15.337  -1.919  0.00  0.00    -0.271 OA
ATOM     25  N   UNL d   1      30.051 -16.999  -2.784  0.00  0.00    -0.277 N 
ATOM     26  C   UNL d   1      30.543 -16.429  -3.952  0.00  0.00     0.323 C 
ATOM     27  H   UNL d   1      30.040 -17.981  -2.704  0.00  0.00     0.173 HD
ATOM     28  O   UNL d   1      30.328 -15.266  -4.286  0.00  0.00    -0.247 OA
ATOM     29  N   UNL d   1      31.327 -17.176  -4.813  0.00  0.00    -0.338 N 
ATOM     30  H   UNL d   1      31.635 -16.591  -5.586  0.00  0.00     0.164 HD
BRANCH  29  31
ATOM     31  C   UNL d   1      31.808 -18.587  -4.882  0.00  0.00     0.089 C 
ATOM     32  C   UNL d   1      33.009 -18.769  -5.846  0.00  0.00     0.026 C 
ATOM     33  C   UNL d   1      32.642 -18.421  -7.291  0.00  0.00     0.002 C 
ATOM     34  C   UNL d   1      31.374 -19.146  -7.757  0.00  0.00     0.001 C 
ATOM     35  C   UNL d   1      30.232 -19.011  -6.753  0.00  0.00     0.006 C 
ATOM     36  C   UNL d   1      30.682 -19.489  -5.349  0.00  0.00     0.004 C 
ATOM     37  C   UNL d   1      30.895 -20.983  -5.285  0.00  0.00     0.012 C 
ENDBRANCH  29  31
ENDBRANCH  22  23
ENDBRANCH  21  22
ENDBRANCH   1  21
TORSDOF 9
ENDMDL
MODEL 5
REMARK VINA RESULT:   -27.974      2.036      3.923
REMARK INTER + INTRA:         -32.662
REMARK INTER:                 -30.659
REMARK INTRA:                  -2.003
REMARK CONF_INDEPENDENT:        2.685
REMARK UNBOUND:                -2.003
REMARK  9 active torsions:
REMARK  status: ('A' for Active; 'I' for Inactive)
REMARK    1  A    between atoms: C_5  and  S_6 
REMARK    2  A    between atoms: S_6  and  N_9 
REMARK    3  A    between atoms: N_9  and  C_10 
REMARK    4  A    between atoms: C_10  and  C_11 
REMARK    5  A    between atoms: C_17  and  C_18 
REMARK    6  A    between atoms: C_18  and  O_20 
REMARK    7  A    between atoms: O_20  and  C_21 
REMARK    8  A    between atoms: C_21  and  C_22 
REMARK       I    between atoms: C_22  and  N_24 
REMARK       I    between atoms: N_24  and  C_25 
REMARK       I    between atoms: C_25  and  N_27 
REMARK    9  A    between atoms: C_28  and  N_27 
ROOT
ATOM      1  C   UNL d   1      23.510 -14.951  -2.229  0.00  0.00     0.294 C 
ATOM      2  O   UNL d   1      22.434 -14.446  -2.469  0.00  0.00    -0.259 OA
ENDROOT
BRANCH   1   3
ATOM      3  C   UNL d   1      23.683 -16.203  -1.382  0.00  0.00     0.046 A 
ATOM      4  C   UNL d   1      22.505 -16.913  -1.040  0.00  0.00     0.042 A 
ATOM      5  C   UNL d   1      22.571 -18.089  -0.277  0.00  0.00     0.075 A 
ATOM      6  C   UNL d   1      23.806 -18.568   0.170  0.00  0.00     0.025 A 
ATOM      7  C   UNL d   1      24.973 -17.876  -0.154  0.00  0.00     0.009 A 
ATOM      8  C   UNL d   1      24.932 -16.700  -0.932  0.00  0.00    -0.046 A 
ATOM      9  C   UNL d   1      26.241 -16.028  -1.253  0.00  0.00     0.049 C 
BRANCH   5  10
ATOM     10  S   UNL d   1      21.126 -19.041   0.142  0.00  0.00     0.241 S 
ATOM     11  O   UNL d   1      21.426 -20.424  -0.173  0.00  0.00    -0.206 OA
ATOM     12  O   UNL d   1      20.714 -18.646   1.468  0.00  0.00    -0.206 OA
BRANCH  10  13
ATOM     13  N   UNL d   1      19.897 -18.574  -0.940  0.00  0.00    -0.209 NA
ATOM     14  H   UNL d   1      20.285 -18.304  -1.843  0.00  0.00     0.140 HD
BRANCH  13  15
ATOM     15  C   UNL d   1      18.923 -19.676  -1.131  0.00  0.00     0.169 C 
BRANCH  15  16
ATOM     16  C   UNL d   1      18.457 -20.311   0.139  0.00  0.00     0.066 A 
ATOM     17  C   UNL d   1      17.924 -21.570   0.344  0.00  0.00     0.036 A 
ATOM     18  C   UNL d   1      17.648 -21.679   1.724  0.00  0.00     0.027 A 
ATOM     19  C   UNL d   1      18.027 -20.481   2.281  0.00  0.00     0.142 A 
ATOM     20  O   UNL d   1      18.513 -19.636   1.327  0.00  0.00    -0.326 OA
ENDBRANCH  15  16
ENDBRANCH  13  15
ENDBRANCH  10  13
ENDBRANCH   5  10
ENDBRANCH   1   3
BRANCH   1  21
ATOM     21  O   UNL d   1      24.696 -14.482  -2.680  0.00  0.00    -0.308 OA
BRANCH  21  22
ATOM     22  C   UNL d   1      24.909 -14.202  -4.077  0.00  0.00     0.282 C 
BRANCH  22  23
ATOM     23  C   UNL d   1      26.227 -14.926  -4.539  0.00  0.00     0.249 C 
ATOM     24  O   UNL d   1      26.281 -15.573  -5.579  0.00  0.00    -0.271 OA
ATOM     25  N   UNL d   1      27.311 -14.736  -3.682  0.00  0.00    -0.277 N 
ATOM     26  C   UNL d   1      28.567 -15.328  -3.718  0.00  0.00     0.323 C 
ATOM     27  H   UNL d   1      26.963 -14.414  -2.819  0.00  0.00     0.173 HD
ATOM     28  O   UNL d   1      28.967 -16.025  -4.647  0.00  0.00    -0.247 OA
ATOM     29  N   UNL d   1      29.452 -15.144  -2.669  0.00  0.00    -0.338 N 
ATOM     30  H   UNL d   1      30.332 -15.606  -2.882  0.00  0.00     0.164 HD
BRANCH  29  31
ATOM     31  C   UNL d   1      29.424 -14.459  -1.344  0.00  0.00     0.089 C 
ATOM     32  C   UNL d   1      30.812 -13.919  -0.913  0.00  0.00     0.026 C 
ATOM     33  C   UNL d   1      31.836 -15.044  -0.738  0.00  0.00     0.002 C 
ATOM     34  C   UNL d   1      31.313 -16.167   0.166  0.00  0.00     0.001 C 
ATOM     35  C   UNL d   1      29.914 -16.627  -0.236  0.00  0.00     0.006 C 
ATOM     36  C   UNL d   1      28.938 -15.424  -0.279  0.00  0.00     0.004 C 
ATOM     37  C   UNL d   1      28.633 -14.874   1.094  0.00  0.00     0.012 C 
ENDBRANCH  29  31
ENDBRANCH  22  23
ENDBRANCH  21  22
ENDBRANCH   1  21
TORSDOF 9
ENDMDL
MODEL 6
REMARK VINA RESULT:   -27.752      2.136      3.723
REMARK INTER + INTRA:         -31.611
REMARK INTER:                 -30.436
REMARK INTRA:                  -1.175
REMARK CONF_INDEPENDENT:        2.685
REMARK UNBOUND:                -1.175
REMARK  9 active torsions:
REMARK  status: ('A' for Active; 'I' for Inactive)
REMARK    1  A    between atoms: C_5  and  S_6 
REMARK    2  A    between atoms: S_6  and  N_9 
REMARK    3  A    between atoms: N_9  and  C_10 
REMARK    4  A    between atoms: C_10  and  C_11 
REMARK    5  A    between atoms: C_17  and  C_18 
REMARK    6  A    between atoms: C_18  and  O_20 
REMARK    7  A    between atoms: O_20  and  C_21 
REMARK    8  A    between atoms: C_21  and  C_22 
REMARK       I    between atoms: C_22  and  N_24 
REMARK       I    between atoms: N_24  and  C_25 
REMARK       I    between atoms: C_25  and  N_27 
REMARK    9  A    between atoms: C_28  and  N_27 
ROOT
ATOM      1  C   UNL d   1      23.698 -15.200  -2.293  0.00  0.00     0.294 C 
ATOM      2  O   UNL d   1      22.737 -14.460  -2.350  0.00  0.00    -0.259 OA
ENDROOT
BRANCH   1   3
ATOM      3  C   UNL d   1      23.791 -16.387  -1.347  0.00  0.00     0.046 A 
ATOM      4  C   UNL d   1      22.578 -17.042  -1.018  0.00  0.00     0.042 A 
ATOM      5  C   UNL d   1      22.571 -18.157  -0.167  0.00  0.00     0.075 A 
ATOM      6  C   UNL d   1      23.767 -18.628   0.383  0.00  0.00     0.025 A 
ATOM      7  C   UNL d   1      24.969 -17.990   0.073  0.00  0.00     0.009 A 
ATOM      8  C   UNL d   1      25.000 -16.876  -0.792  0.00  0.00    -0.046 A 
ATOM      9  C   UNL d   1      26.343 -16.261  -1.090  0.00  0.00     0.049 C 
BRANCH   5  10
ATOM     10  S   UNL d   1      21.081 -19.042   0.242  0.00  0.00     0.241 S 
ATOM     11  O   UNL d   1      21.343 -20.446  -0.007  0.00  0.00    -0.206 OA
ATOM     12  O   UNL d   1      20.642 -18.578   1.537  0.00  0.00    -0.206 OA
BRANCH  10  13
ATOM     13  N   UNL d   1      19.905 -18.579  -0.898  0.00  0.00    -0.209 NA
ATOM     14  H   UNL d   1      20.337 -18.248  -1.760  0.00  0.00     0.140 HD
BRANCH  13  15
ATOM     15  C   UNL d   1      18.999 -19.713  -1.204  0.00  0.00     0.169 C 
BRANCH  15  16
ATOM     16  C   UNL d   1      18.534 -20.468  -0.002  0.00  0.00     0.066 A 
ATOM     17  C   UNL d   1      17.532 -21.415   0.103  0.00  0.00     0.036 A 
ATOM     18  C   UNL d   1      17.491 -21.822   1.453  0.00  0.00     0.027 A 
ATOM     19  C   UNL d   1      18.469 -21.100   2.096  0.00  0.00     0.142 A 
ATOM     20  O   UNL d   1      19.106 -20.266   1.224  0.00  0.00    -0.326 OA
ENDBRANCH  15  16
ENDBRANCH  13  15
ENDBRANCH  10  13
ENDBRANCH   5  10
ENDBRANCH   1   3
BRANCH   1  21
ATOM     21  O   UNL d   1      24.806 -15.079  -3.059  0.00  0.00    -0.308 OA
BRANCH  21  22
ATOM     22  C   UNL d   1      24.910 -14.058  -4.071  0.00  0.00     0.282 C 
BRANCH  22  23
ATOM     23  C   UNL d   1      26.216 -13.221  -3.806  0.00  0.00     0.249 C 
ATOM     24  O   UNL d   1      26.220 -11.996  -3.849  0.00  0.00    -0.271 OA
ATOM     25  N   UNL d   1      27.334 -13.993  -3.493  0.00  0.00    -0.277 N 
ATOM     26  C   UNL d   1      28.655 -13.594  -3.331  0.00  0.00     0.323 C 
ATOM     27  H   UNL d   1      27.149 -14.921  -3.769  0.00  0.00     0.173 HD
ATOM     28  O   UNL d   1      29.012 -12.420  -3.294  0.00  0.00    -0.247 OA
ATOM     29  N   UNL d   1      29.655 -14.542  -3.199  0.00  0.00    -0.338 N 
ATOM     30  H   UNL d   1      30.546 -14.075  -3.044  0.00  0.00     0.164 HD
BRANCH  29  31
ATOM     31  C   UNL d   1      29.740 -16.031  -3.232  0.00  0.00     0.089 C 
ATOM     32  C   UNL d   1      30.580 -16.614  -2.066  0.00  0.00     0.026 C 
ATOM     33  C   UNL d   1      32.038 -16.148  -2.121  0.00  0.00     0.002 C 
ATOM     34  C   UNL d   1      32.668 -16.381  -3.500  0.00  0.00     0.001 C 
ATOM     35  C   UNL d   1      31.784 -15.862  -4.632  0.00  0.00     0.006 C 
ATOM     36  C   UNL d   1      30.365 -16.479  -4.539  0.00  0.00     0.004 C 
ATOM     37  C   UNL d   1      30.350 -17.953  -4.866  0.00  0.00     0.012 C 
ENDBRANCH  29  31
ENDBRANCH  22  23
ENDBRANCH  21  22
ENDBRANCH   1  21
TORSDOF 9
ENDMDL
MODEL 7
REMARK VINA RESULT:   -27.624      2.632      4.182
REMARK INTER + INTRA:         -32.337
REMARK INTER:                 -30.309
REMARK INTRA:                  -2.028
REMARK CONF_INDEPENDENT:        2.685
REMARK UNBOUND:                -2.028
REMARK  9 active torsions:
REMARK  status: ('A' for Active; 'I' for Inactive)
REMARK    1  A    between atoms: C_5  and  S_6 
REMARK    2  A    between atoms: S_6  and  N_9 
REMARK    3  A    between atoms: N_9  and  C_10 
REMARK    4  A    between atoms: C_10  and  C_11 
REMARK    5  A    between atoms: C_17  and  C_18 
REMARK    6  A    between atoms: C_18  and  O_20 
REMARK    7  A    between atoms: O_20  and  C_21 
REMARK    8  A    between atoms: C_21  and  C_22 
REMARK       I    between atoms: C_22  and  N_24 
REMARK       I    between atoms: N_24  and  C_25 
REMARK       I    between atoms: C_25  and  N_27 
REMARK    9  A    between atoms: C_28  and  N_27 
ROOT
ATOM      1  C   UNL d   1      23.841 -15.194  -2.031  0.00  0.00     0.294 C 
ATOM      2  O   UNL d   1      22.821 -14.725  -2.492  0.00  0.00    -0.259 OA
ENDROOT
BRANCH   1   3
ATOM      3  C   UNL d   1      23.891 -16.501  -1.255  0.00  0.00     0.046 A 
ATOM      4  C   UNL d   1      22.649 -17.083  -0.897  0.00  0.00     0.042 A 
ATOM      5  C   UNL d   1      22.599 -18.296  -0.196  0.00  0.00     0.075 A 
ATOM      6  C   UNL d   1      23.782 -18.943   0.174  0.00  0.00     0.025 A 
ATOM      7  C   UNL d   1      25.012 -18.380  -0.167  0.00  0.00     0.009 A 
ATOM      8  C   UNL d   1      25.086 -17.168  -0.884  0.00  0.00    -0.046 A 
ATOM      9  C   UNL d   1      26.454 -16.642  -1.229  0.00  0.00     0.049 C 
BRANCH   5  10
ATOM     10  S   UNL d   1      21.065 -19.090   0.240  0.00  0.00     0.241 S 
ATOM     11  O   UNL d   1      21.244 -20.509   0.008  0.00  0.00    -0.206 OA
ATOM     12  O   UNL d   1      20.666 -18.584   1.532  0.00  0.00    -0.206 OA
BRANCH  10  13
ATOM     13  N   UNL d   1      19.905 -18.576  -0.896  0.00  0.00    -0.209 NA
ATOM     14  H   UNL d   1      20.342 -18.332  -1.785  0.00  0.00     0.140 HD
BRANCH  13  15
ATOM     15  C   UNL d   1      18.890 -19.633  -1.120  0.00  0.00     0.169 C 
BRANCH  15  16
ATOM     16  C   UNL d   1      18.405 -20.292   0.130  0.00  0.00     0.066 A 
ATOM     17  C   UNL d   1      17.751 -21.501   0.286  0.00  0.00     0.036 A 
ATOM     18  C   UNL d   1      17.513 -21.664   1.667  0.00  0.00     0.027 A 
ATOM     19  C   UNL d   1      18.033 -20.547   2.275  0.00  0.00     0.142 A 
ATOM     20  O   UNL d   1      18.571 -19.699   1.351  0.00  0.00    -0.326 OA
ENDBRANCH  15  16
ENDBRANCH  13  15
ENDBRANCH  10  13
ENDBRANCH   5  10
ENDBRANCH   1   3
BRANCH   1  21
ATOM     21  O   UNL d   1      25.066 -14.631  -2.147  0.00  0.00    -0.308 OA
BRANCH  21  22
ATOM     22  C   UNL d   1      25.649 -14.365  -3.437  0.00  0.00     0.282 C 
BRANCH  22  23
ATOM     23  C   UNL d   1      27.209 -14.245  -3.266  0.00  0.00     0.249 C 
ATOM     24  O   UNL d   1      27.968 -14.235  -4.230  0.00  0.00    -0.271 OA
ATOM     25  N   UNL d   1      27.629 -14.121  -1.943  0.00  0.00    -0.277 N 
ATOM     26  C   UNL d   1      28.921 -14.125  -1.432  0.00  0.00     0.323 C 
ATOM     27  H   UNL d   1      26.888 -14.410  -1.361  0.00  0.00     0.173 HD
ATOM     28  O   UNL d   1      29.930 -14.086  -2.130  0.00  0.00    -0.247 OA
ATOM     29  N   UNL d   1      29.126 -14.172  -0.063  0.00  0.00    -0.338 N 
ATOM     30  H   UNL d   1      30.123 -14.121   0.132  0.00  0.00     0.164 HD
BRANCH  29  31
ATOM     31  C   UNL d   1      28.268 -14.280   1.152  0.00  0.00     0.089 C 
ATOM     32  C   UNL d   1      27.112 -13.247   1.169  0.00  0.00     0.026 C 
ATOM     33  C   UNL d   1      27.630 -11.807   1.197  0.00  0.00     0.002 C 
ATOM     34  C   UNL d   1      28.660 -11.584   2.310  0.00  0.00     0.001 C 
ATOM     35  C   UNL d   1      29.745 -12.658   2.315  0.00  0.00     0.006 C 
ATOM     36  C   UNL d   1      29.112 -14.070   2.395  0.00  0.00     0.004 C 
ATOM     37  C   UNL d   1      28.481 -14.348   3.738  0.00  0.00     0.012 C 
ENDBRANCH  29  31
ENDBRANCH  22  23
ENDBRANCH  21  22
ENDBRANCH   1  21
TORSDOF 9
ENDMDL
