MODEL 1
REMARK VINA RESULT:   -11.108      0.000      0.000
REMARK INTER + INTRA:         -15.722
REMARK INTER:                 -13.793
REMARK INTRA:                  -1.929
REMARK CONF_INDEPENDENT:        2.685
REMARK UNBOUND:                -1.929
REMARK  9 active torsions:
REMARK  status: ('A' for Active; 'I' for Inactive)
REMARK    1  A    between atoms: O_2  and  C_3 
REMARK    2  A    between atoms: C_9  and  C_10 
REMARK    3  A    between atoms: C_10  and  C_11 
REMARK    4  A    between atoms: C_11  and  N_12 
REMARK       I    between atoms: N_12  and  C_13 
REMARK    5  A    between atoms: C_13  and  C_15 
REMARK    6  A    between atoms: C_15  and  C_16 
REMARK    7  A    between atoms: C_16  and  C_17 
REMARK    8  A    between atoms: C_20  and  C_21 
REMARK       I    between atoms: C_21  and  N_23 
REMARK    9  A    between atoms: N_23  and  C_24 
ROOT
ATOM      1  C   UNL d   1      27.777 -16.848   0.413  0.00  0.00     0.105 C 
ENDROOT
BRANCH   1   2
ATOM      2  C   UNL d   1      27.645 -15.354   0.604  0.00  0.00     0.217 C 
ATOM      3  N   UNL d   1      28.368 -14.842   1.660  0.00  0.00    -0.361 N 
ATOM      4  H   UNL d   1      28.910 -15.462   2.253  0.00  0.00     0.162 HD
ATOM      5  O   UNL d   1      26.963 -14.627  -0.119  0.00  0.00    -0.274 OA
BRANCH   3   6
ATOM      6  C   UNL d   1      28.291 -13.429   1.926  0.00  0.00     0.127 C 
BRANCH   6   7
ATOM      7  C   UNL d   1      27.393 -13.074   3.106  0.00  0.00     0.056 C 
BRANCH   7   8
ATOM      8  C   UNL d   1      27.845 -13.671   4.405  0.00  0.00    -0.048 A 
ATOM      9  C   UNL d   1      28.270 -12.990   5.475  0.00  0.00    -0.003 A 
ATOM     10  C   UNL d   1      28.584 -14.012   6.488  0.00  0.00     0.039 A 
ATOM     11  C   UNL d   1      28.418 -11.601   5.761  0.00  0.00     0.050 A 
ATOM     12  C   UNL d   1      29.071 -13.553   7.800  0.00  0.00     0.033 A 
ATOM     13  N   UNL d   1      28.373 -15.201   6.054  0.00  0.00    -0.385 N 
ATOM     14  C   UNL d   1      29.190 -12.220   7.992  0.00  0.00     0.039 A 
ATOM     15  C   UNL d   1      28.867 -11.224   6.969  0.00  0.00     0.069 A 
ATOM     16  C   UNL d   1      27.876 -15.152   4.665  0.00  0.00     0.155 A 
ATOM     17  H   UNL d   1      28.529 -16.043   6.600  0.00  0.00     0.160 HD
BRANCH  15  18
ATOM     18  O   UNL d   1      28.861  -9.886   7.293  0.00  0.00    -0.356 OA
ATOM     19  C   UNL d   1      30.037  -9.343   7.884  0.00  0.00     0.210 C 
ENDBRANCH  15  18
ENDBRANCH   7   8
ENDBRANCH   6   7
ENDBRANCH   3   6
ENDBRANCH   1   2
BRANCH   1  20
ATOM     20  C   UNL d   1      26.450 -17.554   0.722  0.00  0.00     0.041 C 
BRANCH  20  21
ATOM     21  C   UNL d   1      25.506 -17.584  -0.479  0.00  0.00     0.135 C 
ATOM     22  N   UNL d   1      24.801 -16.310  -0.632  0.00  0.00    -0.245 NA
ATOM     23  N   UNL d   1      23.429 -16.504  -1.098  0.00  0.00    -0.237 NA
ATOM     24  H   UNL d   1      25.348 -15.648  -1.189  0.00  0.00     0.142 HD
ATOM     25  C   UNL d   1      23.123 -17.927  -1.324  0.00  0.00     0.226 C 
ATOM     26  H   UNL d   1      23.178 -15.938  -1.910  0.00  0.00     0.142 HD
ATOM     27  S   UNL d   1      24.286 -18.894  -0.352  0.00  0.00    -0.117 SA
BRANCH  25  28
ATOM     28  C   UNL d   1      21.685 -18.279  -0.892  0.00  0.00     0.251 C 
ATOM     29  O   UNL d   1      20.761 -17.468  -0.992  0.00  0.00    -0.270 OA
ATOM     30  N   UNL d   1      21.548 -19.545  -0.283  0.00  0.00    -0.325 N 
ATOM     31  H   UNL d   1      22.387 -20.021   0.021  0.00  0.00     0.169 HD
BRANCH  30  32
ATOM     32  C   UNL d   1      20.338 -19.881   0.376  0.00  0.00     0.034 C 
ATOM     33  C   UNL d   1      20.280 -19.860   1.771  0.00  0.00     0.029 C 
ATOM     34  C   UNL d   1      19.216 -20.444   2.448  0.00  0.00     0.002 C 
ATOM     35  C   UNL d   1      18.136 -20.948   1.731  0.00  0.00     0.000 C 
ATOM     36  C   UNL d   1      18.110 -20.826   0.341  0.00  0.00     0.002 C 
ATOM     37  C   UNL d   1      19.223 -20.316  -0.346  0.00  0.00     0.029 C 
ENDBRANCH  30  32
ENDBRANCH  25  28
ENDBRANCH  20  21
ENDBRANCH   1  20
TORSDOF 9
ENDMDL
MODEL 2
REMARK VINA RESULT:   -10.107      4.870      8.299
REMARK INTER + INTRA:         -14.676
REMARK INTER:                 -12.791
REMARK INTRA:                  -1.884
REMARK CONF_INDEPENDENT:        2.685
REMARK UNBOUND:                -1.884
REMARK  9 active torsions:
REMARK  status: ('A' for Active; 'I' for Inactive)
REMARK    1  A    between atoms: O_2  and  C_3 
REMARK    2  A    between atoms: C_9  and  C_10 
REMARK    3  A    between atoms: C_10  and  C_11 
REMARK    4  A    between atoms: C_11  and  N_12 
REMARK       I    between atoms: N_12  and  C_13 
REMARK    5  A    between atoms: C_13  and  C_15 
REMARK    6  A    between atoms: C_15  and  C_16 
REMARK    7  A    between atoms: C_16  and  C_17 
REMARK    8  A    between atoms: C_20  and  C_21 
REMARK       I    between atoms: C_21  and  N_23 
REMARK    9  A    between atoms: N_23  and  C_24 
ROOT
ATOM      1  C   UNL d   1      27.477 -16.614   0.491  0.00  0.00     0.105 C 
ENDROOT
BRANCH   1   2
ATOM      2  C   UNL d   1      27.889 -16.508  -0.960  0.00  0.00     0.217 C 
ATOM      3  N   UNL d   1      27.121 -15.646  -1.714  0.00  0.00    -0.361 N 
ATOM      4  H   UNL d   1      26.335 -15.163  -1.293  0.00  0.00     0.162 HD
ATOM      5  O   UNL d   1      28.835 -17.122  -1.451  0.00  0.00    -0.274 OA
BRANCH   3   6
ATOM      6  C   UNL d   1      27.433 -15.494  -3.113  0.00  0.00     0.127 C 
BRANCH   6   7
ATOM      7  C   UNL d   1      28.855 -15.014  -3.377  0.00  0.00     0.056 C 
BRANCH   7   8
ATOM      8  C   UNL d   1      29.355 -15.348  -4.751  0.00  0.00    -0.048 A 
ATOM      9  C   UNL d   1      29.872 -16.520  -5.134  0.00  0.00    -0.003 A 
ATOM     10  C   UNL d   1      30.197 -16.356  -6.561  0.00  0.00     0.039 A 
ATOM     11  C   UNL d   1      30.101 -17.759  -4.465  0.00  0.00     0.050 A 
ATOM     12  C   UNL d   1      30.780 -17.508  -7.271  0.00  0.00     0.033 A 
ATOM     13  N   UNL d   1      29.906 -15.181  -6.989  0.00  0.00    -0.385 N 
ATOM     14  C   UNL d   1      30.971 -18.645  -6.566  0.00  0.00     0.039 A 
ATOM     15  C   UNL d   1      30.636 -18.784  -5.148  0.00  0.00     0.069 A 
ATOM     16  C   UNL d   1      29.332 -14.373  -5.896  0.00  0.00     0.155 A 
ATOM     17  H   UNL d   1      30.055 -14.870  -7.944  0.00  0.00     0.160 HD
BRANCH  15  18
ATOM     18  O   UNL d   1      30.710 -20.019  -4.544  0.00  0.00    -0.356 OA
ATOM     19  C   UNL d   1      31.226 -21.101  -5.312  0.00  0.00     0.210 C 
ENDBRANCH  15  18
ENDBRANCH   7   8
ENDBRANCH   6   7
ENDBRANCH   3   6
ENDBRANCH   1   2
BRANCH   1  20
ATOM     20  C   UNL d   1      26.291 -17.574   0.651  0.00  0.00     0.041 C 
BRANCH  20  21
ATOM     21  C   UNL d   1      25.335 -17.531  -0.540  0.00  0.00     0.135 C 
ATOM     22  N   UNL d   1      24.584 -16.274  -0.573  0.00  0.00    -0.245 NA
ATOM     23  N   UNL d   1      23.214 -16.474  -1.043  0.00  0.00    -0.237 NA
ATOM     24  H   UNL d   1      25.101 -15.546  -1.073  0.00  0.00     0.142 HD
ATOM     25  C   UNL d   1      22.955 -17.882  -1.392  0.00  0.00     0.226 C 
ATOM     26  H   UNL d   1      22.934 -15.847  -1.799  0.00  0.00     0.142 HD
ATOM     27  S   UNL d   1      24.162 -18.889  -0.520  0.00  0.00    -0.117 SA
BRANCH  25  28
ATOM     28  C   UNL d   1      21.535 -18.322  -0.981  0.00  0.00     0.251 C 
ATOM     29  O   UNL d   1      20.542 -17.646  -1.259  0.00  0.00    -0.270 OA
ATOM     30  N   UNL d   1      21.488 -19.483  -0.181  0.00  0.00    -0.325 N 
ATOM     31  H   UNL d   1      22.350 -19.808   0.239  0.00  0.00     0.169 HD
BRANCH  30  32
ATOM     32  C   UNL d   1      20.279 -19.845   0.463  0.00  0.00     0.034 C 
ATOM     33  C   UNL d   1      20.207 -19.841   1.857  0.00  0.00     0.029 C 
ATOM     34  C   UNL d   1      19.145 -20.450   2.517  0.00  0.00     0.002 C 
ATOM     35  C   UNL d   1      18.080 -20.963   1.784  0.00  0.00     0.000 C 
ATOM     36  C   UNL d   1      18.066 -20.825   0.395  0.00  0.00     0.002 C 
ATOM     37  C   UNL d   1      19.177 -20.290  -0.275  0.00  0.00     0.029 C 
ENDBRANCH  30  32
ENDBRANCH  25  28
ENDBRANCH  20  21
ENDBRANCH   1  20
TORSDOF 9
ENDMDL
MODEL 3
REMARK VINA RESULT:   -10.077      4.819      7.740
REMARK INTER + INTRA:         -14.741
REMARK INTER:                 -12.762
REMARK INTRA:                  -1.980
REMARK CONF_INDEPENDENT:        2.685
REMARK UNBOUND:                -1.980
REMARK  9 active torsions:
REMARK  status: ('A' for Active; 'I' for Inactive)
REMARK    1  A    between atoms: O_2  and  C_3 
REMARK    2  A    between atoms: C_9  and  C_10 
REMARK    3  A    between atoms: C_10  and  C_11 
REMARK    4  A    between atoms: C_11  and  N_12 
REMARK       I    between atoms: N_12  and  C_13 
REMARK    5  A    between atoms: C_13  and  C_15 
REMARK    6  A    between atoms: C_15  and  C_16 
REMARK    7  A    between atoms: C_16  and  C_17 
REMARK    8  A    between atoms: C_20  and  C_21 
REMARK       I    between atoms: C_21  and  N_23 
REMARK    9  A    between atoms: N_23  and  C_24 
ROOT
ATOM      1  C   UNL d   1      27.481 -16.634   0.600  0.00  0.00     0.105 C 
ENDROOT
BRANCH   1   2
ATOM      2  C   UNL d   1      28.031 -16.596  -0.808  0.00  0.00     0.217 C 
ATOM      3  N   UNL d   1      27.288 -15.847  -1.696  0.00  0.00    -0.361 N 
ATOM      4  H   UNL d   1      26.431 -15.398  -1.390  0.00  0.00     0.162 HD
ATOM      5  O   UNL d   1      29.063 -17.167  -1.157  0.00  0.00    -0.274 OA
BRANCH   3   6
ATOM      6  C   UNL d   1      27.730 -15.766  -3.065  0.00  0.00     0.127 C 
BRANCH   6   7
ATOM      7  C   UNL d   1      26.597 -15.575  -4.066  0.00  0.00     0.056 C 
BRANCH   7   8
ATOM      8  C   UNL d   1      26.230 -14.138  -4.289  0.00  0.00    -0.048 A 
ATOM      9  C   UNL d   1      26.796 -13.312  -5.176  0.00  0.00    -0.003 A 
ATOM     10  C   UNL d   1      26.088 -12.030  -5.022  0.00  0.00     0.039 A 
ATOM     11  C   UNL d   1      27.829 -13.471  -6.146  0.00  0.00     0.050 A 
ATOM     12  C   UNL d   1      26.492 -10.913  -5.893  0.00  0.00     0.033 A 
ATOM     13  N   UNL d   1      25.183 -12.086  -4.114  0.00  0.00    -0.385 N 
ATOM     14  C   UNL d   1      27.483 -11.140  -6.784  0.00  0.00     0.039 A 
ATOM     15  C   UNL d   1      28.169 -12.426  -6.919  0.00  0.00     0.069 A 
ATOM     16  C   UNL d   1      25.148 -13.435  -3.516  0.00  0.00     0.155 A 
ATOM     17  H   UNL d   1      24.585 -11.306  -3.857  0.00  0.00     0.160 HD
BRANCH  15  18
ATOM     18  O   UNL d   1      29.053 -12.625  -7.955  0.00  0.00    -0.356 OA
ATOM     19  C   UNL d   1      30.286 -13.273  -7.657  0.00  0.00     0.210 C 
ENDBRANCH  15  18
ENDBRANCH   7   8
ENDBRANCH   6   7
ENDBRANCH   3   6
ENDBRANCH   1   2
BRANCH   1  20
ATOM     20  C   UNL d   1      26.333 -17.648   0.707  0.00  0.00     0.041 C 
BRANCH  20  21
ATOM     21  C   UNL d   1      25.388 -17.595  -0.492  0.00  0.00     0.135 C 
ATOM     22  N   UNL d   1      24.655 -16.328  -0.535  0.00  0.00    -0.245 NA
ATOM     23  N   UNL d   1      23.287 -16.511  -1.017  0.00  0.00    -0.237 NA
ATOM     24  H   UNL d   1      25.186 -15.609  -1.033  0.00  0.00     0.142 HD
ATOM     25  C   UNL d   1      23.011 -17.917  -1.364  0.00  0.00     0.226 C 
ATOM     26  H   UNL d   1      23.022 -15.883  -1.777  0.00  0.00     0.142 HD
ATOM     27  S   UNL d   1      24.197 -18.938  -0.478  0.00  0.00    -0.117 SA
BRANCH  25  28
ATOM     28  C   UNL d   1      21.582 -18.336  -0.963  0.00  0.00     0.251 C 
ATOM     29  O   UNL d   1      20.603 -17.635  -1.229  0.00  0.00    -0.270 OA
ATOM     30  N   UNL d   1      21.511 -19.511  -0.186  0.00  0.00    -0.325 N 
ATOM     31  H   UNL d   1      22.364 -19.861   0.229  0.00  0.00     0.169 HD
BRANCH  30  32
ATOM     32  C   UNL d   1      20.292 -19.861   0.449  0.00  0.00     0.034 C 
ATOM     33  C   UNL d   1      20.209 -19.853   1.843  0.00  0.00     0.029 C 
ATOM     34  C   UNL d   1      19.137 -20.451   2.495  0.00  0.00     0.002 C 
ATOM     35  C   UNL d   1      18.074 -20.957   1.755  0.00  0.00     0.000 C 
ATOM     36  C   UNL d   1      18.072 -20.822   0.366  0.00  0.00     0.002 C 
ATOM     37  C   UNL d   1      19.193 -20.298  -0.297  0.00  0.00     0.029 C 
ENDBRANCH  30  32
ENDBRANCH  25  28
ENDBRANCH  20  21
ENDBRANCH   1  20
TORSDOF 9
ENDMDL
MODEL 4
REMARK VINA RESULT:    -9.927      4.650      7.921
REMARK INTER + INTRA:         -14.520
REMARK INTER:                 -12.612
REMARK INTRA:                  -1.908
REMARK CONF_INDEPENDENT:        2.685
REMARK UNBOUND:                -1.908
REMARK  9 active torsions:
REMARK  status: ('A' for Active; 'I' for Inactive)
REMARK    1  A    between atoms: O_2  and  C_3 
REMARK    2  A    between atoms: C_9  and  C_10 
REMARK    3  A    between atoms: C_10  and  C_11 
REMARK    4  A    between atoms: C_11  and  N_12 
REMARK       I    between atoms: N_12  and  C_13 
REMARK    5  A    between atoms: C_13  and  C_15 
REMARK    6  A    between atoms: C_15  and  C_16 
REMARK    7  A    between atoms: C_16  and  C_17 
REMARK    8  A    between atoms: C_20  and  C_21 
REMARK       I    between atoms: C_21  and  N_23 
REMARK    9  A    between atoms: N_23  and  C_24 
ROOT
ATOM      1  C   UNL d   1      27.421 -16.879   0.978  0.00  0.00     0.105 C 
ENDROOT
BRANCH   1   2
ATOM      2  C   UNL d   1      27.926 -16.505  -0.398  0.00  0.00     0.217 C 
ATOM      3  N   UNL d   1      29.160 -17.028  -0.720  0.00  0.00    -0.361 N 
ATOM      4  H   UNL d   1      29.666 -17.591  -0.044  0.00  0.00     0.162 HD
ATOM      5  O   UNL d   1      27.300 -15.802  -1.190  0.00  0.00    -0.274 OA
BRANCH   3   6
ATOM      6  C   UNL d   1      29.726 -16.712  -2.006  0.00  0.00     0.127 C 
BRANCH   6   7
ATOM      7  C   UNL d   1      30.633 -17.803  -2.564  0.00  0.00     0.056 C 
BRANCH   7   8
ATOM      8  C   UNL d   1      31.204 -17.477  -3.911  0.00  0.00    -0.048 A 
ATOM      9  C   UNL d   1      30.583 -16.800  -4.884  0.00  0.00    -0.003 A 
ATOM     10  C   UNL d   1      31.553 -16.730  -5.990  0.00  0.00     0.039 A 
ATOM     11  C   UNL d   1      29.300 -16.188  -4.990  0.00  0.00     0.050 A 
ATOM     12  C   UNL d   1      31.148 -16.019  -7.215  0.00  0.00     0.033 A 
ATOM     13  N   UNL d   1      32.655 -17.323  -5.704  0.00  0.00    -0.385 N 
ATOM     14  C   UNL d   1      29.913 -15.470  -7.241  0.00  0.00     0.039 A 
ATOM     15  C   UNL d   1      28.969 -15.552  -6.125  0.00  0.00     0.069 A 
ATOM     16  C   UNL d   1      32.587 -17.884  -4.340  0.00  0.00     0.155 A 
ATOM     17  H   UNL d   1      33.449 -17.385  -6.334  0.00  0.00     0.160 HD
BRANCH  15  18
ATOM     18  O   UNL d   1      27.796 -14.832  -6.166  0.00  0.00    -0.356 OA
ATOM     19  C   UNL d   1      26.761 -15.201  -5.261  0.00  0.00     0.210 C 
ENDBRANCH  15  18
ENDBRANCH   7   8
ENDBRANCH   6   7
ENDBRANCH   3   6
ENDBRANCH   1   2
BRANCH   1  20
ATOM     20  C   UNL d   1      26.303 -17.925   0.881  0.00  0.00     0.041 C 
BRANCH  20  21
ATOM     21  C   UNL d   1      25.368 -17.678  -0.301  0.00  0.00     0.135 C 
ATOM     22  N   UNL d   1      24.653 -16.408  -0.156  0.00  0.00    -0.245 NA
ATOM     23  N   UNL d   1      23.285 -16.495  -0.666  0.00  0.00    -0.237 NA
ATOM     24  H   UNL d   1      25.198 -15.631  -0.537  0.00  0.00     0.142 HD
ATOM     25  C   UNL d   1      22.992 -17.828  -1.223  0.00  0.00     0.226 C 
ATOM     26  H   UNL d   1      23.035 -15.756  -1.325  0.00  0.00     0.142 HD
ATOM     27  S   UNL d   1      24.157 -18.989  -0.495  0.00  0.00    -0.117 SA
BRANCH  25  28
ATOM     28  C   UNL d   1      21.554 -18.281  -0.897  0.00  0.00     0.251 C 
ATOM     29  O   UNL d   1      20.574 -17.610  -1.226  0.00  0.00    -0.270 OA
ATOM     30  N   UNL d   1      21.470 -19.448  -0.109  0.00  0.00    -0.325 N 
ATOM     31  H   UNL d   1      22.309 -19.771   0.357  0.00  0.00     0.169 HD
BRANCH  30  32
ATOM     32  C   UNL d   1      20.228 -19.824   0.461  0.00  0.00     0.034 C 
ATOM     33  C   UNL d   1      20.075 -19.827   1.849  0.00  0.00     0.029 C 
ATOM     34  C   UNL d   1      18.982 -20.448   2.443  0.00  0.00     0.002 C 
ATOM     35  C   UNL d   1      17.966 -20.966   1.648  0.00  0.00     0.000 C 
ATOM     36  C   UNL d   1      18.032 -20.822   0.261  0.00  0.00     0.002 C 
ATOM     37  C   UNL d   1      19.175 -20.274  -0.341  0.00  0.00     0.029 C 
ENDBRANCH  30  32
ENDBRANCH  25  28
ENDBRANCH  20  21
ENDBRANCH   1  20
TORSDOF 9
ENDMDL
MODEL 5
REMARK VINA RESULT:    -9.824      4.996      7.030
REMARK INTER + INTRA:         -14.452
REMARK INTER:                 -12.509
REMARK INTRA:                  -1.943
REMARK CONF_INDEPENDENT:        2.685
REMARK UNBOUND:                -1.943
REMARK  9 active torsions:
REMARK  status: ('A' for Active; 'I' for Inactive)
REMARK    1  A    between atoms: O_2  and  C_3 
REMARK    2  A    between atoms: C_9  and  C_10 
REMARK    3  A    between atoms: C_10  and  C_11 
REMARK    4  A    between atoms: C_11  and  N_12 
REMARK       I    between atoms: N_12  and  C_13 
REMARK    5  A    between atoms: C_13  and  C_15 
REMARK    6  A    between atoms: C_15  and  C_16 
REMARK    7  A    between atoms: C_16  and  C_17 
REMARK    8  A    between atoms: C_20  and  C_21 
REMARK       I    between atoms: C_21  and  N_23 
REMARK    9  A    between atoms: N_23  and  C_24 
ROOT
ATOM      1  C   UNL d   1      27.738 -17.973   0.233  0.00  0.00     0.105 C 
ENDROOT
BRANCH   1   2
ATOM      2  C   UNL d   1      28.084 -16.911  -0.786  0.00  0.00     0.217 C 
ATOM      3  N   UNL d   1      29.334 -17.041  -1.352  0.00  0.00    -0.361 N 
ATOM      4  H   UNL d   1      29.951 -17.791  -1.057  0.00  0.00     0.162 HD
ATOM      5  O   UNL d   1      27.324 -15.999  -1.111  0.00  0.00    -0.274 OA
BRANCH   3   6
ATOM      6  C   UNL d   1      29.754 -16.064  -2.324  0.00  0.00     0.127 C 
BRANCH   6   7
ATOM      7  C   UNL d   1      29.969 -16.638  -3.719  0.00  0.00     0.056 C 
BRANCH   7   8
ATOM      8  C   UNL d   1      29.459 -15.753  -4.817  0.00  0.00    -0.048 A 
ATOM      9  C   UNL d   1      28.532 -14.798  -4.687  0.00  0.00    -0.003 A 
ATOM     10  C   UNL d   1      28.388 -14.209  -6.029  0.00  0.00     0.039 A 
ATOM     11  C   UNL d   1      27.778 -14.304  -3.582  0.00  0.00     0.050 A 
ATOM     12  C   UNL d   1      27.429 -13.103  -6.196  0.00  0.00     0.033 A 
ATOM     13  N   UNL d   1      29.158 -14.772  -6.888  0.00  0.00    -0.385 N 
ATOM     14  C   UNL d   1      26.747 -12.696  -5.102  0.00  0.00     0.039 A 
ATOM     15  C   UNL d   1      26.912 -13.296  -3.777  0.00  0.00     0.069 A 
ATOM     16  C   UNL d   1      29.947 -15.836  -6.237  0.00  0.00     0.155 A 
ATOM     17  H   UNL d   1      29.207 -14.509  -7.868  0.00  0.00     0.160 HD
BRANCH  15  18
ATOM     18  O   UNL d   1      26.303 -12.722  -2.684  0.00  0.00    -0.356 OA
ATOM     19  C   UNL d   1      27.034 -12.686  -1.462  0.00  0.00     0.210 C 
ENDBRANCH  15  18
ENDBRANCH   7   8
ENDBRANCH   6   7
ENDBRANCH   3   6
ENDBRANCH   1   2
BRANCH   1  20
ATOM     20  C   UNL d   1      26.279 -17.834   0.688  0.00  0.00     0.041 C 
BRANCH  20  21
ATOM     21  C   UNL d   1      25.312 -17.654  -0.481  0.00  0.00     0.135 C 
ATOM     22  N   UNL d   1      24.598 -16.379  -0.387  0.00  0.00    -0.245 NA
ATOM     23  N   UNL d   1      23.218 -16.496  -0.856  0.00  0.00    -0.237 NA
ATOM     24  H   UNL d   1      25.131 -15.623  -0.826  0.00  0.00     0.142 HD
ATOM     25  C   UNL d   1      22.914 -17.858  -1.329  0.00  0.00     0.226 C 
ATOM     26  H   UNL d   1      22.949 -15.795  -1.548  0.00  0.00     0.142 HD
ATOM     27  S   UNL d   1      24.100 -18.975  -0.569  0.00  0.00    -0.117 SA
BRANCH  25  28
ATOM     28  C   UNL d   1      21.486 -18.293  -0.941  0.00  0.00     0.251 C 
ATOM     29  O   UNL d   1      20.503 -17.595  -1.200  0.00  0.00    -0.270 OA
ATOM     30  N   UNL d   1      21.420 -19.481  -0.182  0.00  0.00    -0.325 N 
ATOM     31  H   UNL d   1      22.275 -19.831   0.231  0.00  0.00     0.169 HD
BRANCH  30  32
ATOM     32  C   UNL d   1      20.202 -19.849   0.442  0.00  0.00     0.034 C 
ATOM     33  C   UNL d   1      20.112 -19.856   1.836  0.00  0.00     0.029 C 
ATOM     34  C   UNL d   1      19.042 -20.472   2.476  0.00  0.00     0.002 C 
ATOM     35  C   UNL d   1      17.988 -20.980   1.726  0.00  0.00     0.000 C 
ATOM     36  C   UNL d   1      17.992 -20.831   0.338  0.00  0.00     0.002 C 
ATOM     37  C   UNL d   1      19.111 -20.289  -0.313  0.00  0.00     0.029 C 
ENDBRANCH  30  32
ENDBRANCH  25  28
ENDBRANCH  20  21
ENDBRANCH   1  20
TORSDOF 9
ENDMDL
MODEL 6
REMARK VINA RESULT:    -9.131      3.745     10.198
REMARK INTER + INTRA:         -14.602
REMARK INTER:                 -11.816
REMARK INTRA:                  -2.786
REMARK CONF_INDEPENDENT:        2.685
REMARK UNBOUND:                -2.786
REMARK  9 active torsions:
REMARK  status: ('A' for Active; 'I' for Inactive)
REMARK    1  A    between atoms: O_2  and  C_3 
REMARK    2  A    between atoms: C_9  and  C_10 
REMARK    3  A    between atoms: C_10  and  C_11 
REMARK    4  A    between atoms: C_11  and  N_12 
REMARK       I    between atoms: N_12  and  C_13 
REMARK    5  A    between atoms: C_13  and  C_15 
REMARK    6  A    between atoms: C_15  and  C_16 
REMARK    7  A    between atoms: C_16  and  C_17 
REMARK    8  A    between atoms: C_20  and  C_21 
REMARK       I    between atoms: C_21  and  N_23 
REMARK    9  A    between atoms: N_23  and  C_24 
ROOT
ATOM      1  C   UNL d   1      27.288 -13.475   1.311  0.00  0.00     0.105 C 
ENDROOT
BRANCH   1   2
ATOM      2  C   UNL d   1      28.183 -14.280   0.396  0.00  0.00     0.217 C 
ATOM      3  N   UNL d   1      28.774 -15.376   0.988  0.00  0.00    -0.361 N 
ATOM      4  H   UNL d   1      28.615 -15.572   1.970  0.00  0.00     0.162 HD
ATOM      5  O   UNL d   1      28.376 -14.008  -0.788  0.00  0.00    -0.274 OA
BRANCH   3   6
ATOM      6  C   UNL d   1      29.656 -16.194   0.194  0.00  0.00     0.127 C 
BRANCH   6   7
ATOM      7  C   UNL d   1      28.936 -17.266  -0.616  0.00  0.00     0.056 C 
BRANCH   7   8
ATOM      8  C   UNL d   1      27.494 -17.432  -0.243  0.00  0.00    -0.048 A 
ATOM      9  C   UNL d   1      26.454 -16.846  -0.847  0.00  0.00    -0.003 A 
ATOM     10  C   UNL d   1      25.262 -17.330  -0.130  0.00  0.00     0.039 A 
ATOM     11  C   UNL d   1      26.335 -15.960  -1.958  0.00  0.00     0.050 A 
ATOM     12  C   UNL d   1      23.945 -16.858  -0.589  0.00  0.00     0.033 A 
ATOM     13  N   UNL d   1      25.567 -18.130   0.826  0.00  0.00    -0.385 N 
ATOM     14  C   UNL d   1      23.915 -16.015  -1.645  0.00  0.00     0.039 A 
ATOM     15  C   UNL d   1      25.115 -15.551  -2.342  0.00  0.00     0.069 A 
ATOM     16  C   UNL d   1      27.031 -18.305   0.892  0.00  0.00     0.155 A 
ATOM     17  H   UNL d   1      24.887 -18.571   1.439  0.00  0.00     0.160 HD
BRANCH  15  18
ATOM     18  O   UNL d   1      24.994 -14.824  -3.505  0.00  0.00    -0.356 OA
ATOM     19  C   UNL d   1      26.091 -14.838  -4.413  0.00  0.00     0.210 C 
ENDBRANCH  15  18
ENDBRANCH   7   8
ENDBRANCH   6   7
ENDBRANCH   3   6
ENDBRANCH   1   2
BRANCH   1  20
ATOM     20  C   UNL d   1      27.311 -14.048   2.735  0.00  0.00     0.041 C 
BRANCH  20  21
ATOM     21  C   UNL d   1      28.566 -13.648   3.509  0.00  0.00     0.135 C 
ATOM     22  N   UNL d   1      29.263 -14.825   4.033  0.00  0.00    -0.245 NA
ATOM     23  N   UNL d   1      29.854 -14.564   5.345  0.00  0.00    -0.237 NA
ATOM     24  H   UNL d   1      29.916 -15.206   3.343  0.00  0.00     0.142 HD
ATOM     25  C   UNL d   1      29.621 -13.177   5.785  0.00  0.00     0.226 C 
ATOM     26  H   UNL d   1      30.841 -14.816   5.418  0.00  0.00     0.142 HD
ATOM     27  S   UNL d   1      28.197 -12.552   4.882  0.00  0.00    -0.117 SA
BRANCH  25  28
ATOM     28  C   UNL d   1      29.337 -13.096   7.298  0.00  0.00     0.251 C 
ATOM     29  O   UNL d   1      29.533 -12.061   7.940  0.00  0.00    -0.270 OA
ATOM     30  N   UNL d   1      28.950 -14.317   7.889  0.00  0.00    -0.325 N 
ATOM     31  H   UNL d   1      29.093 -15.169   7.362  0.00  0.00     0.169 HD
BRANCH  30  32
ATOM     32  C   UNL d   1      28.902 -14.432   9.301  0.00  0.00     0.034 C 
ATOM     33  C   UNL d   1      27.957 -13.702  10.025  0.00  0.00     0.029 C 
ATOM     34  C   UNL d   1      28.062 -13.574  11.405  0.00  0.00     0.002 C 
ATOM     35  C   UNL d   1      29.045 -14.277  12.091  0.00  0.00     0.000 C 
ATOM     36  C   UNL d   1      29.893 -15.139  11.394  0.00  0.00     0.002 C 
ATOM     37  C   UNL d   1      29.843 -15.201   9.992  0.00  0.00     0.029 C 
ENDBRANCH  30  32
ENDBRANCH  25  28
ENDBRANCH  20  21
ENDBRANCH   1  20
TORSDOF 9
ENDMDL
MODEL 7
REMARK VINA RESULT:    -8.956      3.700      6.259
REMARK INTER + INTRA:         -14.743
REMARK INTER:                 -11.641
REMARK INTRA:                  -3.102
REMARK CONF_INDEPENDENT:        2.685
REMARK UNBOUND:                -3.102
REMARK  9 active torsions:
REMARK  status: ('A' for Active; 'I' for Inactive)
REMARK    1  A    between atoms: O_2  and  C_3 
REMARK    2  A    between atoms: C_9  and  C_10 
REMARK    3  A    between atoms: C_10  and  C_11 
REMARK    4  A    between atoms: C_11  and  N_12 
REMARK       I    between atoms: N_12  and  C_13 
REMARK    5  A    between atoms: C_13  and  C_15 
REMARK    6  A    between atoms: C_15  and  C_16 
REMARK    7  A    between atoms: C_16  and  C_17 
REMARK    8  A    between atoms: C_20  and  C_21 
REMARK       I    between atoms: C_21  and  N_23 
REMARK    9  A    between atoms: N_23  and  C_24 
ROOT
ATOM      1  C   UNL d   1      27.655 -16.325   0.314  0.00  0.00     0.105 C 
ENDROOT
BRANCH   1   2
ATOM      2  C   UNL d   1      27.296 -14.863   0.452  0.00  0.00     0.217 C 
ATOM      3  N   UNL d   1      28.368 -14.026   0.681  0.00  0.00    -0.361 N 
ATOM      4  H   UNL d   1      29.303 -14.410   0.771  0.00  0.00     0.162 HD
ATOM      5  O   UNL d   1      26.150 -14.426   0.359  0.00  0.00    -0.274 OA
BRANCH   3   6
ATOM      6  C   UNL d   1      28.118 -12.617   0.840  0.00  0.00     0.127 C 
BRANCH   6   7
ATOM      7  C   UNL d   1      28.851 -11.745  -0.173  0.00  0.00     0.056 C 
BRANCH   7   8
ATOM      8  C   UNL d   1      27.950 -11.146  -1.212  0.00  0.00    -0.048 A 
ATOM      9  C   UNL d   1      27.174 -11.827  -2.063  0.00  0.00    -0.003 A 
ATOM     10  C   UNL d   1      26.481 -10.803  -2.863  0.00  0.00     0.039 A 
ATOM     11  C   UNL d   1      26.924 -13.215  -2.270  0.00  0.00     0.050 A 
ATOM     12  C   UNL d   1      25.532 -11.260  -3.892  0.00  0.00     0.033 A 
ATOM     13  N   UNL d   1      26.822  -9.613  -2.522  0.00  0.00    -0.385 N 
ATOM     14  C   UNL d   1      25.353 -12.592  -4.031  0.00  0.00     0.039 A 
ATOM     15  C   UNL d   1      26.053 -13.590  -3.220  0.00  0.00     0.069 A 
ATOM     16  C   UNL d   1      27.808  -9.664  -1.425  0.00  0.00     0.155 A 
ATOM     17  H   UNL d   1      26.456  -8.769  -2.954  0.00  0.00     0.160 HD
BRANCH  15  18
ATOM     18  O   UNL d   1      25.698 -14.917  -3.311  0.00  0.00    -0.356 OA
ATOM     19  C   UNL d   1      25.906 -15.574  -4.558  0.00  0.00     0.210 C 
ENDBRANCH  15  18
ENDBRANCH   7   8
ENDBRANCH   6   7
ENDBRANCH   3   6
ENDBRANCH   1   2
BRANCH   1  20
ATOM     20  C   UNL d   1      26.439 -17.213   0.613  0.00  0.00     0.041 C 
BRANCH  20  21
ATOM     21  C   UNL d   1      25.487 -17.326  -0.576  0.00  0.00     0.135 C 
ATOM     22  N   UNL d   1      24.711 -16.097  -0.754  0.00  0.00    -0.245 NA
ATOM     23  N   UNL d   1      23.347 -16.378  -1.201  0.00  0.00    -0.237 NA
ATOM     24  H   UNL d   1      25.216 -15.422  -1.334  0.00  0.00     0.142 HD
ATOM     25  C   UNL d   1      23.118 -17.822  -1.386  0.00  0.00     0.226 C 
ATOM     26  H   UNL d   1      23.058 -15.848  -2.024  0.00  0.00     0.142 HD
ATOM     27  S   UNL d   1      24.341 -18.697  -0.401  0.00  0.00    -0.117 SA
BRANCH  25  28
ATOM     28  C   UNL d   1      21.705 -18.240  -0.929  0.00  0.00     0.251 C 
ATOM     29  O   UNL d   1      20.717 -17.538  -1.155  0.00  0.00    -0.270 OA
ATOM     30  N   UNL d   1      21.664 -19.416  -0.150  0.00  0.00    -0.325 N 
ATOM     31  H   UNL d   1      22.534 -19.767   0.230  0.00  0.00     0.169 HD
BRANCH  30  32
ATOM     32  C   UNL d   1      20.472 -19.766   0.533  0.00  0.00     0.034 C 
ATOM     33  C   UNL d   1      20.390 -19.595   1.916  0.00  0.00     0.029 C 
ATOM     34  C   UNL d   1      19.360 -20.178   2.645  0.00  0.00     0.002 C 
ATOM     35  C   UNL d   1      18.332 -20.838   1.981  0.00  0.00     0.000 C 
ATOM     36  C   UNL d   1      18.320 -20.873   0.585  0.00  0.00     0.002 C 
ATOM     37  C   UNL d   1      19.404 -20.360  -0.145  0.00  0.00     0.029 C 
ENDBRANCH  30  32
ENDBRANCH  25  28
ENDBRANCH  20  21
ENDBRANCH   1  20
TORSDOF 9
ENDMDL
MODEL 8
REMARK VINA RESULT:    -8.623      3.303      9.125
REMARK INTER + INTRA:         -14.933
REMARK INTER:                 -11.308
REMARK INTRA:                  -3.625
REMARK CONF_INDEPENDENT:        2.685
REMARK UNBOUND:                -3.625
REMARK  9 active torsions:
REMARK  status: ('A' for Active; 'I' for Inactive)
REMARK    1  A    between atoms: O_2  and  C_3 
REMARK    2  A    between atoms: C_9  and  C_10 
REMARK    3  A    between atoms: C_10  and  C_11 
REMARK    4  A    between atoms: C_11  and  N_12 
REMARK       I    between atoms: N_12  and  C_13 
REMARK    5  A    between atoms: C_13  and  C_15 
REMARK    6  A    between atoms: C_15  and  C_16 
REMARK    7  A    between atoms: C_16  and  C_17 
REMARK    8  A    between atoms: C_20  and  C_21 
REMARK       I    between atoms: C_21  and  N_23 
REMARK    9  A    between atoms: N_23  and  C_24 
ROOT
ATOM      1  C   UNL d   1      29.300 -15.348  -4.544  0.00  0.00     0.105 C 
ENDROOT
BRANCH   1   2
ATOM      2  C   UNL d   1      27.829 -15.078  -4.765  0.00  0.00     0.217 C 
ATOM      3  N   UNL d   1      27.260 -14.212  -3.855  0.00  0.00    -0.361 N 
ATOM      4  H   UNL d   1      27.817 -13.832  -3.097  0.00  0.00     0.162 HD
ATOM      5  O   UNL d   1      27.171 -15.569  -5.681  0.00  0.00    -0.274 OA
BRANCH   3   6
ATOM      6  C   UNL d   1      25.857 -13.908  -3.980  0.00  0.00     0.127 C 
BRANCH   6   7
ATOM      7  C   UNL d   1      25.066 -14.117  -2.694  0.00  0.00     0.056 C 
BRANCH   7   8
ATOM      8  C   UNL d   1      25.525 -15.298  -1.893  0.00  0.00    -0.048 A 
ATOM      9  C   UNL d   1      24.734 -16.196  -1.296  0.00  0.00    -0.003 A 
ATOM     10  C   UNL d   1      25.648 -17.157  -0.655  0.00  0.00     0.039 A 
ATOM     11  C   UNL d   1      23.320 -16.363  -1.219  0.00  0.00     0.050 A 
ATOM     12  C   UNL d   1      25.054 -18.287   0.080  0.00  0.00     0.033 A 
ATOM     13  N   UNL d   1      26.880 -16.851  -0.847  0.00  0.00    -0.385 N 
ATOM     14  C   UNL d   1      23.705 -18.372   0.112  0.00  0.00     0.039 A 
ATOM     15  C   UNL d   1      22.818 -17.405  -0.536  0.00  0.00     0.069 A 
ATOM     16  C   UNL d   1      26.975 -15.623  -1.660  0.00  0.00     0.155 A 
ATOM     17  H   UNL d   1      27.663 -17.389  -0.487  0.00  0.00     0.160 HD
BRANCH  15  18
ATOM     18  O   UNL d   1      21.464 -17.648  -0.595  0.00  0.00    -0.356 OA
ATOM     19  C   UNL d   1      21.042 -18.942  -1.014  0.00  0.00     0.210 C 
ENDBRANCH  15  18
ENDBRANCH   7   8
ENDBRANCH   6   7
ENDBRANCH   3   6
ENDBRANCH   1   2
BRANCH   1  20
ATOM     20  C   UNL d   1      29.509 -16.725  -3.899  0.00  0.00     0.041 C 
BRANCH  20  21
ATOM     21  C   UNL d   1      30.237 -16.642  -2.558  0.00  0.00     0.135 C 
ATOM     22  N   UNL d   1      29.594 -17.489  -1.552  0.00  0.00    -0.245 NA
ATOM     23  N   UNL d   1      29.637 -16.878  -0.224  0.00  0.00    -0.237 NA
ATOM     24  H   UNL d   1      29.953 -18.446  -1.589  0.00  0.00     0.142 HD
ATOM     25  C   UNL d   1      30.343 -15.585  -0.238  0.00  0.00     0.226 C 
ATOM     26  H   UNL d   1      29.999 -17.491   0.508  0.00  0.00     0.142 HD
ATOM     27  S   UNL d   1      30.307 -14.964  -1.925  0.00  0.00    -0.117 SA
BRANCH  25  28
ATOM     28  C   UNL d   1      29.674 -14.557   0.696  0.00  0.00     0.251 C 
ATOM     29  O   UNL d   1      30.059 -13.387   0.753  0.00  0.00    -0.270 OA
ATOM     30  N   UNL d   1      28.678 -15.091   1.540  0.00  0.00    -0.325 N 
ATOM     31  H   UNL d   1      28.625 -16.097   1.639  0.00  0.00     0.169 HD
BRANCH  30  32
ATOM     32  C   UNL d   1      28.167 -14.310   2.607  0.00  0.00     0.034 C 
ATOM     33  C   UNL d   1      27.749 -12.999   2.369  0.00  0.00     0.029 C 
ATOM     34  C   UNL d   1      27.511 -12.125   3.424  0.00  0.00     0.002 C 
ATOM     35  C   UNL d   1      27.570 -12.591   4.733  0.00  0.00     0.000 C 
ATOM     36  C   UNL d   1      27.826 -13.941   4.976  0.00  0.00     0.002 C 
ATOM     37  C   UNL d   1      28.153 -14.802   3.916  0.00  0.00     0.029 C 
ENDBRANCH  30  32
ENDBRANCH  25  28
ENDBRANCH  20  21
ENDBRANCH   1  20
TORSDOF 9
ENDMDL
