MODEL 1
REMARK VINA RESULT:    -8.773      0.000      0.000
REMARK INTER + INTRA:         -10.573
REMARK INTER:                  -9.966
REMARK INTRA:                  -0.607
REMARK CONF_INDEPENDENT:        1.193
REMARK UNBOUND:                -0.607
REMARK  4 active torsions:
REMARK  status: ('A' for Active; 'I' for Inactive)
REMARK       I    between atoms: C_2  and  N_3 
REMARK    1  A    between atoms: C_2  and  C_18 
REMARK    2  A    between atoms: N_3  and  C_4 
REMARK    3  A    between atoms: C_4  and  C_5 
REMARK    4  A    between atoms: C_9  and  N_10 
ROOT
ATOM      1  C   UNL d   1      24.077 -17.004  -0.937  0.00  0.00    -0.036 A 
ATOM      2  C   UNL d   1      24.841 -17.707  -0.002  0.00  0.00     0.026 A 
ATOM      3  C   UNL d   1      26.227 -17.723  -0.125  0.00  0.00     0.090 A 
ATOM      4  N   UNL d   1      26.822 -17.060  -1.128  0.00  0.00    -0.357 N 
ATOM      5  C   UNL d   1      26.152 -16.368  -2.061  0.00  0.00     0.082 A 
ATOM      6  C   UNL d   1      24.751 -16.344  -1.975  0.00  0.00     0.051 A 
ATOM      7  H   UNL d   1      27.837 -17.026  -1.196  0.00  0.00     0.166 HD
ENDROOT
BRANCH   1   8
ATOM      8  C   UNL d   1      22.576 -16.862  -0.804  0.00  0.00     0.161 C 
BRANCH   8   9
ATOM      9  N   UNL d   1      21.989 -17.857   0.064  0.00  0.00    -0.356 N 
ATOM     10  C   UNL d   1      21.374 -18.967  -0.474  0.00  0.00     0.224 C 
ATOM     11  O   UNL d   1      21.425 -19.184  -1.688  0.00  0.00    -0.273 OA
ATOM     12  H   UNL d   1      21.966 -17.690   1.056  0.00  0.00     0.162 HD
BRANCH  10  13
ATOM     13  C   UNL d   1      20.760 -19.977   0.501  0.00  0.00     0.109 C 
ATOM     14  C   UNL d   1      19.566 -20.713  -0.144  0.00  0.00     0.048 C 
ATOM     15  C   UNL d   1      18.405 -20.314   0.771  0.00  0.00     0.122 C 
ATOM     16  C   UNL d   1      18.496 -21.104   2.075  0.00  0.00     0.034 C 
ATOM     17  O   UNL d   1      18.804 -18.993   1.210  0.00  0.00    -0.380 OA
ATOM     18  C   UNL d   1      19.701 -20.449   2.747  0.00  0.00     0.035 C 
ATOM     19  C   UNL d   1      20.094 -19.368   1.737  0.00  0.00     0.135 C 
ENDBRANCH  10  13
ENDBRANCH   8   9
ENDBRANCH   1   8
BRANCH   5  20
ATOM     20  N   UNL d   1      26.909 -15.629  -2.975  0.00  0.00    -0.269 NA
ATOM     21  C   UNL d   1      26.131 -15.015  -4.076  0.00  0.00     0.097 C 
ATOM     22  C   UNL d   1      26.911 -15.137  -5.396  0.00  0.00     0.015 C 
ATOM     23  C   UNL d   1      28.076 -14.160  -5.568  0.00  0.00     0.001 C 
ATOM     24  C   UNL d   1      29.092 -14.185  -4.432  0.00  0.00     0.001 C 
ATOM     25  C   UNL d   1      28.514 -13.657  -3.128  0.00  0.00     0.015 C 
ATOM     26  C   UNL d   1      27.845 -14.721  -2.265  0.00  0.00     0.097 C 
ENDBRANCH   5  20
TORSDOF 4
ENDMDL
MODEL 2
REMARK VINA RESULT:    -8.540      0.429      1.284
REMARK INTER + INTRA:         -10.248
REMARK INTER:                  -9.733
REMARK INTRA:                  -0.515
REMARK CONF_INDEPENDENT:        1.193
REMARK UNBOUND:                -0.515
REMARK  4 active torsions:
REMARK  status: ('A' for Active; 'I' for Inactive)
REMARK       I    between atoms: C_2  and  N_3 
REMARK    1  A    between atoms: C_2  and  C_18 
REMARK    2  A    between atoms: N_3  and  C_4 
REMARK    3  A    between atoms: C_4  and  C_5 
REMARK    4  A    between atoms: C_9  and  N_10 
ROOT
ATOM      1  C   UNL d   1      24.156 -16.862  -0.927  0.00  0.00    -0.036 A 
ATOM      2  C   UNL d   1      24.955 -17.633  -0.080  0.00  0.00     0.026 A 
ATOM      3  C   UNL d   1      26.330 -17.678  -0.290  0.00  0.00     0.090 A 
ATOM      4  N   UNL d   1      26.882 -16.978  -1.293  0.00  0.00    -0.357 N 
ATOM      5  C   UNL d   1      26.176 -16.221  -2.145  0.00  0.00     0.082 A 
ATOM      6  C   UNL d   1      24.784 -16.166  -1.970  0.00  0.00     0.051 A 
ATOM      7  H   UNL d   1      27.891 -16.966  -1.422  0.00  0.00     0.166 HD
ENDROOT
BRANCH   1   8
ATOM      8  C   UNL d   1      22.671 -16.689  -0.694  0.00  0.00     0.161 C 
BRANCH   8   9
ATOM      9  N   UNL d   1      22.107 -17.724   0.141  0.00  0.00    -0.356 N 
ATOM     10  C   UNL d   1      21.474 -18.808  -0.432  0.00  0.00     0.224 C 
ATOM     11  O   UNL d   1      21.492 -18.965  -1.656  0.00  0.00    -0.273 OA
ATOM     12  H   UNL d   1      22.111 -17.605   1.141  0.00  0.00     0.162 HD
BRANCH  10  13
ATOM     13  C   UNL d   1      20.886 -19.862   0.510  0.00  0.00     0.109 C 
ATOM     14  C   UNL d   1      19.680 -20.573  -0.140  0.00  0.00     0.048 C 
ATOM     15  C   UNL d   1      18.538 -20.220   0.819  0.00  0.00     0.122 C 
ATOM     16  C   UNL d   1      18.661 -21.067   2.082  0.00  0.00     0.034 C 
ATOM     17  O   UNL d   1      18.944 -18.919   1.308  0.00  0.00    -0.380 OA
ATOM     18  C   UNL d   1      19.880 -20.440   2.756  0.00  0.00     0.035 C 
ATOM     19  C   UNL d   1      20.247 -19.312   1.787  0.00  0.00     0.135 C 
ENDBRANCH  10  13
ENDBRANCH   8   9
ENDBRANCH   1   8
BRANCH   5  20
ATOM     20  N   UNL d   1      26.897 -15.453  -3.066  0.00  0.00    -0.269 NA
ATOM     21  C   UNL d   1      28.361 -15.681  -3.054  0.00  0.00     0.097 C 
ATOM     22  C   UNL d   1      29.098 -14.341  -3.214  0.00  0.00     0.015 C 
ATOM     23  C   UNL d   1      29.118 -13.763  -4.631  0.00  0.00     0.001 C 
ATOM     24  C   UNL d   1      27.742 -13.608  -5.268  0.00  0.00     0.001 C 
ATOM     25  C   UNL d   1      27.085 -14.950  -5.555  0.00  0.00     0.015 C 
ATOM     26  C   UNL d   1      26.250 -15.496  -4.402  0.00  0.00     0.097 C 
ENDBRANCH   5  20
TORSDOF 4
ENDMDL
MODEL 3
REMARK VINA RESULT:    -8.348      1.783      2.396
REMARK INTER + INTRA:         -10.023
REMARK INTER:                  -9.541
REMARK INTRA:                  -0.483
REMARK CONF_INDEPENDENT:        1.193
REMARK UNBOUND:                -0.483
REMARK  4 active torsions:
REMARK  status: ('A' for Active; 'I' for Inactive)
REMARK       I    between atoms: C_2  and  N_3 
REMARK    1  A    between atoms: C_2  and  C_18 
REMARK    2  A    between atoms: N_3  and  C_4 
REMARK    3  A    between atoms: C_4  and  C_5 
REMARK    4  A    between atoms: C_9  and  N_10 
ROOT
ATOM      1  C   UNL d   1      24.951 -17.688  -0.615  0.00  0.00    -0.036 A 
ATOM      2  C   UNL d   1      25.665 -18.574   0.194  0.00  0.00     0.026 A 
ATOM      3  C   UNL d   1      26.867 -18.165   0.763  0.00  0.00     0.090 A 
ATOM      4  N   UNL d   1      27.329 -16.924   0.542  0.00  0.00    -0.357 N 
ATOM      5  C   UNL d   1      26.698 -16.023  -0.225  0.00  0.00     0.082 A 
ATOM      6  C   UNL d   1      25.490 -16.410  -0.826  0.00  0.00     0.051 A 
ATOM      7  H   UNL d   1      28.181 -16.601   0.994  0.00  0.00     0.166 HD
ENDROOT
BRANCH   1   8
ATOM      8  C   UNL d   1      23.590 -18.033  -1.180  0.00  0.00     0.161 C 
BRANCH   8   9
ATOM      9  N   UNL d   1      22.866 -18.983  -0.367  0.00  0.00    -0.356 N 
ATOM     10  C   UNL d   1      21.493 -18.901  -0.264  0.00  0.00     0.224 C 
ATOM     11  O   UNL d   1      20.862 -18.100  -0.958  0.00  0.00    -0.273 OA
ATOM     12  H   UNL d   1      23.381 -19.650   0.183  0.00  0.00     0.162 HD
BRANCH  10  13
ATOM     13  C   UNL d   1      20.789 -19.930   0.626  0.00  0.00     0.109 C 
ATOM     14  C   UNL d   1      19.656 -20.643  -0.144  0.00  0.00     0.048 C 
ATOM     15  C   UNL d   1      18.417 -20.259   0.671  0.00  0.00     0.122 C 
ATOM     16  C   UNL d   1      18.385 -21.080   1.957  0.00  0.00     0.034 C 
ATOM     17  O   UNL d   1      18.780 -18.951   1.177  0.00  0.00    -0.380 OA
ATOM     18  C   UNL d   1      19.526 -20.450   2.753  0.00  0.00     0.035 C 
ATOM     19  C   UNL d   1      20.014 -19.347   1.810  0.00  0.00     0.135 C 
ENDBRANCH  10  13
ENDBRANCH   8   9
ENDBRANCH   1   8
BRANCH   5  20
ATOM     20  N   UNL d   1      27.235 -14.733  -0.268  0.00  0.00    -0.269 NA
ATOM     21  C   UNL d   1      26.889 -13.954  -1.479  0.00  0.00     0.097 C 
ATOM     22  C   UNL d   1      28.116 -13.157  -1.955  0.00  0.00     0.015 C 
ATOM     23  C   UNL d   1      28.443 -11.902  -1.144  0.00  0.00     0.001 C 
ATOM     24  C   UNL d   1      28.605 -12.143   0.353  0.00  0.00     0.001 C 
ATOM     25  C   UNL d   1      27.296 -12.536   1.019  0.00  0.00     0.015 C 
ATOM     26  C   UNL d   1      27.024 -14.036   1.026  0.00  0.00     0.097 C 
ENDBRANCH   5  20
TORSDOF 4
ENDMDL
MODEL 4
REMARK VINA RESULT:    -7.823      2.641      9.020
REMARK INTER + INTRA:         -10.280
REMARK INTER:                  -9.016
REMARK INTRA:                  -1.264
REMARK CONF_INDEPENDENT:        1.193
REMARK UNBOUND:                -1.264
REMARK  4 active torsions:
REMARK  status: ('A' for Active; 'I' for Inactive)
REMARK       I    between atoms: C_2  and  N_3 
REMARK    1  A    between atoms: C_2  and  C_18 
REMARK    2  A    between atoms: N_3  and  C_4 
REMARK    3  A    between atoms: C_4  and  C_5 
REMARK    4  A    between atoms: C_9  and  N_10 
ROOT
ATOM      1  C   UNL d   1      23.982 -16.731  -1.191  0.00  0.00    -0.036 A 
ATOM      2  C   UNL d   1      25.120 -17.474  -0.869  0.00  0.00     0.026 A 
ATOM      3  C   UNL d   1      24.975 -18.700  -0.226  0.00  0.00     0.090 A 
ATOM      4  N   UNL d   1      23.753 -19.166   0.070  0.00  0.00    -0.357 N 
ATOM      5  C   UNL d   1      22.619 -18.504  -0.206  0.00  0.00     0.082 A 
ATOM      6  C   UNL d   1      22.730 -17.257  -0.841  0.00  0.00     0.051 A 
ATOM      7  H   UNL d   1      23.636 -20.083   0.495  0.00  0.00     0.166 HD
ENDROOT
BRANCH   1   8
ATOM      8  C   UNL d   1      24.062 -15.440  -1.979  0.00  0.00     0.161 C 
BRANCH   8   9
ATOM      9  N   UNL d   1      25.291 -15.313  -2.729  0.00  0.00    -0.356 N 
ATOM     10  C   UNL d   1      26.392 -14.712  -2.156  0.00  0.00     0.224 C 
ATOM     11  O   UNL d   1      26.379 -14.391  -0.964  0.00  0.00    -0.273 OA
ATOM     12  H   UNL d   1      25.307 -15.594  -3.695  0.00  0.00     0.162 HD
BRANCH  10  13
ATOM     13  C   UNL d   1      27.658 -14.596  -3.010  0.00  0.00     0.109 C 
ATOM     14  C   UNL d   1      27.525 -13.457  -4.043  0.00  0.00     0.048 C 
ATOM     15  C   UNL d   1      27.647 -14.209  -5.373  0.00  0.00     0.122 C 
ATOM     16  C   UNL d   1      29.109 -14.577  -5.611  0.00  0.00     0.034 C 
ATOM     17  O   UNL d   1      27.078 -15.499  -5.045  0.00  0.00    -0.380 OA
ATOM     18  C   UNL d   1      29.321 -15.680  -4.575  0.00  0.00     0.035 C 
ATOM     19  C   UNL d   1      27.939 -15.790  -3.925  0.00  0.00     0.135 C 
ENDBRANCH  10  13
ENDBRANCH   8   9
ENDBRANCH   1   8
BRANCH   5  20
ATOM     20  N   UNL d   1      21.414 -19.165   0.053  0.00  0.00    -0.269 NA
ATOM     21  C   UNL d   1      20.873 -18.961   1.417  0.00  0.00     0.097 C 
ATOM     22  C   UNL d   1      20.296 -20.282   1.952  0.00  0.00     0.015 C 
ATOM     23  C   UNL d   1      18.934 -20.686   1.385  0.00  0.00     0.001 C 
ATOM     24  C   UNL d   1      18.877 -20.744  -0.138  0.00  0.00     0.001 C 
ATOM     25  C   UNL d   1      19.014 -19.370  -0.773  0.00  0.00     0.015 C 
ATOM     26  C   UNL d   1      20.453 -18.954  -1.059  0.00  0.00     0.097 C 
ENDBRANCH   5  20
TORSDOF 4
ENDMDL
MODEL 5
REMARK VINA RESULT:    -7.482      2.106      3.462
REMARK INTER + INTRA:          -9.454
REMARK INTER:                  -8.675
REMARK INTRA:                  -0.778
REMARK CONF_INDEPENDENT:        1.193
REMARK UNBOUND:                -0.778
REMARK  4 active torsions:
REMARK  status: ('A' for Active; 'I' for Inactive)
REMARK       I    between atoms: C_2  and  N_3 
REMARK    1  A    between atoms: C_2  and  C_18 
REMARK    2  A    between atoms: N_3  and  C_4 
REMARK    3  A    between atoms: C_4  and  C_5 
REMARK    4  A    between atoms: C_9  and  N_10 
ROOT
ATOM      1  C   UNL d   1      25.730 -15.354  -2.226  0.00  0.00    -0.036 A 
ATOM      2  C   UNL d   1      24.747 -14.585  -2.853  0.00  0.00     0.026 A 
ATOM      3  C   UNL d   1      24.981 -14.086  -4.131  0.00  0.00     0.090 A 
ATOM      4  N   UNL d   1      26.138 -14.351  -4.756  0.00  0.00    -0.357 N 
ATOM      5  C   UNL d   1      27.126 -15.078  -4.213  0.00  0.00     0.082 A 
ATOM      6  C   UNL d   1      26.928 -15.583  -2.918  0.00  0.00     0.051 A 
ATOM      7  H   UNL d   1      26.297 -14.031  -5.709  0.00  0.00     0.166 HD
ENDROOT
BRANCH   1   8
ATOM      8  C   UNL d   1      25.500 -16.011  -0.881  0.00  0.00     0.161 C 
BRANCH   8   9
ATOM      9  N   UNL d   1      24.401 -16.949  -0.892  0.00  0.00    -0.356 N 
ATOM     10  C   UNL d   1      24.435 -18.064  -0.082  0.00  0.00     0.224 C 
ATOM     11  O   UNL d   1      25.339 -18.207   0.745  0.00  0.00    -0.273 OA
ATOM     12  H   UNL d   1      23.653 -16.820  -1.553  0.00  0.00     0.162 HD
BRANCH  10  13
ATOM     13  C   UNL d   1      23.245 -19.025  -0.153  0.00  0.00     0.109 C 
ATOM     14  C   UNL d   1      22.723 -19.153  -1.600  0.00  0.00     0.048 C 
ATOM     15  C   UNL d   1      21.287 -18.635  -1.475  0.00  0.00     0.122 C 
ATOM     16  C   UNL d   1      20.421 -19.704  -0.814  0.00  0.00     0.034 C 
ATOM     17  O   UNL d   1      21.406 -17.664  -0.407  0.00  0.00    -0.380 OA
ATOM     18  C   UNL d   1      20.926 -19.662   0.627  0.00  0.00     0.035 C 
ATOM     19  C   UNL d   1      21.982 -18.554   0.572  0.00  0.00     0.135 C 
ENDBRANCH  10  13
ENDBRANCH   8   9
ENDBRANCH   1   8
BRANCH   5  20
ATOM     20  N   UNL d   1      28.225 -15.372  -5.027  0.00  0.00    -0.269 NA
ATOM     21  C   UNL d   1      28.873 -14.193  -5.648  0.00  0.00     0.097 C 
ATOM     22  C   UNL d   1      29.264 -14.518  -7.099  0.00  0.00     0.015 C 
ATOM     23  C   UNL d   1      30.509 -15.391  -7.267  0.00  0.00     0.001 C 
ATOM     24  C   UNL d   1      30.464 -16.708  -6.499  0.00  0.00     0.001 C 
ATOM     25  C   UNL d   1      30.508 -16.499  -4.994  0.00  0.00     0.015 C 
ATOM     26  C   UNL d   1      29.138 -16.324  -4.347  0.00  0.00     0.097 C 
ENDBRANCH   5  20
TORSDOF 4
ENDMDL
MODEL 6
REMARK VINA RESULT:    -7.050      4.799      6.850
REMARK INTER + INTRA:          -9.488
REMARK INTER:                  -8.243
REMARK INTRA:                  -1.245
REMARK CONF_INDEPENDENT:        1.193
REMARK UNBOUND:                -1.245
REMARK  4 active torsions:
REMARK  status: ('A' for Active; 'I' for Inactive)
REMARK       I    between atoms: C_2  and  N_3 
REMARK    1  A    between atoms: C_2  and  C_18 
REMARK    2  A    between atoms: N_3  and  C_4 
REMARK    3  A    between atoms: C_4  and  C_5 
REMARK    4  A    between atoms: C_9  and  N_10 
ROOT
ATOM      1  C   UNL d   1      27.414 -14.636   0.446  0.00  0.00    -0.036 A 
ATOM      2  C   UNL d   1      27.060 -13.371  -0.029  0.00  0.00     0.026 A 
ATOM      3  C   UNL d   1      27.102 -12.280   0.835  0.00  0.00     0.090 A 
ATOM      4  N   UNL d   1      27.489 -12.444   2.109  0.00  0.00    -0.357 N 
ATOM      5  C   UNL d   1      27.839 -13.628   2.632  0.00  0.00     0.082 A 
ATOM      6  C   UNL d   1      27.792 -14.752   1.792  0.00  0.00     0.051 A 
ATOM      7  H   UNL d   1      27.570 -11.643   2.732  0.00  0.00     0.166 HD
ENDROOT
BRANCH   1   8
ATOM      8  C   UNL d   1      27.488 -15.844  -0.463  0.00  0.00     0.161 C 
BRANCH   8   9
ATOM      9  N   UNL d   1      26.239 -16.566  -0.544  0.00  0.00    -0.356 N 
ATOM     10  C   UNL d   1      25.420 -16.411  -1.643  0.00  0.00     0.224 C 
ATOM     11  O   UNL d   1      25.801 -15.756  -2.618  0.00  0.00    -0.273 OA
ATOM     12  H   UNL d   1      25.939 -17.117   0.242  0.00  0.00     0.162 HD
BRANCH  10  13
ATOM     13  C   UNL d   1      24.104 -17.194  -1.660  0.00  0.00     0.109 C 
ATOM     14  C   UNL d   1      22.999 -16.433  -0.896  0.00  0.00     0.048 C 
ATOM     15  C   UNL d   1      22.652 -17.410   0.231  0.00  0.00     0.122 C 
ATOM     16  C   UNL d   1      21.810 -18.552  -0.332  0.00  0.00     0.034 C 
ATOM     17  O   UNL d   1      23.918 -18.075   0.457  0.00  0.00    -0.380 OA
ATOM     18  C   UNL d   1      22.845 -19.325  -1.148  0.00  0.00     0.035 C 
ATOM     19  C   UNL d   1      24.124 -18.521  -0.899  0.00  0.00     0.135 C 
ENDBRANCH  10  13
ENDBRANCH   8   9
ENDBRANCH   1   8
BRANCH   5  20
ATOM     20  N   UNL d   1      28.334 -13.627   3.940  0.00  0.00    -0.269 NA
ATOM     21  C   UNL d   1      27.312 -13.828   4.993  0.00  0.00     0.097 C 
ATOM     22  C   UNL d   1      27.605 -12.903   6.187  0.00  0.00     0.015 C 
ATOM     23  C   UNL d   1      28.749 -13.347   7.100  0.00  0.00     0.001 C 
ATOM     24  C   UNL d   1      30.070 -13.598   6.380  0.00  0.00     0.001 C 
ATOM     25  C   UNL d   1      30.004 -14.806   5.459  0.00  0.00     0.015 C 
ATOM     26  C   UNL d   1      29.540 -14.487   4.042  0.00  0.00     0.097 C 
ENDBRANCH   5  20
TORSDOF 4
ENDMDL
MODEL 7
REMARK VINA RESULT:    -7.016      2.748      9.110
REMARK INTER + INTRA:          -9.352
REMARK INTER:                  -8.209
REMARK INTRA:                  -1.143
REMARK CONF_INDEPENDENT:        1.193
REMARK UNBOUND:                -1.143
REMARK  4 active torsions:
REMARK  status: ('A' for Active; 'I' for Inactive)
REMARK       I    between atoms: C_2  and  N_3 
REMARK    1  A    between atoms: C_2  and  C_18 
REMARK    2  A    between atoms: N_3  and  C_4 
REMARK    3  A    between atoms: C_4  and  C_5 
REMARK    4  A    between atoms: C_9  and  N_10 
ROOT
ATOM      1  C   UNL d   1      24.609 -17.889  -0.126  0.00  0.00    -0.036 A 
ATOM      2  C   UNL d   1      24.265 -16.657  -0.687  0.00  0.00     0.026 A 
ATOM      3  C   UNL d   1      22.927 -16.371  -0.940  0.00  0.00     0.090 A 
ATOM      4  N   UNL d   1      21.977 -17.268  -0.638  0.00  0.00    -0.357 N 
ATOM      5  C   UNL d   1      22.235 -18.470  -0.101  0.00  0.00     0.082 A 
ATOM      6  C   UNL d   1      23.577 -18.797   0.153  0.00  0.00     0.051 A 
ATOM      7  H   UNL d   1      20.993 -17.047  -0.774  0.00  0.00     0.166 HD
ENDROOT
BRANCH   1   8
ATOM      8  C   UNL d   1      26.032 -18.224   0.268  0.00  0.00     0.161 C 
BRANCH   8   9
ATOM      9  N   UNL d   1      27.016 -17.531  -0.531  0.00  0.00    -0.356 N 
ATOM     10  C   UNL d   1      27.325 -16.214  -0.260  0.00  0.00     0.224 C 
ATOM     11  O   UNL d   1      26.860 -15.657   0.738  0.00  0.00    -0.273 OA
ATOM     12  H   UNL d   1      27.411 -17.994  -1.333  0.00  0.00     0.162 HD
BRANCH  10  13
ATOM     13  C   UNL d   1      28.367 -15.534  -1.154  0.00  0.00     0.109 C 
ATOM     14  C   UNL d   1      27.864 -15.436  -2.610  0.00  0.00     0.048 C 
ATOM     15  C   UNL d   1      28.906 -16.262  -3.371  0.00  0.00     0.122 C 
ATOM     16  C   UNL d   1      30.192 -15.451  -3.506  0.00  0.00     0.034 C 
ATOM     17  O   UNL d   1      29.293 -17.246  -2.382  0.00  0.00    -0.380 OA
ATOM     18  C   UNL d   1      30.721 -15.470  -2.073  0.00  0.00     0.035 C 
ATOM     19  C   UNL d   1      29.669 -16.314  -1.347  0.00  0.00     0.135 C 
ENDBRANCH  10  13
ENDBRANCH   8   9
ENDBRANCH   1   8
BRANCH   5  20
ATOM     20  N   UNL d   1      21.137 -19.253   0.271  0.00  0.00    -0.269 NA
ATOM     21  C   UNL d   1      20.588 -18.956   1.615  0.00  0.00     0.097 C 
ATOM     22  C   UNL d   1      20.208 -20.266   2.324  0.00  0.00     0.015 C 
ATOM     23  C   UNL d   1      18.909 -20.920   1.850  0.00  0.00     0.001 C 
ATOM     24  C   UNL d   1      18.843 -21.176   0.348  0.00  0.00     0.001 C 
ATOM     25  C   UNL d   1      18.780 -19.886  -0.454  0.00  0.00     0.015 C 
ATOM     26  C   UNL d   1      20.143 -19.316  -0.830  0.00  0.00     0.097 C 
ENDBRANCH   5  20
TORSDOF 4
ENDMDL
MODEL 8
REMARK VINA RESULT:    -6.972      3.515      8.757
REMARK INTER + INTRA:          -9.328
REMARK INTER:                  -8.165
REMARK INTRA:                  -1.163
REMARK CONF_INDEPENDENT:        1.193
REMARK UNBOUND:                -1.163
REMARK  4 active torsions:
REMARK  status: ('A' for Active; 'I' for Inactive)
REMARK       I    between atoms: C_2  and  N_3 
REMARK    1  A    between atoms: C_2  and  C_18 
REMARK    2  A    between atoms: N_3  and  C_4 
REMARK    3  A    between atoms: C_4  and  C_5 
REMARK    4  A    between atoms: C_9  and  N_10 
ROOT
ATOM      1  C   UNL d   1      27.460 -15.791  -2.914  0.00  0.00    -0.036 A 
ATOM      2  C   UNL d   1      28.461 -16.200  -2.030  0.00  0.00     0.026 A 
ATOM      3  C   UNL d   1      28.112 -16.896  -0.877  0.00  0.00     0.090 A 
ATOM      4  N   UNL d   1      26.825 -17.180  -0.625  0.00  0.00    -0.357 N 
ATOM      5  C   UNL d   1      25.814 -16.816  -1.427  0.00  0.00     0.082 A 
ATOM      6  C   UNL d   1      26.130 -16.099  -2.591  0.00  0.00     0.051 A 
ATOM      7  H   UNL d   1      26.566 -17.732   0.191  0.00  0.00     0.166 HD
ENDROOT
BRANCH   1   8
ATOM      8  C   UNL d   1      27.778 -15.121  -4.234  0.00  0.00     0.161 C 
BRANCH   8   9
ATOM      9  N   UNL d   1      27.298 -13.760  -4.305  0.00  0.00    -0.356 N 
ATOM     10  C   UNL d   1      25.972 -13.508  -4.586  0.00  0.00     0.224 C 
ATOM     11  O   UNL d   1      25.161 -14.435  -4.656  0.00  0.00    -0.273 OA
ATOM     12  H   UNL d   1      27.957 -13.003  -4.226  0.00  0.00     0.162 HD
BRANCH  10  13
ATOM     13  C   UNL d   1      25.531 -12.042  -4.660  0.00  0.00     0.109 C 
ATOM     14  C   UNL d   1      26.023 -11.384  -5.967  0.00  0.00     0.048 C 
ATOM     15  C   UNL d   1      26.929 -10.264  -5.445  0.00  0.00     0.122 C 
ATOM     16  C   UNL d   1      26.066  -9.123  -4.913  0.00  0.00     0.034 C 
ATOM     17  O   UNL d   1      27.439 -10.834  -4.215  0.00  0.00    -0.380 OA
ATOM     18  C   UNL d   1      25.505  -9.734  -3.630  0.00  0.00     0.035 C 
ATOM     19  C   UNL d   1      26.159 -11.119  -3.613  0.00  0.00     0.135 C 
ENDBRANCH  10  13
ENDBRANCH   8   9
ENDBRANCH   1   8
BRANCH   5  20
ATOM     20  N   UNL d   1      24.538 -17.285  -1.098  0.00  0.00    -0.269 NA
ATOM     21  C   UNL d   1      24.483 -18.154   0.100  0.00  0.00     0.097 C 
ATOM     22  C   UNL d   1      23.510 -19.319  -0.145  0.00  0.00     0.015 C 
ATOM     23  C   UNL d   1      22.024 -18.968  -0.056  0.00  0.00     0.001 C 
ATOM     24  C   UNL d   1      21.593 -17.815  -0.956  0.00  0.00     0.001 C 
ATOM     25  C   UNL d   1      22.190 -16.487  -0.517  0.00  0.00     0.015 C 
ATOM     26  C   UNL d   1      23.549 -16.177  -1.135  0.00  0.00     0.097 C 
ENDBRANCH   5  20
TORSDOF 4
ENDMDL
MODEL 9
REMARK VINA RESULT:    -6.915      4.212      6.495
REMARK INTER + INTRA:          -9.423
REMARK INTER:                  -8.109
REMARK INTRA:                  -1.314
REMARK CONF_INDEPENDENT:        1.193
REMARK UNBOUND:                -1.314
REMARK  4 active torsions:
REMARK  status: ('A' for Active; 'I' for Inactive)
REMARK       I    between atoms: C_2  and  N_3 
REMARK    1  A    between atoms: C_2  and  C_18 
REMARK    2  A    between atoms: N_3  and  C_4 
REMARK    3  A    between atoms: C_4  and  C_5 
REMARK    4  A    between atoms: C_9  and  N_10 
ROOT
ATOM      1  C   UNL d   1      27.555 -13.534  -4.968  0.00  0.00    -0.036 A 
ATOM      2  C   UNL d   1      27.587 -12.736  -6.114  0.00  0.00     0.026 A 
ATOM      3  C   UNL d   1      28.344 -13.143  -7.209  0.00  0.00     0.090 A 
ATOM      4  N   UNL d   1      29.027 -14.296  -7.165  0.00  0.00    -0.357 N 
ATOM      5  C   UNL d   1      29.044 -15.109  -6.098  0.00  0.00     0.082 A 
ATOM      6  C   UNL d   1      28.303 -14.720  -4.971  0.00  0.00     0.051 A 
ATOM      7  H   UNL d   1      29.543 -14.624  -7.979  0.00  0.00     0.166 HD
ENDROOT
BRANCH   1   8
ATOM      8  C   UNL d   1      26.673 -13.203  -3.783  0.00  0.00     0.161 C 
BRANCH   8   9
ATOM      9  N   UNL d   1      26.425 -14.343  -2.930  0.00  0.00    -0.356 N 
ATOM     10  C   UNL d   1      25.680 -15.406  -3.395  0.00  0.00     0.224 C 
ATOM     11  O   UNL d   1      25.326 -15.451  -4.576  0.00  0.00    -0.273 OA
ATOM     12  H   UNL d   1      26.732 -14.315  -1.972  0.00  0.00     0.162 HD
BRANCH  10  13
ATOM     13  C   UNL d   1      25.441 -16.576  -2.435  0.00  0.00     0.109 C 
ATOM     14  C   UNL d   1      24.129 -16.384  -1.646  0.00  0.00     0.048 C 
ATOM     15  C   UNL d   1      24.625 -16.325  -0.198  0.00  0.00     0.122 C 
ATOM     16  C   UNL d   1      24.982 -17.734   0.270  0.00  0.00     0.034 C 
ATOM     17  O   UNL d   1      25.939 -15.735  -0.351  0.00  0.00    -0.380 OA
ATOM     18  C   UNL d   1      26.261 -18.006  -0.519  0.00  0.00     0.035 C 
ATOM     19  C   UNL d   1      26.453 -16.699  -1.294  0.00  0.00     0.135 C 
ENDBRANCH  10  13
ENDBRANCH   8   9
ENDBRANCH   1   8
BRANCH   5  20
ATOM     20  N   UNL d   1      29.703 -16.334  -6.239  0.00  0.00    -0.269 NA
ATOM     21  C   UNL d   1      31.031 -16.256  -6.891  0.00  0.00     0.097 C 
ATOM     22  C   UNL d   1      31.209 -17.442  -7.853  0.00  0.00     0.015 C 
ATOM     23  C   UNL d   1      31.524 -18.786  -7.194  0.00  0.00     0.001 C 
ATOM     24  C   UNL d   1      30.526 -19.212  -6.122  0.00  0.00     0.001 C 
ATOM     25  C   UNL d   1      30.578 -18.313  -4.897  0.00  0.00     0.015 C 
ATOM     26  C   UNL d   1      29.655 -17.102  -4.969  0.00  0.00     0.097 C 
ENDBRANCH   5  20
TORSDOF 4
ENDMDL
