MODEL 1
REMARK VINA RESULT:    -9.393      0.000      0.000
REMARK INTER + INTRA:         -14.558
REMARK INTER:                 -13.271
REMARK INTRA:                  -1.288
REMARK CONF_INDEPENDENT:        3.878
REMARK UNBOUND:                -1.288
REMARK  13 active torsions:
REMARK  status: ('A' for Active; 'I' for Inactive)
REMARK    1  A    between atoms: S_2  and  C_4 
REMARK    2  A    between atoms: S_2  and  N_21 
REMARK    3  A    between atoms: C_4  and  C_5 
REMARK    4  A    between atoms: C_5  and  C_6 
REMARK    5  A    between atoms: C_6  and  C_7 
REMARK    6  A    between atoms: C_7  and  C_8 
REMARK    7  A    between atoms: C_8  and  C_9 
REMARK    8  A    between atoms: C_9  and  S_10 
REMARK    9  A    between atoms: S_10  and  N_13 
REMARK   10  A    between atoms: N_13  and  C_14 
REMARK   11  A    between atoms: C_18  and  O_19 
REMARK   12  A    between atoms: N_21  and  C_22 
REMARK   13  A    between atoms: C_26  and  O_27 
ROOT
ATOM      1  C   UNL d   1      25.140 -16.953  -0.172  0.00  0.00     0.001 C 
ENDROOT
BRANCH   1   2
ATOM      2  C   UNL d   1      24.024 -16.764  -1.203  0.00  0.00     0.017 C 
BRANCH   2   3
ATOM      3  C   UNL d   1      22.665 -16.815  -0.531  0.00  0.00     0.163 C 
BRANCH   3   4
ATOM      4  S   UNL d   1      21.720 -18.272  -0.985  0.00  0.00     0.231 S 
ATOM      5  O   UNL d   1      20.363 -17.829  -1.264  0.00  0.00    -0.206 OA
ATOM      6  O   UNL d   1      22.465 -19.029  -1.958  0.00  0.00    -0.206 OA
BRANCH   4   7
ATOM      7  N   UNL d   1      21.605 -19.151   0.452  0.00  0.00    -0.285 N 
ATOM      8  H   UNL d   1      22.230 -18.808   1.181  0.00  0.00     0.178 HD
BRANCH   7   9
ATOM      9  C   UNL d   1      20.394 -19.804   0.843  0.00  0.00     0.044 A 
ATOM     10  C   UNL d   1      20.076 -19.890   2.197  0.00  0.00     0.030 A 
ATOM     11  C   UNL d   1      18.906 -20.494   2.645  0.00  0.00     0.005 A 
ATOM     12  C   UNL d   1      17.980 -20.953   1.724  0.00  0.00     0.036 A 
ATOM     13  C   UNL d   1      18.249 -20.807   0.365  0.00  0.00     0.067 A 
ATOM     14  C   UNL d   1      19.454 -20.249  -0.088  0.00  0.00     0.066 A 
BRANCH  13  15
ATOM     15  O   UNL d   1      17.327 -21.193  -0.567  0.00  0.00    -0.361 OA
ATOM     16  H   UNL d   1      17.161 -20.450  -1.172  0.00  0.00     0.217 HD
ENDBRANCH  13  15
ENDBRANCH   7   9
ENDBRANCH   4   7
ENDBRANCH   3   4
ENDBRANCH   2   3
ENDBRANCH   1   2
BRANCH   1  17
ATOM     17  C   UNL d   1      26.306 -17.724  -0.788  0.00  0.00     0.001 C 
BRANCH  17  18
ATOM     18  C   UNL d   1      27.646 -17.174  -0.316  0.00  0.00     0.017 C 
BRANCH  18  19
ATOM     19  C   UNL d   1      27.508 -16.306   0.942  0.00  0.00     0.163 C 
BRANCH  19  20
ATOM     20  S   UNL d   1      27.643 -14.573   0.480  0.00  0.00     0.231 S 
ATOM     21  O   UNL d   1      26.304 -14.022   0.450  0.00  0.00    -0.206 OA
ATOM     22  O   UNL d   1      28.660 -14.014   1.346  0.00  0.00    -0.206 OA
BRANCH  20  23
ATOM     23  N   UNL d   1      28.224 -14.578  -1.096  0.00  0.00    -0.285 N 
ATOM     24  H   UNL d   1      29.220 -14.520  -1.293  0.00  0.00     0.178 HD
BRANCH  23  25
ATOM     25  C   UNL d   1      27.303 -14.638  -2.201  0.00  0.00     0.044 A 
ATOM     26  C   UNL d   1      25.999 -14.148  -2.078  0.00  0.00     0.030 A 
ATOM     27  C   UNL d   1      25.112 -14.156  -3.155  0.00  0.00     0.005 A 
ATOM     28  C   UNL d   1      25.522 -14.637  -4.393  0.00  0.00     0.036 A 
ATOM     29  C   UNL d   1      26.826 -15.104  -4.533  0.00  0.00     0.067 A 
ATOM     30  C   UNL d   1      27.719 -15.107  -3.453  0.00  0.00     0.066 A 
BRANCH  29  31
ATOM     31  O   UNL d   1      27.275 -15.564  -5.740  0.00  0.00    -0.361 OA
ATOM     32  H   UNL d   1      26.756 -15.148  -6.450  0.00  0.00     0.217 HD
ENDBRANCH  29  31
ENDBRANCH  23  25
ENDBRANCH  20  23
ENDBRANCH  19  20
ENDBRANCH  18  19
ENDBRANCH  17  18
ENDBRANCH   1  17
TORSDOF 13
ENDMDL
MODEL 2
REMARK VINA RESULT:    -9.282      2.401      3.370
REMARK INTER + INTRA:         -14.209
REMARK INTER:                 -13.160
REMARK INTRA:                  -1.049
REMARK CONF_INDEPENDENT:        3.878
REMARK UNBOUND:                -1.049
REMARK  13 active torsions:
REMARK  status: ('A' for Active; 'I' for Inactive)
REMARK    1  A    between atoms: S_2  and  C_4 
REMARK    2  A    between atoms: S_2  and  N_21 
REMARK    3  A    between atoms: C_4  and  C_5 
REMARK    4  A    between atoms: C_5  and  C_6 
REMARK    5  A    between atoms: C_6  and  C_7 
REMARK    6  A    between atoms: C_7  and  C_8 
REMARK    7  A    between atoms: C_8  and  C_9 
REMARK    8  A    between atoms: C_9  and  S_10 
REMARK    9  A    between atoms: S_10  and  N_13 
REMARK   10  A    between atoms: N_13  and  C_14 
REMARK   11  A    between atoms: C_18  and  O_19 
REMARK   12  A    between atoms: N_21  and  C_22 
REMARK   13  A    between atoms: C_26  and  O_27 
ROOT
ATOM      1  C   UNL d   1      26.006 -17.268  -0.619  0.00  0.00     0.001 C 
ENDROOT
BRANCH   1   2
ATOM      2  C   UNL d   1      24.767 -17.621   0.208  0.00  0.00     0.017 C 
BRANCH   2   3
ATOM      3  C   UNL d   1      23.980 -18.733  -0.462  0.00  0.00     0.163 C 
BRANCH   3   4
ATOM      4  S   UNL d   1      22.253 -18.313  -0.703  0.00  0.00     0.231 S 
ATOM      5  O   UNL d   1      22.187 -16.873  -0.895  0.00  0.00    -0.206 OA
ATOM      6  O   UNL d   1      21.683 -19.215  -1.672  0.00  0.00    -0.206 OA
BRANCH   4   7
ATOM      7  N   UNL d   1      21.549 -18.584   0.808  0.00  0.00    -0.285 N 
ATOM      8  H   UNL d   1      21.633 -17.785   1.437  0.00  0.00     0.178 HD
BRANCH   7   9
ATOM      9  C   UNL d   1      20.440 -19.472   0.977  0.00  0.00     0.044 A 
ATOM     10  C   UNL d   1      20.147 -19.958   2.249  0.00  0.00     0.030 A 
ATOM     11  C   UNL d   1      19.073 -20.808   2.488  0.00  0.00     0.005 A 
ATOM     12  C   UNL d   1      18.210 -21.122   1.452  0.00  0.00     0.036 A 
ATOM     13  C   UNL d   1      18.446 -20.584   0.188  0.00  0.00     0.067 A 
ATOM     14  C   UNL d   1      19.561 -19.771  -0.065  0.00  0.00     0.066 A 
BRANCH  13  15
ATOM     15  O   UNL d   1      17.578 -20.825  -0.839  0.00  0.00    -0.361 OA
ATOM     16  H   UNL d   1      17.992 -20.546  -1.673  0.00  0.00     0.217 HD
ENDBRANCH  13  15
ENDBRANCH   7   9
ENDBRANCH   4   7
ENDBRANCH   3   4
ENDBRANCH   2   3
ENDBRANCH   1   2
BRANCH   1  17
ATOM     17  C   UNL d   1      26.257 -15.761  -0.579  0.00  0.00     0.001 C 
BRANCH  17  18
ATOM     18  C   UNL d   1      25.736 -15.078  -1.838  0.00  0.00     0.017 C 
BRANCH  18  19
ATOM     19  C   UNL d   1      25.905 -15.954  -3.087  0.00  0.00     0.163 C 
BRANCH  19  20
ATOM     20  S   UNL d   1      25.569 -14.964  -4.550  0.00  0.00     0.231 S 
ATOM     21  O   UNL d   1      25.533 -15.859  -5.688  0.00  0.00    -0.206 OA
ATOM     22  O   UNL d   1      24.426 -14.141  -4.213  0.00  0.00    -0.206 OA
BRANCH  20  23
ATOM     23  N   UNL d   1      26.911 -13.968  -4.731  0.00  0.00    -0.285 N 
ATOM     24  H   UNL d   1      26.860 -12.971  -4.537  0.00  0.00     0.178 HD
BRANCH  23  25
ATOM     25  C   UNL d   1      28.157 -14.521  -5.195  0.00  0.00     0.044 A 
ATOM     26  C   UNL d   1      28.556 -15.808  -4.823  0.00  0.00     0.030 A 
ATOM     27  C   UNL d   1      29.737 -16.374  -5.305  0.00  0.00     0.005 A 
ATOM     28  C   UNL d   1      30.536 -15.666  -6.194  0.00  0.00     0.036 A 
ATOM     29  C   UNL d   1      30.135 -14.394  -6.592  0.00  0.00     0.067 A 
ATOM     30  C   UNL d   1      28.955 -13.816  -6.104  0.00  0.00     0.066 A 
BRANCH  29  31
ATOM     31  O   UNL d   1      30.883 -13.674  -7.482  0.00  0.00    -0.361 OA
ATOM     32  H   UNL d   1      31.792 -14.023  -7.487  0.00  0.00     0.217 HD
ENDBRANCH  29  31
ENDBRANCH  23  25
ENDBRANCH  20  23
ENDBRANCH  19  20
ENDBRANCH  18  19
ENDBRANCH  17  18
ENDBRANCH   1  17
TORSDOF 13
ENDMDL
MODEL 3
REMARK VINA RESULT:    -8.511      2.498      9.337
REMARK INTER + INTRA:         -13.630
REMARK INTER:                 -12.389
REMARK INTRA:                  -1.241
REMARK CONF_INDEPENDENT:        3.878
REMARK UNBOUND:                -1.241
REMARK  13 active torsions:
REMARK  status: ('A' for Active; 'I' for Inactive)
REMARK    1  A    between atoms: S_2  and  C_4 
REMARK    2  A    between atoms: S_2  and  N_21 
REMARK    3  A    between atoms: C_4  and  C_5 
REMARK    4  A    between atoms: C_5  and  C_6 
REMARK    5  A    between atoms: C_6  and  C_7 
REMARK    6  A    between atoms: C_7  and  C_8 
REMARK    7  A    between atoms: C_8  and  C_9 
REMARK    8  A    between atoms: C_9  and  S_10 
REMARK    9  A    between atoms: S_10  and  N_13 
REMARK   10  A    between atoms: N_13  and  C_14 
REMARK   11  A    between atoms: C_18  and  O_19 
REMARK   12  A    between atoms: N_21  and  C_22 
REMARK   13  A    between atoms: C_26  and  O_27 
ROOT
ATOM      1  C   UNL d   1      27.172 -16.659  -1.640  0.00  0.00     0.001 C 
ENDROOT
BRANCH   1   2
ATOM      2  C   UNL d   1      25.844 -16.124  -2.181  0.00  0.00     0.017 C 
BRANCH   2   3
ATOM      3  C   UNL d   1      26.012 -14.708  -2.697  0.00  0.00     0.163 C 
BRANCH   3   4
ATOM      4  S   UNL d   1      25.332 -14.481  -4.342  0.00  0.00     0.231 S 
ATOM      5  O   UNL d   1      25.307 -15.790  -4.976  0.00  0.00    -0.206 OA
ATOM      6  O   UNL d   1      24.136 -13.683  -4.249  0.00  0.00    -0.206 OA
BRANCH   4   7
ATOM      7  N   UNL d   1      26.528 -13.620  -5.167  0.00  0.00    -0.285 N 
ATOM      8  H   UNL d   1      26.542 -12.628  -4.929  0.00  0.00     0.178 HD
BRANCH   7   9
ATOM      9  C   UNL d   1      27.747 -14.237  -5.591  0.00  0.00     0.044 A 
ATOM     10  C   UNL d   1      28.547 -13.586  -6.527  0.00  0.00     0.030 A 
ATOM     11  C   UNL d   1      29.753 -14.119  -6.968  0.00  0.00     0.005 A 
ATOM     12  C   UNL d   1      30.226 -15.293  -6.406  0.00  0.00     0.036 A 
ATOM     13  C   UNL d   1      29.472 -15.919  -5.415  0.00  0.00     0.067 A 
ATOM     14  C   UNL d   1      28.229 -15.411  -5.009  0.00  0.00     0.066 A 
BRANCH  13  15
ATOM     15  O   UNL d   1      29.941 -17.044  -4.797  0.00  0.00    -0.361 OA
ATOM     16  H   UNL d   1      30.567 -17.491  -5.392  0.00  0.00     0.217 HD
ENDBRANCH  13  15
ENDBRANCH   7   9
ENDBRANCH   4   7
ENDBRANCH   3   4
ENDBRANCH   2   3
ENDBRANCH   1   2
BRANCH   1  17
ATOM     17  C   UNL d   1      27.024 -17.058  -0.173  0.00  0.00     0.001 C 
BRANCH  17  18
ATOM     18  C   UNL d   1      25.558 -17.159   0.230  0.00  0.00     0.017 C 
BRANCH  18  19
ATOM     19  C   UNL d   1      24.954 -18.529  -0.110  0.00  0.00     0.163 C 
BRANCH  19  20
ATOM     20  S   UNL d   1      23.267 -18.301  -0.689  0.00  0.00     0.231 S 
ATOM     21  O   UNL d   1      23.068 -16.885  -0.917  0.00  0.00    -0.206 OA
ATOM     22  O   UNL d   1      23.086 -19.261  -1.758  0.00  0.00    -0.206 OA
BRANCH  20  23
ATOM     23  N   UNL d   1      22.290 -18.748   0.604  0.00  0.00    -0.285 N 
ATOM     24  H   UNL d   1      22.621 -18.685   1.563  0.00  0.00     0.178 HD
BRANCH  23  25
ATOM     25  C   UNL d   1      20.966 -19.258   0.359  0.00  0.00     0.044 A 
ATOM     26  C   UNL d   1      20.381 -19.162  -0.907  0.00  0.00     0.030 A 
ATOM     27  C   UNL d   1      19.118 -19.696  -1.168  0.00  0.00     0.005 A 
ATOM     28  C   UNL d   1      18.422 -20.363  -0.168  0.00  0.00     0.036 A 
ATOM     29  C   UNL d   1      19.006 -20.486   1.090  0.00  0.00     0.067 A 
ATOM     30  C   UNL d   1      20.270 -19.944   1.362  0.00  0.00     0.066 A 
BRANCH  29  31
ATOM     31  O   UNL d   1      18.363 -21.153   2.095  0.00  0.00    -0.361 OA
ATOM     32  H   UNL d   1      18.972 -21.804   2.484  0.00  0.00     0.217 HD
ENDBRANCH  29  31
ENDBRANCH  23  25
ENDBRANCH  20  23
ENDBRANCH  19  20
ENDBRANCH  18  19
ENDBRANCH  17  18
ENDBRANCH   1  17
TORSDOF 13
ENDMDL
MODEL 4
REMARK VINA RESULT:    -6.526      3.070      8.405
REMARK INTER + INTRA:         -13.802
REMARK INTER:                 -10.403
REMARK INTRA:                  -3.398
REMARK CONF_INDEPENDENT:        3.878
REMARK UNBOUND:                -3.398
REMARK  13 active torsions:
REMARK  status: ('A' for Active; 'I' for Inactive)
REMARK    1  A    between atoms: S_2  and  C_4 
REMARK    2  A    between atoms: S_2  and  N_21 
REMARK    3  A    between atoms: C_4  and  C_5 
REMARK    4  A    between atoms: C_5  and  C_6 
REMARK    5  A    between atoms: C_6  and  C_7 
REMARK    6  A    between atoms: C_7  and  C_8 
REMARK    7  A    between atoms: C_8  and  C_9 
REMARK    8  A    between atoms: C_9  and  S_10 
REMARK    9  A    between atoms: S_10  and  N_13 
REMARK   10  A    between atoms: N_13  and  C_14 
REMARK   11  A    between atoms: C_18  and  O_19 
REMARK   12  A    between atoms: N_21  and  C_22 
REMARK   13  A    between atoms: C_26  and  O_27 
ROOT
ATOM      1  C   UNL d   1      27.162 -13.123  -2.097  0.00  0.00     0.001 C 
ENDROOT
BRANCH   1   2
ATOM      2  C   UNL d   1      26.221 -12.526  -3.147  0.00  0.00     0.017 C 
BRANCH   2   3
ATOM      3  C   UNL d   1      26.397 -13.229  -4.480  0.00  0.00     0.163 C 
BRANCH   3   4
ATOM      4  S   UNL d   1      26.173 -15.006  -4.364  0.00  0.00     0.231 S 
ATOM      5  O   UNL d   1      25.194 -15.243  -3.315  0.00  0.00    -0.206 OA
ATOM      6  O   UNL d   1      25.983 -15.542  -5.688  0.00  0.00    -0.206 OA
BRANCH   4   7
ATOM      7  N   UNL d   1      27.636 -15.564  -3.730  0.00  0.00    -0.285 N 
ATOM      8  H   UNL d   1      27.513 -16.178  -2.925  0.00  0.00     0.178 HD
BRANCH   7   9
ATOM      9  C   UNL d   1      28.797 -15.733  -4.547  0.00  0.00     0.044 A 
ATOM     10  C   UNL d   1      29.656 -16.801  -4.294  0.00  0.00     0.030 A 
ATOM     11  C   UNL d   1      30.792 -17.035  -5.060  0.00  0.00     0.005 A 
ATOM     12  C   UNL d   1      31.044 -16.240  -6.166  0.00  0.00     0.036 A 
ATOM     13  C   UNL d   1      30.155 -15.213  -6.477  0.00  0.00     0.067 A 
ATOM     14  C   UNL d   1      29.039 -14.942  -5.671  0.00  0.00     0.066 A 
BRANCH  13  15
ATOM     15  O   UNL d   1      30.343 -14.452  -7.596  0.00  0.00    -0.361 OA
ATOM     16  H   UNL d   1      30.305 -15.029  -8.378  0.00  0.00     0.217 HD
ENDBRANCH  13  15
ENDBRANCH   7   9
ENDBRANCH   4   7
ENDBRANCH   3   4
ENDBRANCH   2   3
ENDBRANCH   1   2
BRANCH   1  17
ATOM     17  C   UNL d   1      26.655 -12.808  -0.691  0.00  0.00     0.001 C 
BRANCH  17  18
ATOM     18  C   UNL d   1      27.016 -13.916   0.291  0.00  0.00     0.017 C 
BRANCH  18  19
ATOM     19  C   UNL d   1      27.913 -14.987  -0.346  0.00  0.00     0.163 C 
BRANCH  19  20
ATOM     20  S   UNL d   1      26.995 -16.528  -0.468  0.00  0.00     0.231 S 
ATOM     21  O   UNL d   1      27.536 -17.274  -1.585  0.00  0.00    -0.206 OA
ATOM     22  O   UNL d   1      26.986 -17.086   0.868  0.00  0.00    -0.206 OA
BRANCH  20  23
ATOM     23  N   UNL d   1      25.427 -16.079  -0.872  0.00  0.00    -0.285 N 
ATOM     24  H   UNL d   1      25.202 -15.123  -1.138  0.00  0.00     0.178 HD
BRANCH  23  25
ATOM     25  C   UNL d   1      24.366 -17.051  -0.817  0.00  0.00     0.044 A 
ATOM     26  C   UNL d   1      24.627 -18.383  -0.484  0.00  0.00     0.030 A 
ATOM     27  C   UNL d   1      23.601 -19.323  -0.380  0.00  0.00     0.005 A 
ATOM     28  C   UNL d   1      22.281 -18.941  -0.585  0.00  0.00     0.036 A 
ATOM     29  C   UNL d   1      22.007 -17.611  -0.892  0.00  0.00     0.067 A 
ATOM     30  C   UNL d   1      23.033 -16.664  -1.007  0.00  0.00     0.066 A 
BRANCH  29  31
ATOM     31  O   UNL d   1      20.720 -17.191  -1.080  0.00  0.00    -0.361 OA
ATOM     32  H   UNL d   1      20.400 -17.522  -1.937  0.00  0.00     0.217 HD
ENDBRANCH  29  31
ENDBRANCH  23  25
ENDBRANCH  20  23
ENDBRANCH  19  20
ENDBRANCH  18  19
ENDBRANCH  17  18
ENDBRANCH   1  17
TORSDOF 13
ENDMDL
