MODEL 1
REMARK VINA RESULT:    -7.720      0.000      0.000
REMARK INTER + INTRA:         -10.816
REMARK INTER:                 -10.106
REMARK INTRA:                  -0.710
REMARK CONF_INDEPENDENT:        2.386
REMARK UNBOUND:                -0.710
REMARK  8 active torsions:
REMARK  status: ('A' for Active; 'I' for Inactive)
REMARK       I    between atoms: C_2  and  N_4 
REMARK    1  A    between atoms: N_4  and  C_5 
REMARK    2  A    between atoms: C_5  and  C_6 
REMARK    3  A    between atoms: C_6  and  C_7 
REMARK    4  A    between atoms: C_7  and  C_8 
REMARK    5  A    between atoms: C_8  and  C_9 
REMARK    6  A    between atoms: C_9  and  C_10 
REMARK       I    between atoms: C_10  and  N_12 
REMARK    7  A    between atoms: N_12  and  N_13 
REMARK    8  A    between atoms: N_13  and  C_14 
ROOT
ATOM      1  C   UNL d   1      25.125 -14.298  -3.234  0.00  0.00     0.235 C 
ATOM      2  O   UNL d   1      24.060 -14.450  -3.837  0.00  0.00    -0.272 OA
ATOM      3  N   UNL d   1      26.029 -13.299  -3.569  0.00  0.00    -0.270 N 
ATOM      4  H   UNL d   1      26.948 -13.215  -3.148  0.00  0.00     0.190 HD
ENDROOT
BRANCH   3   5
ATOM      5  N   UNL d   1      25.739 -12.526  -4.704  0.00  0.00    -0.295 N 
ATOM      6  H   UNL d   1      24.885 -11.964  -4.664  0.00  0.00     0.187 HD
BRANCH   5   7
ATOM      7  C   UNL d   1      26.734 -12.241  -5.661  0.00  0.00     0.091 A 
ATOM      8  C   UNL d   1      27.651 -13.207  -6.125  0.00  0.00     0.065 A 
ATOM      9 CL   UNL d   1      27.612 -14.853  -5.578  0.00  0.00    -0.082 Cl
ATOM     10  C   UNL d   1      28.598 -12.910  -7.116  0.00  0.00     0.050 A 
ATOM     11  C   UNL d   1      28.679 -11.627  -7.641  0.00  0.00     0.037 A 
ATOM     12 CL   UNL d   1      29.845 -11.276  -8.858  0.00  0.00    -0.084 Cl
ATOM     13  C   UNL d   1      27.824 -10.633  -7.187  0.00  0.00     0.050 A 
ATOM     14  C   UNL d   1      26.859 -10.942  -6.215  0.00  0.00     0.065 A 
ATOM     15 CL   UNL d   1      25.821  -9.650  -5.708  0.00  0.00    -0.082 Cl
ENDBRANCH   5   7
ENDBRANCH   3   5
BRANCH   1  16
ATOM     16  C   UNL d   1      25.538 -15.171  -2.051  0.00  0.00     0.104 C 
BRANCH  16  17
ATOM     17  C   UNL d   1      24.405 -16.125  -1.640  0.00  0.00     0.009 C 
BRANCH  17  18
ATOM     18  C   UNL d   1      24.757 -17.002  -0.434  0.00  0.00     0.002 C 
BRANCH  18  19
ATOM     19  C   UNL d   1      24.065 -18.371  -0.521  0.00  0.00     0.020 C 
BRANCH  19  20
ATOM     20  C   UNL d   1      22.570 -18.226  -0.792  0.00  0.00     0.122 C 
BRANCH  20  21
ATOM     21  N   UNL d   1      21.750 -19.088   0.043  0.00  0.00    -0.361 N 
ATOM     22  C   UNL d   1      20.632 -19.700  -0.478  0.00  0.00     0.213 C 
ATOM     23  C   UNL d   1      19.866 -20.568   0.484  0.00  0.00     0.117 C 
ATOM     24  O   UNL d   1      20.273 -19.557  -1.649  0.00  0.00    -0.274 OA
ATOM     25  H   UNL d   1      22.002 -19.238   1.013  0.00  0.00     0.162 HD
ENDBRANCH  20  21
ENDBRANCH  19  20
ENDBRANCH  18  19
ENDBRANCH  17  18
ENDBRANCH  16  17
ENDBRANCH   1  16
TORSDOF 8
ENDMDL
MODEL 2
REMARK VINA RESULT:    -7.491      2.625      3.489
REMARK INTER + INTRA:         -10.765
REMARK INTER:                  -9.878
REMARK INTRA:                  -0.887
REMARK CONF_INDEPENDENT:        2.386
REMARK UNBOUND:                -0.887
REMARK  8 active torsions:
REMARK  status: ('A' for Active; 'I' for Inactive)
REMARK       I    between atoms: C_2  and  N_4 
REMARK    1  A    between atoms: N_4  and  C_5 
REMARK    2  A    between atoms: C_5  and  C_6 
REMARK    3  A    between atoms: C_6  and  C_7 
REMARK    4  A    between atoms: C_7  and  C_8 
REMARK    5  A    between atoms: C_8  and  C_9 
REMARK    6  A    between atoms: C_9  and  C_10 
REMARK       I    between atoms: C_10  and  N_12 
REMARK    7  A    between atoms: N_12  and  N_13 
REMARK    8  A    between atoms: N_13  and  C_14 
ROOT
ATOM      1  C   UNL d   1      25.683 -15.492  -2.607  0.00  0.00     0.235 C 
ATOM      2  O   UNL d   1      25.405 -15.175  -3.765  0.00  0.00    -0.272 OA
ATOM      3  N   UNL d   1      26.897 -15.160  -2.019  0.00  0.00    -0.270 N 
ATOM      4  H   UNL d   1      27.181 -15.491  -1.103  0.00  0.00     0.190 HD
ENDROOT
BRANCH   3   5
ATOM      5  N   UNL d   1      27.855 -14.538  -2.834  0.00  0.00    -0.295 N 
ATOM      6  H   UNL d   1      28.172 -13.612  -2.535  0.00  0.00     0.187 HD
BRANCH   5   7
ATOM      7  C   UNL d   1      28.607 -15.280  -3.767  0.00  0.00     0.091 A 
ATOM      8  C   UNL d   1      29.436 -16.361  -3.397  0.00  0.00     0.065 A 
ATOM      9 CL   UNL d   1      29.576 -16.895  -1.753  0.00  0.00    -0.082 Cl
ATOM     10  C   UNL d   1      30.134 -17.114  -4.352  0.00  0.00     0.050 A 
ATOM     11  C   UNL d   1      30.053 -16.784  -5.698  0.00  0.00     0.037 A 
ATOM     12 CL   UNL d   1      30.913 -17.719  -6.860  0.00  0.00    -0.084 Cl
ATOM     13  C   UNL d   1      29.280 -15.705  -6.105  0.00  0.00     0.050 A 
ATOM     14  C   UNL d   1      28.561 -14.970  -5.150  0.00  0.00     0.065 A 
ATOM     15 CL   UNL d   1      27.612 -13.644  -5.737  0.00  0.00    -0.082 Cl
ENDBRANCH   5   7
ENDBRANCH   3   5
BRANCH   1  16
ATOM     16  C   UNL d   1      24.716 -16.255  -1.703  0.00  0.00     0.104 C 
BRANCH  16  17
ATOM     17  C   UNL d   1      25.473 -17.111  -0.675  0.00  0.00     0.009 C 
BRANCH  17  18
ATOM     18  C   UNL d   1      24.716 -18.379  -0.267  0.00  0.00     0.002 C 
BRANCH  18  19
ATOM     19  C   UNL d   1      23.276 -18.054   0.161  0.00  0.00     0.020 C 
BRANCH  19  20
ATOM     20  C   UNL d   1      22.256 -18.795  -0.701  0.00  0.00     0.122 C 
BRANCH  20  21
ATOM     21  N   UNL d   1      21.329 -19.601   0.075  0.00  0.00    -0.361 N 
ATOM     22  C   UNL d   1      20.128 -19.997  -0.470  0.00  0.00     0.213 C 
ATOM     23  C   UNL d   1      19.254 -20.828   0.431  0.00  0.00     0.117 C 
ATOM     24  O   UNL d   1      19.780 -19.700  -1.615  0.00  0.00    -0.274 OA
ATOM     25  H   UNL d   1      21.567 -19.872   1.022  0.00  0.00     0.162 HD
ENDBRANCH  20  21
ENDBRANCH  19  20
ENDBRANCH  18  19
ENDBRANCH  17  18
ENDBRANCH  16  17
ENDBRANCH   1  16
TORSDOF 8
ENDMDL
MODEL 3
REMARK VINA RESULT:    -7.454      4.492      5.411
REMARK INTER + INTRA:         -10.684
REMARK INTER:                  -9.840
REMARK INTRA:                  -0.844
REMARK CONF_INDEPENDENT:        2.386
REMARK UNBOUND:                -0.844
REMARK  8 active torsions:
REMARK  status: ('A' for Active; 'I' for Inactive)
REMARK       I    between atoms: C_2  and  N_4 
REMARK    1  A    between atoms: N_4  and  C_5 
REMARK    2  A    between atoms: C_5  and  C_6 
REMARK    3  A    between atoms: C_6  and  C_7 
REMARK    4  A    between atoms: C_7  and  C_8 
REMARK    5  A    between atoms: C_8  and  C_9 
REMARK    6  A    between atoms: C_9  and  C_10 
REMARK       I    between atoms: C_10  and  N_12 
REMARK    7  A    between atoms: N_12  and  N_13 
REMARK    8  A    between atoms: N_13  and  C_14 
ROOT
ATOM      1  C   UNL d   1      27.691 -17.133  -0.698  0.00  0.00     0.235 C 
ATOM      2  O   UNL d   1      27.309 -16.658  -1.769  0.00  0.00    -0.272 OA
ATOM      3  N   UNL d   1      29.024 -17.102  -0.307  0.00  0.00    -0.270 N 
ATOM      4  H   UNL d   1      29.371 -17.568   0.525  0.00  0.00     0.190 HD
ENDROOT
BRANCH   3   5
ATOM      5  N   UNL d   1      29.952 -16.605  -1.233  0.00  0.00    -0.295 N 
ATOM      6  H   UNL d   1      30.610 -15.903  -0.884  0.00  0.00     0.187 HD
BRANCH   5   7
ATOM      7  C   UNL d   1      30.216 -17.289  -2.436  0.00  0.00     0.091 A 
ATOM      8  C   UNL d   1      30.885 -18.531  -2.481  0.00  0.00     0.065 A 
ATOM      9 CL   UNL d   1      31.415 -19.344  -1.044  0.00  0.00    -0.082 Cl
ATOM     10  C   UNL d   1      31.091 -19.215  -3.688  0.00  0.00     0.050 A 
ATOM     11  C   UNL d   1      30.667 -18.657  -4.887  0.00  0.00     0.037 A 
ATOM     12 CL   UNL d   1      30.922 -19.509  -6.361  0.00  0.00    -0.084 Cl
ATOM     13  C   UNL d   1      30.038 -17.420  -4.897  0.00  0.00     0.050 A 
ATOM     14  C   UNL d   1      29.810 -16.751  -3.684  0.00  0.00     0.065 A 
ATOM     15 CL   UNL d   1      29.011 -15.216  -3.777  0.00  0.00    -0.082 Cl
ENDBRANCH   5   7
ENDBRANCH   3   5
BRANCH   1  16
ATOM     16  C   UNL d   1      26.739 -17.775   0.310  0.00  0.00     0.104 C 
BRANCH  16  17
ATOM     17  C   UNL d   1      25.412 -18.175  -0.356  0.00  0.00     0.009 C 
BRANCH  17  18
ATOM     18  C   UNL d   1      24.532 -16.976  -0.723  0.00  0.00     0.002 C 
BRANCH  18  19
ATOM     19  C   UNL d   1      23.046 -17.280  -0.477  0.00  0.00     0.020 C 
BRANCH  19  20
ATOM     20  C   UNL d   1      22.710 -18.733  -0.808  0.00  0.00     0.122 C 
BRANCH  20  21
ATOM     21  N   UNL d   1      21.655 -19.281   0.028  0.00  0.00    -0.361 N 
ATOM     22  C   UNL d   1      20.483 -19.729  -0.539  0.00  0.00     0.213 C 
ATOM     23  C   UNL d   1      19.467 -20.274   0.429  0.00  0.00     0.117 C 
ATOM     24  O   UNL d   1      20.267 -19.692  -1.752  0.00  0.00    -0.274 OA
ATOM     25  H   UNL d   1      21.783 -19.332   1.032  0.00  0.00     0.162 HD
ENDBRANCH  20  21
ENDBRANCH  19  20
ENDBRANCH  18  19
ENDBRANCH  17  18
ENDBRANCH  16  17
ENDBRANCH   1  16
TORSDOF 8
ENDMDL
MODEL 4
REMARK VINA RESULT:    -7.453      5.515      6.754
REMARK INTER + INTRA:         -10.909
REMARK INTER:                  -9.839
REMARK INTRA:                  -1.070
REMARK CONF_INDEPENDENT:        2.386
REMARK UNBOUND:                -1.070
REMARK  8 active torsions:
REMARK  status: ('A' for Active; 'I' for Inactive)
REMARK       I    between atoms: C_2  and  N_4 
REMARK    1  A    between atoms: N_4  and  C_5 
REMARK    2  A    between atoms: C_5  and  C_6 
REMARK    3  A    between atoms: C_6  and  C_7 
REMARK    4  A    between atoms: C_7  and  C_8 
REMARK    5  A    between atoms: C_8  and  C_9 
REMARK    6  A    between atoms: C_9  and  C_10 
REMARK       I    between atoms: C_10  and  N_12 
REMARK    7  A    between atoms: N_12  and  N_13 
REMARK    8  A    between atoms: N_13  and  C_14 
ROOT
ATOM      1  C   UNL d   1      27.718 -16.785  -0.132  0.00  0.00     0.235 C 
ATOM      2  O   UNL d   1      28.880 -16.620  -0.510  0.00  0.00    -0.272 OA
ATOM      3  N   UNL d   1      27.197 -16.121   0.971  0.00  0.00    -0.270 N 
ATOM      4  H   UNL d   1      26.276 -16.312   1.352  0.00  0.00     0.190 HD
ENDROOT
BRANCH   3   5
ATOM      5  N   UNL d   1      28.080 -15.329   1.718  0.00  0.00    -0.295 N 
ATOM      6  H   UNL d   1      29.061 -15.620   1.720  0.00  0.00     0.187 HD
BRANCH   5   7
ATOM      7  C   UNL d   1      27.726 -14.024   2.115  0.00  0.00     0.091 A 
ATOM      8  C   UNL d   1      27.742 -13.601   3.461  0.00  0.00     0.065 A 
ATOM      9 CL   UNL d   1      28.235 -14.650   4.751  0.00  0.00    -0.082 Cl
ATOM     10  C   UNL d   1      27.433 -12.281   3.824  0.00  0.00     0.050 A 
ATOM     11  C   UNL d   1      27.063 -11.359   2.854  0.00  0.00     0.037 A 
ATOM     12 CL   UNL d   1      26.689  -9.743   3.312  0.00  0.00    -0.084 Cl
ATOM     13  C   UNL d   1      26.995 -11.740   1.521  0.00  0.00     0.050 A 
ATOM     14  C   UNL d   1      27.331 -13.054   1.159  0.00  0.00     0.065 A 
ATOM     15 CL   UNL d   1      27.232 -13.449  -0.526  0.00  0.00    -0.082 Cl
ENDBRANCH   5   7
ENDBRANCH   3   5
BRANCH   1  16
ATOM     16  C   UNL d   1      26.737 -17.711  -0.851  0.00  0.00     0.104 C 
BRANCH  16  17
ATOM     17  C   UNL d   1      25.372 -17.731  -0.145  0.00  0.00     0.009 C 
BRANCH  17  18
ATOM     18  C   UNL d   1      24.286 -16.959  -0.902  0.00  0.00     0.002 C 
BRANCH  18  19
ATOM     19  C   UNL d   1      22.883 -17.333  -0.397  0.00  0.00     0.020 C 
BRANCH  19  20
ATOM     20  C   UNL d   1      22.479 -18.732  -0.855  0.00  0.00     0.122 C 
BRANCH  20  21
ATOM     21  N   UNL d   1      21.507 -19.362   0.022  0.00  0.00    -0.361 N 
ATOM     22  C   UNL d   1      20.304 -19.807  -0.480  0.00  0.00     0.213 C 
ATOM     23  C   UNL d   1      19.381 -20.441   0.526  0.00  0.00     0.117 C 
ATOM     24  O   UNL d   1      19.992 -19.699  -1.668  0.00  0.00    -0.274 OA
ATOM     25  H   UNL d   1      21.715 -19.474   1.008  0.00  0.00     0.162 HD
ENDBRANCH  20  21
ENDBRANCH  19  20
ENDBRANCH  18  19
ENDBRANCH  17  18
ENDBRANCH  16  17
ENDBRANCH   1  16
TORSDOF 8
ENDMDL
MODEL 5
REMARK VINA RESULT:    -7.387      1.896      2.916
REMARK INTER + INTRA:         -10.805
REMARK INTER:                  -9.773
REMARK INTRA:                  -1.032
REMARK CONF_INDEPENDENT:        2.386
REMARK UNBOUND:                -1.032
REMARK  8 active torsions:
REMARK  status: ('A' for Active; 'I' for Inactive)
REMARK       I    between atoms: C_2  and  N_4 
REMARK    1  A    between atoms: N_4  and  C_5 
REMARK    2  A    between atoms: C_5  and  C_6 
REMARK    3  A    between atoms: C_6  and  C_7 
REMARK    4  A    between atoms: C_7  and  C_8 
REMARK    5  A    between atoms: C_8  and  C_9 
REMARK    6  A    between atoms: C_9  and  C_10 
REMARK       I    between atoms: C_10  and  N_12 
REMARK    7  A    between atoms: N_12  and  N_13 
REMARK    8  A    between atoms: N_13  and  C_14 
ROOT
ATOM      1  C   UNL d   1      26.185 -15.202  -3.687  0.00  0.00     0.235 C 
ATOM      2  O   UNL d   1      25.157 -14.805  -4.241  0.00  0.00    -0.272 OA
ATOM      3  N   UNL d   1      27.420 -15.189  -4.320  0.00  0.00    -0.270 N 
ATOM      4  H   UNL d   1      28.258 -15.595  -3.916  0.00  0.00     0.190 HD
ENDROOT
BRANCH   3   5
ATOM      5  N   UNL d   1      27.445 -14.807  -5.670  0.00  0.00    -0.295 N 
ATOM      6  H   UNL d   1      26.542 -14.579  -6.093  0.00  0.00     0.187 HD
BRANCH   5   7
ATOM      7  C   UNL d   1      28.644 -14.396  -6.286  0.00  0.00     0.091 A 
ATOM      8  C   UNL d   1      28.775 -13.164  -6.962  0.00  0.00     0.065 A 
ATOM      9 CL   UNL d   1      27.472 -12.025  -7.064  0.00  0.00    -0.082 Cl
ATOM     10  C   UNL d   1      29.994 -12.757  -7.523  0.00  0.00     0.050 A 
ATOM     11  C   UNL d   1      31.105 -13.589  -7.458  0.00  0.00     0.037 A 
ATOM     12 CL   UNL d   1      32.596 -13.075  -8.149  0.00  0.00    -0.084 Cl
ATOM     13  C   UNL d   1      31.013 -14.826  -6.837  0.00  0.00     0.050 A 
ATOM     14  C   UNL d   1      29.799 -15.219  -6.253  0.00  0.00     0.065 A 
ATOM     15 CL   UNL d   1      29.767 -16.773  -5.488  0.00  0.00    -0.082 Cl
ENDBRANCH   5   7
ENDBRANCH   3   5
BRANCH   1  16
ATOM     16  C   UNL d   1      26.202 -15.719  -2.249  0.00  0.00     0.104 C 
BRANCH  16  17
ATOM     17  C   UNL d   1      24.836 -16.297  -1.849  0.00  0.00     0.009 C 
BRANCH  17  18
ATOM     18  C   UNL d   1      24.941 -17.525  -0.937  0.00  0.00     0.002 C 
BRANCH  18  19
ATOM     19  C   UNL d   1      23.632 -17.757  -0.164  0.00  0.00     0.020 C 
BRANCH  19  20
ATOM     20  C   UNL d   1      22.741 -18.777  -0.869  0.00  0.00     0.122 C 
BRANCH  20  21
ATOM     21  N   UNL d   1      21.684 -19.297  -0.018  0.00  0.00    -0.361 N 
ATOM     22  C   UNL d   1      20.501 -19.735  -0.570  0.00  0.00     0.213 C 
ATOM     23  C   UNL d   1      19.484 -20.251   0.413  0.00  0.00     0.117 C 
ATOM     24  O   UNL d   1      20.277 -19.713  -1.783  0.00  0.00    -0.274 OA
ATOM     25  H   UNL d   1      21.817 -19.336   0.986  0.00  0.00     0.162 HD
ENDBRANCH  20  21
ENDBRANCH  19  20
ENDBRANCH  18  19
ENDBRANCH  17  18
ENDBRANCH  16  17
ENDBRANCH   1  16
TORSDOF 8
ENDMDL
MODEL 6
REMARK VINA RESULT:    -7.340      1.946      2.275
REMARK INTER + INTRA:         -10.814
REMARK INTER:                  -9.727
REMARK INTRA:                  -1.088
REMARK CONF_INDEPENDENT:        2.386
REMARK UNBOUND:                -1.088
REMARK  8 active torsions:
REMARK  status: ('A' for Active; 'I' for Inactive)
REMARK       I    between atoms: C_2  and  N_4 
REMARK    1  A    between atoms: N_4  and  C_5 
REMARK    2  A    between atoms: C_5  and  C_6 
REMARK    3  A    between atoms: C_6  and  C_7 
REMARK    4  A    between atoms: C_7  and  C_8 
REMARK    5  A    between atoms: C_8  and  C_9 
REMARK    6  A    between atoms: C_9  and  C_10 
REMARK       I    between atoms: C_10  and  N_12 
REMARK    7  A    between atoms: N_12  and  N_13 
REMARK    8  A    between atoms: N_13  and  C_14 
ROOT
ATOM      1  C   UNL d   1      26.181 -15.360  -3.748  0.00  0.00     0.235 C 
ATOM      2  O   UNL d   1      25.183 -15.107  -4.426  0.00  0.00    -0.272 OA
ATOM      3  N   UNL d   1      27.462 -15.355  -4.286  0.00  0.00    -0.270 N 
ATOM      4  H   UNL d   1      28.284 -15.650  -3.769  0.00  0.00     0.190 HD
ENDROOT
BRANCH   3   5
ATOM      5  N   UNL d   1      27.575 -15.160  -5.670  0.00  0.00    -0.295 N 
ATOM      6  H   UNL d   1      26.701 -15.155  -6.201  0.00  0.00     0.187 HD
BRANCH   5   7
ATOM      7  C   UNL d   1      28.752 -14.628  -6.234  0.00  0.00     0.091 A 
ATOM      8  C   UNL d   1      29.937 -15.378  -6.386  0.00  0.00     0.065 A 
ATOM      9 CL   UNL d   1      30.039 -17.045  -5.919  0.00  0.00    -0.082 Cl
ATOM     10  C   UNL d   1      31.079 -14.839  -6.997  0.00  0.00     0.050 A 
ATOM     11  C   UNL d   1      31.079 -13.522  -7.437  0.00  0.00     0.037 A 
ATOM     12 CL   UNL d   1      32.485 -12.873  -8.187  0.00  0.00    -0.084 Cl
ATOM     13  C   UNL d   1      29.949 -12.733  -7.273  0.00  0.00     0.050 A 
ATOM     14  C   UNL d   1      28.799 -13.284  -6.686  0.00  0.00     0.065 A 
ATOM     15 CL   UNL d   1      27.426 -12.239  -6.526  0.00  0.00    -0.082 Cl
ENDBRANCH   5   7
ENDBRANCH   3   5
BRANCH   1  16
ATOM     16  C   UNL d   1      26.110 -15.675  -2.255  0.00  0.00     0.104 C 
BRANCH  16  17
ATOM     17  C   UNL d   1      24.781 -16.356  -1.892  0.00  0.00     0.009 C 
BRANCH  17  18
ATOM     18  C   UNL d   1      24.958 -17.617  -1.041  0.00  0.00     0.002 C 
BRANCH  18  19
ATOM     19  C   UNL d   1      23.731 -17.863  -0.148  0.00  0.00     0.020 C 
BRANCH  19  20
ATOM     20  C   UNL d   1      22.647 -18.642  -0.889  0.00  0.00     0.122 C 
BRANCH  20  21
ATOM     21  N   UNL d   1      21.631 -19.190  -0.006  0.00  0.00    -0.361 N 
ATOM     22  C   UNL d   1      20.458 -19.692  -0.524  0.00  0.00     0.213 C 
ATOM     23  C   UNL d   1      19.485 -20.231   0.490  0.00  0.00     0.117 C 
ATOM     24  O   UNL d   1      20.209 -19.704  -1.732  0.00  0.00    -0.274 OA
ATOM     25  H   UNL d   1      21.787 -19.202   0.995  0.00  0.00     0.162 HD
ENDBRANCH  20  21
ENDBRANCH  19  20
ENDBRANCH  18  19
ENDBRANCH  17  18
ENDBRANCH  16  17
ENDBRANCH   1  16
TORSDOF 8
ENDMDL
MODEL 7
REMARK VINA RESULT:    -7.328      2.723      3.770
REMARK INTER + INTRA:         -11.081
REMARK INTER:                  -9.714
REMARK INTRA:                  -1.366
REMARK CONF_INDEPENDENT:        2.386
REMARK UNBOUND:                -1.366
REMARK  8 active torsions:
REMARK  status: ('A' for Active; 'I' for Inactive)
REMARK       I    between atoms: C_2  and  N_4 
REMARK    1  A    between atoms: N_4  and  C_5 
REMARK    2  A    between atoms: C_5  and  C_6 
REMARK    3  A    between atoms: C_6  and  C_7 
REMARK    4  A    between atoms: C_7  and  C_8 
REMARK    5  A    between atoms: C_8  and  C_9 
REMARK    6  A    between atoms: C_9  and  C_10 
REMARK       I    between atoms: C_10  and  N_12 
REMARK    7  A    between atoms: N_12  and  N_13 
REMARK    8  A    between atoms: N_13  and  C_14 
ROOT
ATOM      1  C   UNL d   1      26.684 -17.006  -0.072  0.00  0.00     0.235 C 
ATOM      2  O   UNL d   1      27.135 -16.222   0.766  0.00  0.00    -0.272 OA
ATOM      3  N   UNL d   1      26.612 -16.688  -1.422  0.00  0.00    -0.270 N 
ATOM      4  H   UNL d   1      26.161 -17.281  -2.111  0.00  0.00     0.190 HD
ENDROOT
BRANCH   3   5
ATOM      5  N   UNL d   1      26.972 -15.384  -1.793  0.00  0.00    -0.295 N 
ATOM      6  H   UNL d   1      27.172 -14.733  -1.028  0.00  0.00     0.187 HD
BRANCH   5   7
ATOM      7  C   UNL d   1      27.403 -15.095  -3.103  0.00  0.00     0.091 A 
ATOM      8  C   UNL d   1      26.596 -14.420  -4.044  0.00  0.00     0.065 A 
ATOM      9 CL   UNL d   1      25.004 -13.853  -3.654  0.00  0.00    -0.082 Cl
ATOM     10  C   UNL d   1      27.067 -14.100  -5.325  0.00  0.00     0.050 A 
ATOM     11  C   UNL d   1      28.345 -14.481  -5.714  0.00  0.00     0.037 A 
ATOM     12 CL   UNL d   1      28.912 -14.079  -7.289  0.00  0.00    -0.084 Cl
ATOM     13  C   UNL d   1      29.161 -15.180  -4.836  0.00  0.00     0.050 A 
ATOM     14  C   UNL d   1      28.695 -15.475  -3.545  0.00  0.00     0.065 A 
ATOM     15 CL   UNL d   1      29.776 -16.342  -2.504  0.00  0.00    -0.082 Cl
ENDBRANCH   5   7
ENDBRANCH   3   5
BRANCH   1  16
ATOM     16  C   UNL d   1      26.187 -18.406   0.288  0.00  0.00     0.104 C 
BRANCH  16  17
ATOM     17  C   UNL d   1      24.726 -18.606  -0.146  0.00  0.00     0.009 C 
BRANCH  17  18
ATOM     18  C   UNL d   1      23.903 -17.314  -0.118  0.00  0.00     0.002 C 
BRANCH  18  19
ATOM     19  C   UNL d   1      22.588 -17.476  -0.896  0.00  0.00     0.020 C 
BRANCH  19  20
ATOM     20  C   UNL d   1      22.266 -18.946  -1.152  0.00  0.00     0.122 C 
BRANCH  20  21
ATOM     21  N   UNL d   1      21.375 -19.518  -0.157  0.00  0.00    -0.361 N 
ATOM     22  C   UNL d   1      20.083 -19.857  -0.495  0.00  0.00     0.213 C 
ATOM     23  C   UNL d   1      19.258 -20.440   0.621  0.00  0.00     0.117 C 
ATOM     24  O   UNL d   1      19.623 -19.700  -1.628  0.00  0.00    -0.274 OA
ATOM     25  H   UNL d   1      21.704 -19.667   0.790  0.00  0.00     0.162 HD
ENDBRANCH  20  21
ENDBRANCH  19  20
ENDBRANCH  18  19
ENDBRANCH  17  18
ENDBRANCH  16  17
ENDBRANCH   1  16
TORSDOF 8
ENDMDL
MODEL 8
REMARK VINA RESULT:    -7.214      5.482      6.843
REMARK INTER + INTRA:         -10.832
REMARK INTER:                  -9.600
REMARK INTRA:                  -1.232
REMARK CONF_INDEPENDENT:        2.386
REMARK UNBOUND:                -1.232
REMARK  8 active torsions:
REMARK  status: ('A' for Active; 'I' for Inactive)
REMARK       I    between atoms: C_2  and  N_4 
REMARK    1  A    between atoms: N_4  and  C_5 
REMARK    2  A    between atoms: C_5  and  C_6 
REMARK    3  A    between atoms: C_6  and  C_7 
REMARK    4  A    between atoms: C_7  and  C_8 
REMARK    5  A    between atoms: C_8  and  C_9 
REMARK    6  A    between atoms: C_9  and  C_10 
REMARK       I    between atoms: C_10  and  N_12 
REMARK    7  A    between atoms: N_12  and  N_13 
REMARK    8  A    between atoms: N_13  and  C_14 
ROOT
ATOM      1  C   UNL d   1      27.561 -17.167   0.156  0.00  0.00     0.235 C 
ATOM      2  O   UNL d   1      28.743 -17.338  -0.149  0.00  0.00    -0.272 OA
ATOM      3  N   UNL d   1      27.152 -16.125   0.978  0.00  0.00    -0.270 N 
ATOM      4  H   UNL d   1      26.200 -16.022   1.315  0.00  0.00     0.190 HD
ENDROOT
BRANCH   3   5
ATOM      5  N   UNL d   1      28.154 -15.327   1.549  0.00  0.00    -0.295 N 
ATOM      6  H   UNL d   1      29.119 -15.626   1.388  0.00  0.00     0.187 HD
BRANCH   5   7
ATOM      7  C   UNL d   1      27.880 -14.013   1.978  0.00  0.00     0.091 A 
ATOM      8  C   UNL d   1      27.488 -12.984   1.096  0.00  0.00     0.065 A 
ATOM      9 CL   UNL d   1      27.277 -13.259  -0.604  0.00  0.00    -0.082 Cl
ATOM     10  C   UNL d   1      27.172 -11.698   1.556  0.00  0.00     0.050 A 
ATOM     11  C   UNL d   1      27.277 -11.395   2.907  0.00  0.00     0.037 A 
ATOM     12 CL   UNL d   1      26.883  -9.812   3.459  0.00  0.00    -0.084 Cl
ATOM     13  C   UNL d   1      27.695 -12.364   3.808  0.00  0.00     0.050 A 
ATOM     14  C   UNL d   1      27.984 -13.658   3.347  0.00  0.00     0.065 A 
ATOM     15 CL   UNL d   1      28.490 -14.814   4.534  0.00  0.00    -0.082 Cl
ENDBRANCH   5   7
ENDBRANCH   3   5
BRANCH   1  16
ATOM     16  C   UNL d   1      26.435 -18.063  -0.358  0.00  0.00     0.104 C 
BRANCH  16  17
ATOM     17  C   UNL d   1      25.422 -17.261  -1.190  0.00  0.00     0.009 C 
BRANCH  17  18
ATOM     18  C   UNL d   1      24.040 -17.165  -0.535  0.00  0.00     0.002 C 
BRANCH  18  19
ATOM     19  C   UNL d   1      23.434 -18.560  -0.307  0.00  0.00     0.020 C 
BRANCH  19  20
ATOM     20  C   UNL d   1      21.989 -18.627  -0.794  0.00  0.00     0.122 C 
BRANCH  20  21
ATOM     21  N   UNL d   1      21.144 -19.468   0.037  0.00  0.00    -0.361 N 
ATOM     22  C   UNL d   1      19.949 -19.949  -0.450  0.00  0.00     0.213 C 
ATOM     23  C   UNL d   1      19.163 -20.808   0.504  0.00  0.00     0.117 C 
ATOM     24  O   UNL d   1      19.539 -19.701  -1.586  0.00  0.00    -0.274 OA
ATOM     25  H   UNL d   1      21.435 -19.701   0.980  0.00  0.00     0.162 HD
ENDBRANCH  20  21
ENDBRANCH  19  20
ENDBRANCH  18  19
ENDBRANCH  17  18
ENDBRANCH  16  17
ENDBRANCH   1  16
TORSDOF 8
ENDMDL
MODEL 9
REMARK VINA RESULT:    -7.036      2.529      3.179
REMARK INTER + INTRA:         -10.706
REMARK INTER:                  -9.422
REMARK INTRA:                  -1.283
REMARK CONF_INDEPENDENT:        2.386
REMARK UNBOUND:                -1.283
REMARK  8 active torsions:
REMARK  status: ('A' for Active; 'I' for Inactive)
REMARK       I    between atoms: C_2  and  N_4 
REMARK    1  A    between atoms: N_4  and  C_5 
REMARK    2  A    between atoms: C_5  and  C_6 
REMARK    3  A    between atoms: C_6  and  C_7 
REMARK    4  A    between atoms: C_7  and  C_8 
REMARK    5  A    between atoms: C_8  and  C_9 
REMARK    6  A    between atoms: C_9  and  C_10 
REMARK       I    between atoms: C_10  and  N_12 
REMARK    7  A    between atoms: N_12  and  N_13 
REMARK    8  A    between atoms: N_13  and  C_14 
ROOT
ATOM      1  C   UNL d   1      26.898 -16.352   0.007  0.00  0.00     0.235 C 
ATOM      2  O   UNL d   1      27.016 -15.335   0.693  0.00  0.00    -0.272 OA
ATOM      3  N   UNL d   1      26.756 -16.302  -1.374  0.00  0.00    -0.270 N 
ATOM      4  H   UNL d   1      26.565 -17.119  -1.944  0.00  0.00     0.190 HD
ENDROOT
BRANCH   3   5
ATOM      5  N   UNL d   1      26.640 -15.033  -1.960  0.00  0.00    -0.295 N 
ATOM      6  H   UNL d   1      26.385 -14.265  -1.334  0.00  0.00     0.187 HD
BRANCH   5   7
ATOM      7  C   UNL d   1      27.204 -14.763  -3.224  0.00  0.00     0.091 A 
ATOM      8  C   UNL d   1      28.518 -15.141  -3.574  0.00  0.00     0.065 A 
ATOM      9 CL   UNL d   1      29.549 -16.009  -2.483  0.00  0.00    -0.082 Cl
ATOM     10  C   UNL d   1      29.037 -14.905  -4.855  0.00  0.00     0.050 A 
ATOM     11  C   UNL d   1      28.270 -14.248  -5.808  0.00  0.00     0.037 A 
ATOM     12 CL   UNL d   1      28.918 -13.966  -7.378  0.00  0.00    -0.084 Cl
ATOM     13  C   UNL d   1      26.986 -13.822  -5.497  0.00  0.00     0.050 A 
ATOM     14  C   UNL d   1      26.460 -14.085  -4.223  0.00  0.00     0.065 A 
ATOM     15 CL   UNL d   1      24.847 -13.531  -3.914  0.00  0.00    -0.082 Cl
ENDBRANCH   5   7
ENDBRANCH   3   5
BRANCH   1  16
ATOM     16  C   UNL d   1      26.920 -17.760   0.602  0.00  0.00     0.104 C 
BRANCH  16  17
ATOM     17  C   UNL d   1      25.696 -18.573   0.152  0.00  0.00     0.009 C 
BRANCH  17  18
ATOM     18  C   UNL d   1      24.373 -17.816   0.308  0.00  0.00     0.002 C 
BRANCH  18  19
ATOM     19  C   UNL d   1      23.617 -17.736  -1.027  0.00  0.00     0.020 C 
BRANCH  19  20
ATOM     20  C   UNL d   1      22.829 -19.015  -1.301  0.00  0.00     0.122 C 
BRANCH  20  21
ATOM     21  N   UNL d   1      21.887 -19.343  -0.243  0.00  0.00    -0.361 N 
ATOM     22  C   UNL d   1      20.584 -19.667  -0.550  0.00  0.00     0.213 C 
ATOM     23  C   UNL d   1      19.706 -19.987   0.629  0.00  0.00     0.117 C 
ATOM     24  O   UNL d   1      20.154 -19.695  -1.705  0.00  0.00    -0.274 OA
ATOM     25  H   UNL d   1      22.191 -19.333   0.723  0.00  0.00     0.162 HD
ENDBRANCH  20  21
ENDBRANCH  19  20
ENDBRANCH  18  19
ENDBRANCH  17  18
ENDBRANCH  16  17
ENDBRANCH   1  16
TORSDOF 8
ENDMDL
