MODEL 1
REMARK VINA RESULT:    -9.095      0.000      0.000
REMARK INTER + INTRA:         -12.462
REMARK INTER:                 -10.884
REMARK INTRA:                  -1.578
REMARK CONF_INDEPENDENT:        1.790
REMARK UNBOUND:                -1.578
REMARK  6 active torsions:
REMARK  status: ('A' for Active; 'I' for Inactive)
REMARK    1  A    between atoms: C_2  and  C_3 
REMARK    2  A    between atoms: C_3  and  N_4 
REMARK       I    between atoms: N_4  and  C_5 
REMARK       I    between atoms: C_5  and  N_7 
REMARK    3  A    between atoms: N_7  and  N_8 
REMARK       I    between atoms: N_8  and  C_9 
REMARK    4  A    between atoms: C_9  and  C_11 
REMARK    5  A    between atoms: C_13  and  C_14 
REMARK    6  A    between atoms: C_21  and  C_22 
ROOT
ATOM      1  C   UNL d   1      26.635 -13.479  -1.416  0.00  0.00     0.052 A 
ATOM      2  C   UNL d   1      27.004 -12.133  -1.631  0.00  0.00     0.046 A 
ATOM      3  C   UNL d   1      26.775 -11.521  -2.865  0.00  0.00     0.042 A 
ATOM      4  N   UNL d   1      26.201 -12.203  -3.891  0.00  0.00    -0.226 NA
ATOM      5  C   UNL d   1      25.902 -13.492  -3.673  0.00  0.00     0.208 A 
ATOM      6  O   UNL d   1      25.340 -14.306  -4.612  0.00  0.00    -0.192 OA
ATOM      7  N   UNL d   1      25.161 -15.577  -4.086  0.00  0.00    -0.125 NA
ATOM      8  C   UNL d   1      25.597 -15.502  -2.818  0.00  0.00     0.110 A 
ATOM      9  C   UNL d   1      26.089 -14.198  -2.502  0.00  0.00     0.067 A 
ENDROOT
BRANCH   1  10
ATOM     10  C   UNL d   1      26.861 -14.097  -0.082  0.00  0.00     0.271 C 
ATOM     11  N   UNL d   1      28.182 -14.239   0.315  0.00  0.00    -0.262 N 
ATOM     12  H   UNL d   1      28.979 -13.948  -0.251  0.00  0.00     0.190 HD
ATOM     13  O   UNL d   1      25.905 -14.461   0.607  0.00  0.00    -0.266 OA
BRANCH  11  14
ATOM     14  N   UNL d   1      28.505 -14.783   1.594  0.00  0.00    -0.249 N 
ATOM     15  C   UNL d   1      27.935 -14.217   2.723  0.00  0.00     0.334 C 
ATOM     16  N   UNL d   1      28.304 -14.799   3.919  0.00  0.00    -0.342 N 
ATOM     17  O   UNL d   1      27.159 -13.265   2.650  0.00  0.00    -0.246 OA
ATOM     18  H   UNL d   1      28.949 -15.575   3.921  0.00  0.00     0.164 HD
ATOM     19  H   UNL d   1      29.145 -15.572   1.602  0.00  0.00     0.192 HD
BRANCH  16  20
ATOM     20  C   UNL d   1      27.789 -14.301   5.198  0.00  0.00     0.124 C 
BRANCH  20  21
ATOM     21  C   UNL d   1      28.859 -14.127   6.285  0.00  0.00     0.015 C 
ATOM     22  C   UNL d   1      28.635 -12.861   7.113  0.00  0.00     0.006 C 
ENDBRANCH  20  21
ENDBRANCH  16  20
ENDBRANCH  11  14
ENDBRANCH   1  10
BRANCH   3  23
ATOM     23  C   UNL d   1      27.074 -10.072  -3.214  0.00  0.00     0.038 A 
ATOM     24  C   UNL d   1      26.050  -9.042  -3.624  0.00  0.00     0.011 A 
ATOM     25  C   UNL d   1      26.882  -8.830  -2.389  0.00  0.00     0.011 A 
ENDBRANCH   3  23
BRANCH   8  26
ATOM     26  C   UNL d   1      25.510 -16.623  -1.901  0.00  0.00    -0.004 C 
ATOM     27  C   UNL d   1      26.626 -17.076  -1.191  0.00  0.00     0.014 C 
ATOM     28  C   UNL d   1      26.431 -17.889  -0.073  0.00  0.00     0.001 C 
ATOM     29  C   UNL d   1      25.170 -18.431   0.189  0.00  0.00     0.000 C 
ATOM     30  C   UNL d   1      24.078 -18.074  -0.597  0.00  0.00     0.001 C 
ATOM     31  C   UNL d   1      24.238 -17.124  -1.598  0.00  0.00     0.014 C 
ENDBRANCH   8  26
TORSDOF 6
ENDMDL
MODEL 2
REMARK VINA RESULT:    -8.367      1.026      1.093
REMARK INTER + INTRA:         -12.380
REMARK INTER:                 -10.157
REMARK INTRA:                  -2.223
REMARK CONF_INDEPENDENT:        1.790
REMARK UNBOUND:                -2.223
REMARK  6 active torsions:
REMARK  status: ('A' for Active; 'I' for Inactive)
REMARK    1  A    between atoms: C_2  and  C_3 
REMARK    2  A    between atoms: C_3  and  N_4 
REMARK       I    between atoms: N_4  and  C_5 
REMARK       I    between atoms: C_5  and  N_7 
REMARK    3  A    between atoms: N_7  and  N_8 
REMARK       I    between atoms: N_8  and  C_9 
REMARK    4  A    between atoms: C_9  and  C_11 
REMARK    5  A    between atoms: C_13  and  C_14 
REMARK    6  A    between atoms: C_21  and  C_22 
ROOT
ATOM      1  C   UNL d   1      27.241 -13.410  -1.315  0.00  0.00     0.052 A 
ATOM      2  C   UNL d   1      27.449 -12.043  -1.608  0.00  0.00     0.046 A 
ATOM      3  C   UNL d   1      26.684 -11.401  -2.583  0.00  0.00     0.042 A 
ATOM      4  N   UNL d   1      25.729 -12.071  -3.281  0.00  0.00    -0.226 NA
ATOM      5  C   UNL d   1      25.585 -13.377  -3.015  0.00  0.00     0.208 A 
ATOM      6  O   UNL d   1      24.682 -14.181  -3.647  0.00  0.00    -0.192 OA
ATOM      7  N   UNL d   1      24.782 -15.475  -3.156  0.00  0.00    -0.125 NA
ATOM      8  C   UNL d   1      25.732 -15.425  -2.209  0.00  0.00     0.110 A 
ATOM      9  C   UNL d   1      26.286 -14.113  -2.081  0.00  0.00     0.067 A 
ENDROOT
BRANCH   1  10
ATOM     10  C   UNL d   1      28.048 -14.062  -0.250  0.00  0.00     0.271 C 
ATOM     11  N   UNL d   1      27.490 -14.083   1.019  0.00  0.00    -0.262 N 
ATOM     12  H   UNL d   1      26.580 -13.682   1.246  0.00  0.00     0.190 HD
ATOM     13  O   UNL d   1      29.153 -14.543  -0.511  0.00  0.00    -0.266 OA
BRANCH  11  14
ATOM     14  N   UNL d   1      28.166 -14.721   2.102  0.00  0.00    -0.249 N 
ATOM     15  C   UNL d   1      27.783 -14.417   3.399  0.00  0.00     0.334 C 
ATOM     16  N   UNL d   1      28.491 -15.073   4.387  0.00  0.00    -0.342 N 
ATOM     17  O   UNL d   1      26.878 -13.619   3.638  0.00  0.00    -0.246 OA
ATOM     18  H   UNL d   1      29.228 -15.713   4.134  0.00  0.00     0.164 HD
ATOM     19  H   UNL d   1      28.902 -15.376   1.854  0.00  0.00     0.192 HD
BRANCH  16  20
ATOM     20  C   UNL d   1      28.204 -14.845   5.806  0.00  0.00     0.124 C 
BRANCH  20  21
ATOM     21  C   UNL d   1      28.972 -13.668   6.424  0.00  0.00     0.015 C 
ATOM     22  C   UNL d   1      28.098 -12.420   6.557  0.00  0.00     0.006 C 
ENDBRANCH  20  21
ENDBRANCH  16  20
ENDBRANCH  11  14
ENDBRANCH   1  10
BRANCH   3  23
ATOM     23  C   UNL d   1      26.767  -9.930  -2.960  0.00  0.00     0.038 A 
ATOM     24  C   UNL d   1      25.611  -9.081  -3.429  0.00  0.00     0.011 A 
ATOM     25  C   UNL d   1      26.354  -8.717  -2.173  0.00  0.00     0.011 A 
ENDBRANCH   3  23
BRANCH   8  26
ATOM     26  C   UNL d   1      26.084 -16.578  -1.402  0.00  0.00    -0.004 C 
ATOM     27  C   UNL d   1      27.416 -16.947  -1.195  0.00  0.00     0.014 C 
ATOM     28  C   UNL d   1      27.722 -17.811  -0.142  0.00  0.00     0.001 C 
ATOM     29  C   UNL d   1      26.700 -18.477   0.539  0.00  0.00     0.000 C 
ATOM     30  C   UNL d   1      25.368 -18.198   0.246  0.00  0.00     0.001 C 
ATOM     31  C   UNL d   1      25.064 -17.206  -0.677  0.00  0.00     0.014 C 
ENDBRANCH   8  26
TORSDOF 6
ENDMDL
MODEL 3
REMARK VINA RESULT:    -8.348      2.755      3.414
REMARK INTER + INTRA:         -12.215
REMARK INTER:                 -10.138
REMARK INTRA:                  -2.077
REMARK CONF_INDEPENDENT:        1.790
REMARK UNBOUND:                -2.077
REMARK  6 active torsions:
REMARK  status: ('A' for Active; 'I' for Inactive)
REMARK    1  A    between atoms: C_2  and  C_3 
REMARK    2  A    between atoms: C_3  and  N_4 
REMARK       I    between atoms: N_4  and  C_5 
REMARK       I    between atoms: C_5  and  N_7 
REMARK    3  A    between atoms: N_7  and  N_8 
REMARK       I    between atoms: N_8  and  C_9 
REMARK    4  A    between atoms: C_9  and  C_11 
REMARK    5  A    between atoms: C_13  and  C_14 
REMARK    6  A    between atoms: C_21  and  C_22 
ROOT
ATOM      1  C   UNL d   1      28.589 -15.535  -2.949  0.00  0.00     0.052 A 
ATOM      2  C   UNL d   1      29.708 -15.159  -3.725  0.00  0.00     0.046 A 
ATOM      3  C   UNL d   1      29.549 -14.757  -5.053  0.00  0.00     0.042 A 
ATOM      4  N   UNL d   1      28.322 -14.727  -5.637  0.00  0.00    -0.226 NA
ATOM      5  C   UNL d   1      27.284 -15.134  -4.891  0.00  0.00     0.208 A 
ATOM      6  O   UNL d   1      25.999 -15.175  -5.345  0.00  0.00    -0.192 OA
ATOM      7  N   UNL d   1      25.161 -15.645  -4.343  0.00  0.00    -0.125 NA
ATOM      8  C   UNL d   1      25.958 -15.855  -3.283  0.00  0.00     0.110 A 
ATOM      9  C   UNL d   1      27.324 -15.554  -3.577  0.00  0.00     0.067 A 
ENDROOT
BRANCH   1  10
ATOM     10  C   UNL d   1      28.781 -15.928  -1.527  0.00  0.00     0.271 C 
ATOM     11  N   UNL d   1      28.496 -14.960  -0.577  0.00  0.00    -0.262 N 
ATOM     12  H   UNL d   1      28.171 -14.020  -0.804  0.00  0.00     0.190 HD
ATOM     13  O   UNL d   1      29.182 -17.059  -1.242  0.00  0.00    -0.266 OA
BRANCH  11  14
ATOM     14  N   UNL d   1      28.609 -15.249   0.815  0.00  0.00    -0.249 N 
ATOM     15  C   UNL d   1      27.939 -14.441   1.721  0.00  0.00     0.334 C 
ATOM     16  N   UNL d   1      28.107 -14.787   3.048  0.00  0.00    -0.342 N 
ATOM     17  O   UNL d   1      27.251 -13.490   1.356  0.00  0.00    -0.246 OA
ATOM     18  H   UNL d   1      28.688 -15.575   3.291  0.00  0.00     0.164 HD
ATOM     19  H   UNL d   1      29.184 -16.048   1.066  0.00  0.00     0.192 HD
BRANCH  16  20
ATOM     20  C   UNL d   1      27.467 -14.019   4.120  0.00  0.00     0.124 C 
BRANCH  20  21
ATOM     21  C   UNL d   1      28.059 -14.269   5.514  0.00  0.00     0.015 C 
ATOM     22  C   UNL d   1      29.481 -14.824   5.442  0.00  0.00     0.006 C 
ENDBRANCH  20  21
ENDBRANCH  16  20
ENDBRANCH  11  14
ENDBRANCH   1  10
BRANCH   3  23
ATOM     23  C   UNL d   1      30.655 -14.280  -5.981  0.00  0.00     0.038 A 
ATOM     24  C   UNL d   1      31.148 -15.014  -7.204  0.00  0.00     0.011 A 
ATOM     25  C   UNL d   1      30.554 -13.638  -7.337  0.00  0.00     0.011 A 
ENDBRANCH   3  23
BRANCH   8  26
ATOM     26  C   UNL d   1      25.440 -16.286  -1.998  0.00  0.00    -0.004 C 
ATOM     27  C   UNL d   1      24.150 -15.949  -1.578  0.00  0.00     0.014 C 
ATOM     28  C   UNL d   1      23.570 -16.672  -0.534  0.00  0.00     0.001 C 
ATOM     29  C   UNL d   1      24.345 -17.547   0.230  0.00  0.00     0.000 C 
ATOM     30  C   UNL d   1      25.672 -17.790  -0.116  0.00  0.00     0.001 C 
ATOM     31  C   UNL d   1      26.196 -17.208  -1.263  0.00  0.00     0.014 C 
ENDBRANCH   8  26
TORSDOF 6
ENDMDL
MODEL 4
REMARK VINA RESULT:    -7.935      3.410      7.504
REMARK INTER + INTRA:         -11.919
REMARK INTER:                  -9.725
REMARK INTRA:                  -2.194
REMARK CONF_INDEPENDENT:        1.790
REMARK UNBOUND:                -2.194
REMARK  6 active torsions:
REMARK  status: ('A' for Active; 'I' for Inactive)
REMARK    1  A    between atoms: C_2  and  C_3 
REMARK    2  A    between atoms: C_3  and  N_4 
REMARK       I    between atoms: N_4  and  C_5 
REMARK       I    between atoms: C_5  and  N_7 
REMARK    3  A    between atoms: N_7  and  N_8 
REMARK       I    between atoms: N_8  and  C_9 
REMARK    4  A    between atoms: C_9  and  C_11 
REMARK    5  A    between atoms: C_13  and  C_14 
REMARK    6  A    between atoms: C_21  and  C_22 
ROOT
ATOM      1  C   UNL d   1      24.754 -16.657  -1.611  0.00  0.00     0.052 A 
ATOM      2  C   UNL d   1      23.438 -17.116  -1.381  0.00  0.00     0.046 A 
ATOM      3  C   UNL d   1      23.161 -17.969  -0.311  0.00  0.00     0.042 A 
ATOM      4  N   UNL d   1      24.145 -18.387   0.529  0.00  0.00    -0.226 NA
ATOM      5  C   UNL d   1      25.391 -17.972   0.259  0.00  0.00     0.208 A 
ATOM      6  O   UNL d   1      26.480 -18.323   1.001  0.00  0.00    -0.192 OA
ATOM      7  N   UNL d   1      27.620 -17.741   0.465  0.00  0.00    -0.125 NA
ATOM      8  C   UNL d   1      27.193 -17.020  -0.584  0.00  0.00     0.110 A 
ATOM      9  C   UNL d   1      25.780 -17.137  -0.769  0.00  0.00     0.067 A 
ENDROOT
BRANCH   1  10
ATOM     10  C   UNL d   1      25.017 -15.723  -2.739  0.00  0.00     0.271 C 
ATOM     11  N   UNL d   1      24.150 -14.649  -2.865  0.00  0.00    -0.262 N 
ATOM     12  H   UNL d   1      23.364 -14.478  -2.238  0.00  0.00     0.190 HD
ATOM     13  O   UNL d   1      25.960 -15.926  -3.509  0.00  0.00    -0.266 OA
BRANCH  11  14
ATOM     14  N   UNL d   1      24.341 -13.674  -3.889  0.00  0.00    -0.249 N 
ATOM     15  C   UNL d   1      25.420 -12.810  -3.794  0.00  0.00     0.334 C 
ATOM     16  N   UNL d   1      25.527 -11.895  -4.823  0.00  0.00    -0.342 N 
ATOM     17  O   UNL d   1      26.214 -12.865  -2.857  0.00  0.00    -0.246 OA
ATOM     18  H   UNL d   1      24.843 -11.890  -5.564  0.00  0.00     0.164 HD
ATOM     19  H   UNL d   1      23.662 -13.672  -4.644  0.00  0.00     0.192 HD
BRANCH  16  20
ATOM     20  C   UNL d   1      26.613 -10.910  -4.854  0.00  0.00     0.124 C 
BRANCH  20  21
ATOM     21  C   UNL d   1      27.863 -11.373  -5.615  0.00  0.00     0.015 C 
ATOM     22  C   UNL d   1      27.725 -12.808  -6.125  0.00  0.00     0.006 C 
ENDBRANCH  20  21
ENDBRANCH  16  20
ENDBRANCH  11  14
ENDBRANCH   1  10
BRANCH   3  23
ATOM     23  C   UNL d   1      21.789 -18.496   0.081  0.00  0.00     0.038 A 
ATOM     24  C   UNL d   1      20.619 -18.671  -0.857  0.00  0.00     0.011 A 
ATOM     25  C   UNL d   1      21.191 -19.859  -0.132  0.00  0.00     0.011 A 
ENDBRANCH   3  23
BRANCH   8  26
ATOM     26  C   UNL d   1      28.088 -16.196  -1.375  0.00  0.00    -0.004 C 
ATOM     27  C   UNL d   1      28.749 -16.702  -2.497  0.00  0.00     0.014 C 
ATOM     28  C   UNL d   1      29.293 -15.808  -3.421  0.00  0.00     0.001 C 
ATOM     29  C   UNL d   1      29.382 -14.449  -3.114  0.00  0.00     0.000 C 
ATOM     30  C   UNL d   1      28.829 -13.961  -1.933  0.00  0.00     0.001 C 
ATOM     31  C   UNL d   1      28.130 -14.824  -1.098  0.00  0.00     0.014 C 
ENDBRANCH   8  26
TORSDOF 6
ENDMDL
MODEL 5
REMARK VINA RESULT:    -7.888      3.532      7.807
REMARK INTER + INTRA:         -12.474
REMARK INTER:                  -9.678
REMARK INTRA:                  -2.796
REMARK CONF_INDEPENDENT:        1.790
REMARK UNBOUND:                -2.796
REMARK  6 active torsions:
REMARK  status: ('A' for Active; 'I' for Inactive)
REMARK    1  A    between atoms: C_2  and  C_3 
REMARK    2  A    between atoms: C_3  and  N_4 
REMARK       I    between atoms: N_4  and  C_5 
REMARK       I    between atoms: C_5  and  N_7 
REMARK    3  A    between atoms: N_7  and  N_8 
REMARK       I    between atoms: N_8  and  C_9 
REMARK    4  A    between atoms: C_9  and  C_11 
REMARK    5  A    between atoms: C_13  and  C_14 
REMARK    6  A    between atoms: C_21  and  C_22 
ROOT
ATOM      1  C   UNL d   1      24.506 -16.766  -1.486  0.00  0.00     0.052 A 
ATOM      2  C   UNL d   1      23.280 -17.463  -1.575  0.00  0.00     0.046 A 
ATOM      3  C   UNL d   1      23.003 -18.526  -0.714  0.00  0.00     0.042 A 
ATOM      4  N   UNL d   1      23.904 -18.925   0.224  0.00  0.00    -0.226 NA
ATOM      5  C   UNL d   1      25.077 -18.275   0.254  0.00  0.00     0.208 A 
ATOM      6  O   UNL d   1      26.082 -18.575   1.126  0.00  0.00    -0.192 OA
ATOM      7  N   UNL d   1      27.163 -17.733   0.904  0.00  0.00    -0.125 NA
ATOM      8  C   UNL d   1      26.778 -16.914  -0.088  0.00  0.00     0.110 A 
ATOM      9  C   UNL d   1      25.459 -17.219  -0.548  0.00  0.00     0.067 A 
ENDROOT
BRANCH   1  10
ATOM     10  C   UNL d   1      24.763 -15.617  -2.395  0.00  0.00     0.271 C 
ATOM     11  N   UNL d   1      25.921 -15.680  -3.155  0.00  0.00    -0.262 N 
ATOM     12  H   UNL d   1      26.583 -16.456  -3.119  0.00  0.00     0.190 HD
ATOM     13  O   UNL d   1      23.975 -14.670  -2.441  0.00  0.00    -0.266 OA
BRANCH  11  14
ATOM     14  N   UNL d   1      26.238 -14.648  -4.087  0.00  0.00    -0.249 N 
ATOM     15  C   UNL d   1      27.243 -14.872  -5.015  0.00  0.00     0.334 C 
ATOM     16  N   UNL d   1      27.491 -13.820  -5.875  0.00  0.00    -0.342 N 
ATOM     17  O   UNL d   1      27.861 -15.934  -5.057  0.00  0.00    -0.246 OA
ATOM     18  H   UNL d   1      26.957 -12.968  -5.792  0.00  0.00     0.164 HD
ATOM     19  H   UNL d   1      25.697 -13.791  -4.016  0.00  0.00     0.192 HD
BRANCH  16  20
ATOM     20  C   UNL d   1      28.531 -13.908  -6.903  0.00  0.00     0.124 C 
BRANCH  20  21
ATOM     21  C   UNL d   1      29.917 -14.295  -6.367  0.00  0.00     0.015 C 
ATOM     22  C   UNL d   1      30.340 -15.690  -6.826  0.00  0.00     0.006 C 
ENDBRANCH  20  21
ENDBRANCH  16  20
ENDBRANCH  11  14
ENDBRANCH   1  10
BRANCH   3  23
ATOM     23  C   UNL d   1      21.711 -19.325  -0.666  0.00  0.00     0.038 A 
ATOM     24  C   UNL d   1      20.724 -19.325   0.476  0.00  0.00     0.011 A 
ATOM     25  C   UNL d   1      20.295 -18.869  -0.892  0.00  0.00     0.011 A 
ENDBRANCH   3  23
BRANCH   8  26
ATOM     26  C   UNL d   1      27.615 -15.830  -0.568  0.00  0.00    -0.004 C 
ATOM     27  C   UNL d   1      28.661 -16.057  -1.467  0.00  0.00     0.014 C 
ATOM     28  C   UNL d   1      29.190 -14.974  -2.173  0.00  0.00     0.001 C 
ATOM     29  C   UNL d   1      28.847 -13.669  -1.817  0.00  0.00     0.000 C 
ATOM     30  C   UNL d   1      27.890 -13.441  -0.832  0.00  0.00     0.001 C 
ATOM     31  C   UNL d   1      27.233 -14.520  -0.255  0.00  0.00     0.014 C 
ENDBRANCH   8  26
TORSDOF 6
ENDMDL
MODEL 6
REMARK VINA RESULT:    -7.629      3.755      7.606
REMARK INTER + INTRA:         -12.018
REMARK INTER:                  -9.419
REMARK INTRA:                  -2.598
REMARK CONF_INDEPENDENT:        1.790
REMARK UNBOUND:                -2.598
REMARK  6 active torsions:
REMARK  status: ('A' for Active; 'I' for Inactive)
REMARK    1  A    between atoms: C_2  and  C_3 
REMARK    2  A    between atoms: C_3  and  N_4 
REMARK       I    between atoms: N_4  and  C_5 
REMARK       I    between atoms: C_5  and  N_7 
REMARK    3  A    between atoms: N_7  and  N_8 
REMARK       I    between atoms: N_8  and  C_9 
REMARK    4  A    between atoms: C_9  and  C_11 
REMARK    5  A    between atoms: C_13  and  C_14 
REMARK    6  A    between atoms: C_21  and  C_22 
ROOT
ATOM      1  C   UNL d   1      25.630 -15.618  -2.523  0.00  0.00     0.052 A 
ATOM      2  C   UNL d   1      24.594 -16.317  -1.864  0.00  0.00     0.046 A 
ATOM      3  C   UNL d   1      24.892 -17.313  -0.931  0.00  0.00     0.042 A 
ATOM      4  N   UNL d   1      26.178 -17.643  -0.640  0.00  0.00    -0.226 NA
ATOM      5  C   UNL d   1      27.139 -16.995  -1.315  0.00  0.00     0.208 A 
ATOM      6  O   UNL d   1      28.471 -17.231  -1.144  0.00  0.00    -0.192 OA
ATOM      7  N   UNL d   1      29.206 -16.410  -1.987  0.00  0.00    -0.125 NA
ATOM      8  C   UNL d   1      28.298 -15.666  -2.640  0.00  0.00     0.110 A 
ATOM      9  C   UNL d   1      26.962 -16.002  -2.258  0.00  0.00     0.067 A 
ENDROOT
BRANCH   1  10
ATOM     10  C   UNL d   1      25.287 -14.540  -3.489  0.00  0.00     0.271 C 
ATOM     11  N   UNL d   1      25.423 -13.238  -3.032  0.00  0.00    -0.262 N 
ATOM     12  H   UNL d   1      25.738 -12.996  -2.092  0.00  0.00     0.190 HD
ATOM     13  O   UNL d   1      24.897 -14.821  -4.625  0.00  0.00    -0.266 OA
BRANCH  11  14
ATOM     14  N   UNL d   1      25.158 -12.132  -3.893  0.00  0.00    -0.249 N 
ATOM     15  C   UNL d   1      25.644 -10.882  -3.542  0.00  0.00     0.334 C 
ATOM     16  N   UNL d   1      25.338  -9.866  -4.426  0.00  0.00    -0.342 N 
ATOM     17  O   UNL d   1      26.297 -10.705  -2.515  0.00  0.00    -0.246 OA
ATOM     18  H   UNL d   1      24.793 -10.067  -5.251  0.00  0.00     0.164 HD
ATOM     19  H   UNL d   1      24.620 -12.329  -4.732  0.00  0.00     0.192 HD
BRANCH  16  20
ATOM     20  C   UNL d   1      25.776  -8.489  -4.182  0.00  0.00     0.124 C 
BRANCH  20  21
ATOM     21  C   UNL d   1      24.957  -7.425  -4.927  0.00  0.00     0.015 C 
ATOM     22  C   UNL d   1      23.715  -8.020  -5.592  0.00  0.00     0.006 C 
ENDBRANCH  20  21
ENDBRANCH  16  20
ENDBRANCH  11  14
ENDBRANCH   1  10
BRANCH   3  23
ATOM     23  C   UNL d   1      23.882 -18.104  -0.115  0.00  0.00     0.038 A 
ATOM     24  C   UNL d   1      22.381 -18.019  -0.260  0.00  0.00     0.011 A 
ATOM     25  C   UNL d   1      23.090 -19.324  -0.496  0.00  0.00     0.011 A 
ENDBRANCH   3  23
BRANCH   8  26
ATOM     26  C   UNL d   1      28.677 -14.622  -3.574  0.00  0.00    -0.004 C 
ATOM     27  C   UNL d   1      28.575 -14.805  -4.955  0.00  0.00     0.014 C 
ATOM     28  C   UNL d   1      28.594 -13.684  -5.788  0.00  0.00     0.001 C 
ATOM     29  C   UNL d   1      28.945 -12.434  -5.273  0.00  0.00     0.000 C 
ATOM     30  C   UNL d   1      29.168 -12.277  -3.909  0.00  0.00     0.001 C 
ATOM     31  C   UNL d   1      28.973 -13.356  -3.056  0.00  0.00     0.014 C 
ENDBRANCH   8  26
TORSDOF 6
ENDMDL
MODEL 7
REMARK VINA RESULT:    -7.257      2.204      2.681
REMARK INTER + INTRA:         -11.478
REMARK INTER:                  -9.047
REMARK INTRA:                  -2.430
REMARK CONF_INDEPENDENT:        1.790
REMARK UNBOUND:                -2.430
REMARK  6 active torsions:
REMARK  status: ('A' for Active; 'I' for Inactive)
REMARK    1  A    between atoms: C_2  and  C_3 
REMARK    2  A    between atoms: C_3  and  N_4 
REMARK       I    between atoms: N_4  and  C_5 
REMARK       I    between atoms: C_5  and  N_7 
REMARK    3  A    between atoms: N_7  and  N_8 
REMARK       I    between atoms: N_8  and  C_9 
REMARK    4  A    between atoms: C_9  and  C_11 
REMARK    5  A    between atoms: C_13  and  C_14 
REMARK    6  A    between atoms: C_21  and  C_22 
ROOT
ATOM      1  C   UNL d   1      26.667 -13.154  -1.751  0.00  0.00     0.052 A 
ATOM      2  C   UNL d   1      26.796 -11.795  -2.115  0.00  0.00     0.046 A 
ATOM      3  C   UNL d   1      26.303 -11.338  -3.339  0.00  0.00     0.042 A 
ATOM      4  N   UNL d   1      25.696 -12.183  -4.213  0.00  0.00    -0.226 NA
ATOM      5  C   UNL d   1      25.628 -13.476  -3.861  0.00  0.00     0.208 A 
ATOM      6  O   UNL d   1      25.065 -14.442  -4.641  0.00  0.00    -0.192 OA
ATOM      7  N   UNL d   1      25.155 -15.672  -4.005  0.00  0.00    -0.125 NA
ATOM      8  C   UNL d   1      25.752 -15.421  -2.828  0.00  0.00     0.110 A 
ATOM      9  C   UNL d   1      26.084 -14.038  -2.685  0.00  0.00     0.067 A 
ENDROOT
BRANCH   1  10
ATOM     10  C   UNL d   1      27.172 -13.610  -0.428  0.00  0.00     0.271 C 
ATOM     11  N   UNL d   1      28.485 -14.055  -0.391  0.00  0.00    -0.262 N 
ATOM     12  H   UNL d   1      29.098 -14.083  -1.205  0.00  0.00     0.190 HD
ATOM     13  O   UNL d   1      26.437 -13.587   0.562  0.00  0.00    -0.266 OA
BRANCH  11  14
ATOM     14  N   UNL d   1      29.077 -14.475   0.837  0.00  0.00    -0.249 N 
ATOM     15  C   UNL d   1      30.449 -14.666   0.885  0.00  0.00     0.334 C 
ATOM     16  N   UNL d   1      30.940 -15.078   2.109  0.00  0.00    -0.342 N 
ATOM     17  O   UNL d   1      31.164 -14.479  -0.098  0.00  0.00    -0.246 OA
ATOM     18  H   UNL d   1      30.306 -15.221   2.880  0.00  0.00     0.164 HD
ATOM     19  H   UNL d   1      28.446 -14.610   1.622  0.00  0.00     0.192 HD
BRANCH  16  20
ATOM     20  C   UNL d   1      32.370 -15.329   2.308  0.00  0.00     0.124 C 
BRANCH  20  21
ATOM     21  C   UNL d   1      32.770 -16.808   2.211  0.00  0.00     0.015 C 
ATOM     22  C   UNL d   1      32.278 -17.451   0.913  0.00  0.00     0.006 C 
ENDBRANCH  20  21
ENDBRANCH  16  20
ENDBRANCH  11  14
ENDBRANCH   1  10
BRANCH   3  23
ATOM     23  C   UNL d   1      26.329  -9.900  -3.832  0.00  0.00     0.038 A 
ATOM     24  C   UNL d   1      25.157  -9.157  -4.427  0.00  0.00     0.011 A 
ATOM     25  C   UNL d   1      25.812  -8.652  -3.171  0.00  0.00     0.011 A 
ENDBRANCH   3  23
BRANCH   8  26
ATOM     26  C   UNL d   1      25.966 -16.453  -1.832  0.00  0.00    -0.004 C 
ATOM     27  C   UNL d   1      27.242 -16.741  -1.340  0.00  0.00     0.014 C 
ATOM     28  C   UNL d   1      27.360 -17.460  -0.148  0.00  0.00     0.001 C 
ATOM     29  C   UNL d   1      26.240 -18.079   0.412  0.00  0.00     0.000 C 
ATOM     30  C   UNL d   1      24.982 -17.891  -0.153  0.00  0.00     0.001 C 
ATOM     31  C   UNL d   1      24.839 -17.030  -1.234  0.00  0.00     0.014 C 
ENDBRANCH   8  26
TORSDOF 6
ENDMDL
MODEL 8
REMARK VINA RESULT:    -6.994      1.967      5.134
REMARK INTER + INTRA:         -11.331
REMARK INTER:                  -8.784
REMARK INTRA:                  -2.548
REMARK CONF_INDEPENDENT:        1.790
REMARK UNBOUND:                -2.548
REMARK  6 active torsions:
REMARK  status: ('A' for Active; 'I' for Inactive)
REMARK    1  A    between atoms: C_2  and  C_3 
REMARK    2  A    between atoms: C_3  and  N_4 
REMARK       I    between atoms: N_4  and  C_5 
REMARK       I    between atoms: C_5  and  N_7 
REMARK    3  A    between atoms: N_7  and  N_8 
REMARK       I    between atoms: N_8  and  C_9 
REMARK    4  A    between atoms: C_9  and  C_11 
REMARK    5  A    between atoms: C_13  and  C_14 
REMARK    6  A    between atoms: C_21  and  C_22 
ROOT
ATOM      1  C   UNL d   1      26.316 -16.220  -0.418  0.00  0.00     0.052 A 
ATOM      2  C   UNL d   1      25.443 -17.290  -0.121  0.00  0.00     0.046 A 
ATOM      3  C   UNL d   1      24.320 -17.531  -0.915  0.00  0.00     0.042 A 
ATOM      4  N   UNL d   1      24.032 -16.743  -1.985  0.00  0.00    -0.226 NA
ATOM      5  C   UNL d   1      24.853 -15.708  -2.215  0.00  0.00     0.208 A 
ATOM      6  O   UNL d   1      24.681 -14.822  -3.238  0.00  0.00    -0.192 OA
ATOM      7  N   UNL d   1      25.687 -13.866  -3.205  0.00  0.00    -0.125 NA
ATOM      8  C   UNL d   1      26.471 -14.210  -2.171  0.00  0.00     0.110 A 
ATOM      9  C   UNL d   1      25.983 -15.372  -1.497  0.00  0.00     0.067 A 
ENDROOT
BRANCH   1  10
ATOM     10  C   UNL d   1      27.523 -16.003   0.424  0.00  0.00     0.271 C 
ATOM     11  N   UNL d   1      27.402 -15.074   1.446  0.00  0.00    -0.262 N 
ATOM     12  H   UNL d   1      26.549 -14.549   1.638  0.00  0.00     0.190 HD
ATOM     13  O   UNL d   1      28.563 -16.627   0.196  0.00  0.00    -0.266 OA
BRANCH  11  14
ATOM     14  N   UNL d   1      28.489 -14.823   2.335  0.00  0.00    -0.249 N 
ATOM     15  C   UNL d   1      28.306 -13.925   3.375  0.00  0.00     0.334 C 
ATOM     16  N   UNL d   1      29.409 -13.736   4.185  0.00  0.00    -0.342 N 
ATOM     17  O   UNL d   1      27.235 -13.346   3.551  0.00  0.00    -0.246 OA
ATOM     18  H   UNL d   1      30.265 -14.233   3.991  0.00  0.00     0.164 HD
ATOM     19  H   UNL d   1      29.350 -15.330   2.152  0.00  0.00     0.192 HD
BRANCH  16  20
ATOM     20  C   UNL d   1      29.368 -12.808   5.319  0.00  0.00     0.124 C 
BRANCH  20  21
ATOM     21  C   UNL d   1      28.486 -13.277   6.485  0.00  0.00     0.015 C 
ATOM     22  C   UNL d   1      29.285 -14.052   7.533  0.00  0.00     0.006 C 
ENDBRANCH  20  21
ENDBRANCH  16  20
ENDBRANCH  11  14
ENDBRANCH   1  10
BRANCH   3  23
ATOM     23  C   UNL d   1      23.330 -18.672  -0.741  0.00  0.00     0.038 A 
ATOM     24  C   UNL d   1      22.157 -18.675   0.210  0.00  0.00     0.011 A 
ATOM     25  C   UNL d   1      21.930 -18.813  -1.271  0.00  0.00     0.011 A 
ENDBRANCH   3  23
BRANCH   8  26
ATOM     26  C   UNL d   1      27.687 -13.488  -1.847  0.00  0.00    -0.004 C 
ATOM     27  C   UNL d   1      27.721 -12.535  -0.826  0.00  0.00     0.014 C 
ATOM     28  C   UNL d   1      28.958 -12.142  -0.309  0.00  0.00     0.001 C 
ATOM     29  C   UNL d   1      30.138 -12.514  -0.956  0.00  0.00     0.000 C 
ATOM     30  C   UNL d   1      30.095 -13.369  -2.054  0.00  0.00     0.001 C 
ATOM     31  C   UNL d   1      28.877 -13.902  -2.457  0.00  0.00     0.014 C 
ENDBRANCH   8  26
TORSDOF 6
ENDMDL
MODEL 9
REMARK VINA RESULT:    -6.815      4.066      8.416
REMARK INTER + INTRA:         -11.304
REMARK INTER:                  -8.605
REMARK INTRA:                  -2.699
REMARK CONF_INDEPENDENT:        1.790
REMARK UNBOUND:                -2.699
REMARK  6 active torsions:
REMARK  status: ('A' for Active; 'I' for Inactive)
REMARK    1  A    between atoms: C_2  and  C_3 
REMARK    2  A    between atoms: C_3  and  N_4 
REMARK       I    between atoms: N_4  and  C_5 
REMARK       I    between atoms: C_5  and  N_7 
REMARK    3  A    between atoms: N_7  and  N_8 
REMARK       I    between atoms: N_8  and  C_9 
REMARK    4  A    between atoms: C_9  and  C_11 
REMARK    5  A    between atoms: C_13  and  C_14 
REMARK    6  A    between atoms: C_21  and  C_22 
ROOT
ATOM      1  C   UNL d   1      25.962 -13.144  -3.353  0.00  0.00     0.052 A 
ATOM      2  C   UNL d   1      25.191 -13.838  -2.394  0.00  0.00     0.046 A 
ATOM      3  C   UNL d   1      25.074 -15.228  -2.448  0.00  0.00     0.042 A 
ATOM      4  N   UNL d   1      25.687 -15.948  -3.425  0.00  0.00    -0.226 NA
ATOM      5  C   UNL d   1      26.373 -15.259  -4.348  0.00  0.00     0.208 A 
ATOM      6  O   UNL d   1      27.024 -15.842  -5.395  0.00  0.00    -0.192 OA
ATOM      7  N   UNL d   1      27.632 -14.866  -6.172  0.00  0.00    -0.125 NA
ATOM      8  C   UNL d   1      27.358 -13.702  -5.561  0.00  0.00     0.110 A 
ATOM      9  C   UNL d   1      26.551 -13.891  -4.396  0.00  0.00     0.067 A 
ENDROOT
BRANCH   1  10
ATOM     10  C   UNL d   1      26.097 -11.665  -3.254  0.00  0.00     0.271 C 
ATOM     11  N   UNL d   1      25.530 -10.926  -4.280  0.00  0.00    -0.262 N 
ATOM     12  H   UNL d   1      25.041 -11.338  -5.075  0.00  0.00     0.190 HD
ATOM     13  O   UNL d   1      26.693 -11.156  -2.302  0.00  0.00    -0.266 OA
BRANCH  11  14
ATOM     14  N   UNL d   1      25.569  -9.500  -4.259  0.00  0.00    -0.249 N 
ATOM     15  C   UNL d   1      25.013  -8.801  -5.319  0.00  0.00     0.334 C 
ATOM     16  N   UNL d   1      25.099  -7.426  -5.222  0.00  0.00    -0.342 N 
ATOM     17  O   UNL d   1      24.487  -9.376  -6.270  0.00  0.00    -0.246 OA
ATOM     18  H   UNL d   1      25.548  -7.007  -4.421  0.00  0.00     0.164 HD
ATOM     19  H   UNL d   1      26.009  -9.071  -3.450  0.00  0.00     0.192 HD
BRANCH  16  20
ATOM     20  C   UNL d   1      24.563  -6.555  -6.272  0.00  0.00     0.124 C 
BRANCH  20  21
ATOM     21  C   UNL d   1      23.056  -6.714  -6.515  0.00  0.00     0.015 C 
ATOM     22  C   UNL d   1      22.288  -6.951  -5.214  0.00  0.00     0.006 C 
ENDBRANCH  20  21
ENDBRANCH  16  20
ENDBRANCH  11  14
ENDBRANCH   1  10
BRANCH   3  23
ATOM     23  C   UNL d   1      24.323 -16.101  -1.456  0.00  0.00     0.038 A 
ATOM     24  C   UNL d   1      24.002 -17.564  -1.646  0.00  0.00     0.011 A 
ATOM     25  C   UNL d   1      24.853 -17.122  -0.487  0.00  0.00     0.011 A 
ENDBRANCH   3  23
BRANCH   8  26
ATOM     26  C   UNL d   1      27.884 -12.435  -6.034  0.00  0.00    -0.004 C 
ATOM     27  C   UNL d   1      27.381 -11.818  -7.182  0.00  0.00     0.014 C 
ATOM     28  C   UNL d   1      27.645 -10.462  -7.391  0.00  0.00     0.001 C 
ATOM     29  C   UNL d   1      28.585  -9.800  -6.597  0.00  0.00     0.000 C 
ATOM     30  C   UNL d   1      29.180 -10.457  -5.523  0.00  0.00     0.001 C 
ATOM     31  C   UNL d   1      28.782 -11.749  -5.207  0.00  0.00     0.014 C 
ENDBRANCH   8  26
TORSDOF 6
ENDMDL
