MODEL 1
REMARK VINA RESULT:    -8.047      0.000      0.000
REMARK INTER + INTRA:         -15.033
REMARK INTER:                 -11.925
REMARK INTRA:                  -3.108
REMARK CONF_INDEPENDENT:        3.878
REMARK UNBOUND:                -3.108
REMARK  13 active torsions:
REMARK  status: ('A' for Active; 'I' for Inactive)
REMARK    1  A    between atoms: C_2  and  C_3 
REMARK    2  A    between atoms: C_3  and  C_4 
REMARK    3  A    between atoms: C_4  and  N_5 
REMARK       I    between atoms: N_5  and  C_6 
REMARK    4  A    between atoms: C_8  and  C_6 
REMARK    5  A    between atoms: C_8  and  N_18 
REMARK    6  A    between atoms: C_8  and  C_9 
REMARK    7  A    between atoms: C_10  and  O_11 
REMARK    8  A    between atoms: C_13  and  O_14 
REMARK    9  A    between atoms: C_16  and  O_17 
REMARK       I    between atoms: N_18  and  C_20 
REMARK   10  A    between atoms: C_20  and  C_22 
REMARK   11  A    between atoms: C_22  and  O_23 
REMARK   12  A    between atoms: C_22  and  C_24 
REMARK   13  A    between atoms: C_22  and  C_30 
ROOT
ATOM      1  C   UNL d   1      26.126 -13.704  -4.594  0.00  0.00     0.217 C 
ENDROOT
BRANCH   1   2
ATOM      2  N   UNL d   1      26.647 -14.606  -3.537  0.00  0.00    -0.336 N 
ATOM      3  C   UNL d   1      28.067 -14.782  -3.421  0.00  0.00     0.154 C 
ATOM      4  C   UNL d   1      25.709 -15.115  -2.631  0.00  0.00     0.264 C 
ATOM      5  O   UNL d   1      24.513 -14.835  -2.839  0.00  0.00    -0.269 OA
BRANCH   4   6
ATOM      6  C   UNL d   1      26.139 -16.046  -1.389  0.00  0.00     0.194 C 
BRANCH   6   7
ATOM      7  O   UNL d   1      27.037 -17.073  -1.825  0.00  0.00    -0.371 OA
ATOM      8  H   UNL d   1      27.723 -17.214  -1.173  0.00  0.00     0.212 HD
ENDBRANCH   6   7
BRANCH   6   9
ATOM      9  C   UNL d   1      26.749 -15.180  -0.252  0.00  0.00    -0.010 C 
ATOM     10  C   UNL d   1      27.711 -15.707   0.632  0.00  0.00     0.011 C 
ATOM     11  C   UNL d   1      28.057 -15.061   1.817  0.00  0.00     0.001 C 
ATOM     12  C   UNL d   1      27.466 -13.851   2.140  0.00  0.00     0.000 C 
ATOM     13  C   UNL d   1      26.570 -13.269   1.256  0.00  0.00     0.001 C 
ATOM     14  C   UNL d   1      26.279 -13.892   0.040  0.00  0.00     0.011 C 
ENDBRANCH   6   9
BRANCH   6  15
ATOM     15  C   UNL d   1      24.917 -16.834  -0.868  0.00  0.00    -0.010 A 
ATOM     16  C   UNL d   1      25.036 -18.185  -0.477  0.00  0.00     0.011 A 
ATOM     17  C   UNL d   1      23.929 -18.951  -0.157  0.00  0.00     0.001 A 
ATOM     18  C   UNL d   1      22.675 -18.358  -0.150  0.00  0.00     0.000 A 
ATOM     19  C   UNL d   1      22.526 -17.021  -0.512  0.00  0.00     0.001 A 
ATOM     20  C   UNL d   1      23.634 -16.266  -0.883  0.00  0.00     0.011 A 
ENDBRANCH   6  15
ENDBRANCH   4   6
ENDBRANCH   1   2
BRANCH   1  21
ATOM     21  C   UNL d   1      26.021 -12.178  -4.293  0.00  0.00     0.040 A 
ATOM     22  C   UNL d   1      26.444 -11.674  -3.045  0.00  0.00     0.080 A 
ATOM     23  C   UNL d   1      26.284 -10.337  -2.685  0.00  0.00     0.073 A 
ATOM     24  C   UNL d   1      25.750  -9.431  -3.580  0.00  0.00     0.071 A 
ATOM     25  C   UNL d   1      25.374  -9.839  -4.841  0.00  0.00     0.073 A 
ATOM     26  C   UNL d   1      25.563 -11.178  -5.207  0.00  0.00     0.080 A 
BRANCH  22  27
ATOM     27  O   UNL d   1      27.150 -12.375  -2.101  0.00  0.00    -0.360 OA
ATOM     28  H   UNL d   1      28.110 -12.272  -2.219  0.00  0.00     0.217 HD
ENDBRANCH  22  27
BRANCH  24  29
ATOM     29  O   UNL d   1      25.654  -8.111  -3.273  0.00  0.00    -0.361 OA
ATOM     30  H   UNL d   1      24.781  -7.969  -2.868  0.00  0.00     0.217 HD
ENDBRANCH  24  29
BRANCH  26  31
ATOM     31  O   UNL d   1      25.270 -11.451  -6.522  0.00  0.00    -0.360 OA
ATOM     32  H   UNL d   1      24.335 -11.726  -6.584  0.00  0.00     0.217 HD
ENDBRANCH  26  31
ENDBRANCH   1  21
BRANCH   1  33
ATOM     33  C   UNL d   1      27.173 -14.000  -5.747  0.00  0.00     0.245 C 
ATOM     34  N   UNL d   1      27.895 -12.922  -6.246  0.00  0.00    -0.359 N 
ATOM     35  H   UNL d   1      27.358 -12.053  -6.281  0.00  0.00     0.162 HD
ATOM     36  O   UNL d   1      27.400 -15.136  -6.145  0.00  0.00    -0.271 OA
BRANCH  34  37
ATOM     37  C   UNL d   1      28.888 -13.141  -7.285  0.00  0.00     0.122 C 
BRANCH  37  38
ATOM     38  C   UNL d   1      30.227 -13.633  -6.744  0.00  0.00     0.019 C 
BRANCH  38  39
ATOM     39  C   UNL d   1      30.444 -15.113  -7.076  0.00  0.00    -0.003 C 
ATOM     40  C   UNL d   1      30.231 -15.985  -5.851  0.00  0.00     0.005 C 
ENDBRANCH  38  39
ENDBRANCH  37  38
ENDBRANCH  34  37
ENDBRANCH   1  33
TORSDOF 13
ENDMDL
MODEL 2
REMARK VINA RESULT:    -7.905      0.803      1.512
REMARK INTER + INTRA:         -14.988
REMARK INTER:                 -11.783
REMARK INTRA:                  -3.205
REMARK CONF_INDEPENDENT:        3.878
REMARK UNBOUND:                -3.205
REMARK  13 active torsions:
REMARK  status: ('A' for Active; 'I' for Inactive)
REMARK    1  A    between atoms: C_2  and  C_3 
REMARK    2  A    between atoms: C_3  and  C_4 
REMARK    3  A    between atoms: C_4  and  N_5 
REMARK       I    between atoms: N_5  and  C_6 
REMARK    4  A    between atoms: C_8  and  C_6 
REMARK    5  A    between atoms: C_8  and  N_18 
REMARK    6  A    between atoms: C_8  and  C_9 
REMARK    7  A    between atoms: C_10  and  O_11 
REMARK    8  A    between atoms: C_13  and  O_14 
REMARK    9  A    between atoms: C_16  and  O_17 
REMARK       I    between atoms: N_18  and  C_20 
REMARK   10  A    between atoms: C_20  and  C_22 
REMARK   11  A    between atoms: C_22  and  O_23 
REMARK   12  A    between atoms: C_22  and  C_24 
REMARK   13  A    between atoms: C_22  and  C_30 
ROOT
ATOM      1  C   UNL d   1      26.267 -13.622  -4.519  0.00  0.00     0.217 C 
ENDROOT
BRANCH   1   2
ATOM      2  N   UNL d   1      26.777 -14.497  -3.433  0.00  0.00    -0.336 N 
ATOM      3  C   UNL d   1      28.193 -14.545  -3.197  0.00  0.00     0.154 C 
ATOM      4  C   UNL d   1      25.817 -15.107  -2.619  0.00  0.00     0.264 C 
ATOM      5  O   UNL d   1      24.622 -14.933  -2.926  0.00  0.00    -0.269 OA
BRANCH   4   6
ATOM      6  C   UNL d   1      26.223 -16.023  -1.358  0.00  0.00     0.194 C 
BRANCH   6   7
ATOM      7  O   UNL d   1      27.142 -17.046  -1.761  0.00  0.00    -0.371 OA
ATOM      8  H   UNL d   1      28.028 -16.692  -1.823  0.00  0.00     0.212 HD
ENDBRANCH   6   7
BRANCH   6   9
ATOM      9  C   UNL d   1      26.796 -15.141  -0.214  0.00  0.00    -0.010 C 
ATOM     10  C   UNL d   1      27.765 -15.640   0.680  0.00  0.00     0.011 C 
ATOM     11  C   UNL d   1      28.079 -14.986   1.868  0.00  0.00     0.001 C 
ATOM     12  C   UNL d   1      27.450 -13.794   2.187  0.00  0.00     0.000 C 
ATOM     13  C   UNL d   1      26.546 -13.238   1.294  0.00  0.00     0.001 C 
ATOM     14  C   UNL d   1      26.285 -13.867   0.075  0.00  0.00     0.011 C 
ENDBRANCH   6   9
BRANCH   6  15
ATOM     15  C   UNL d   1      24.995 -16.818  -0.861  0.00  0.00    -0.010 A 
ATOM     16  C   UNL d   1      25.103 -18.183  -0.518  0.00  0.00     0.011 A 
ATOM     17  C   UNL d   1      23.990 -18.949  -0.220  0.00  0.00     0.001 A 
ATOM     18  C   UNL d   1      22.742 -18.345  -0.189  0.00  0.00     0.000 A 
ATOM     19  C   UNL d   1      22.604 -16.995  -0.503  0.00  0.00     0.001 A 
ATOM     20  C   UNL d   1      23.718 -16.237  -0.851  0.00  0.00     0.011 A 
ENDBRANCH   6  15
ENDBRANCH   4   6
ENDBRANCH   1   2
BRANCH   1  21
ATOM     21  C   UNL d   1      26.111 -12.096  -4.241  0.00  0.00     0.040 A 
ATOM     22  C   UNL d   1      26.534 -11.556  -3.009  0.00  0.00     0.080 A 
ATOM     23  C   UNL d   1      26.331 -10.219  -2.668  0.00  0.00     0.073 A 
ATOM     24  C   UNL d   1      25.749  -9.350  -3.570  0.00  0.00     0.071 A 
ATOM     25  C   UNL d   1      25.368  -9.792  -4.816  0.00  0.00     0.073 A 
ATOM     26  C   UNL d   1      25.601 -11.130  -5.164  0.00  0.00     0.080 A 
BRANCH  22  27
ATOM     27  O   UNL d   1      27.282 -12.213  -2.065  0.00  0.00    -0.360 OA
ATOM     28  H   UNL d   1      28.233 -12.164  -2.260  0.00  0.00     0.217 HD
ENDBRANCH  22  27
BRANCH  24  29
ATOM     29  O   UNL d   1      25.609  -8.028  -3.282  0.00  0.00    -0.361 OA
ATOM     30  H   UNL d   1      24.781  -7.926  -2.782  0.00  0.00     0.217 HD
ENDBRANCH  24  29
BRANCH  26  31
ATOM     31  O   UNL d   1      25.298 -11.436  -6.469  0.00  0.00    -0.360 OA
ATOM     32  H   UNL d   1      24.326 -11.452  -6.569  0.00  0.00     0.217 HD
ENDBRANCH  26  31
ENDBRANCH   1  21
BRANCH   1  33
ATOM     33  C   UNL d   1      27.360 -13.903  -5.631  0.00  0.00     0.245 C 
ATOM     34  N   UNL d   1      27.992 -12.802  -6.199  0.00  0.00    -0.359 N 
ATOM     35  H   UNL d   1      27.378 -11.991  -6.306  0.00  0.00     0.162 HD
ATOM     36  O   UNL d   1      27.699 -15.039  -5.941  0.00  0.00    -0.271 OA
BRANCH  34  37
ATOM     37  C   UNL d   1      29.021 -13.002  -7.206  0.00  0.00     0.122 C 
BRANCH  37  38
ATOM     38  C   UNL d   1      28.556 -12.662  -8.619  0.00  0.00     0.019 C 
BRANCH  38  39
ATOM     39  C   UNL d   1      27.948 -11.257  -8.674  0.00  0.00    -0.003 C 
ATOM     40  C   UNL d   1      26.660 -11.250  -9.480  0.00  0.00     0.005 C 
ENDBRANCH  38  39
ENDBRANCH  37  38
ENDBRANCH  34  37
ENDBRANCH   1  33
TORSDOF 13
ENDMDL
MODEL 3
REMARK VINA RESULT:    -7.140      2.791      6.457
REMARK INTER + INTRA:         -14.540
REMARK INTER:                 -11.018
REMARK INTRA:                  -3.522
REMARK CONF_INDEPENDENT:        3.878
REMARK UNBOUND:                -3.522
REMARK  13 active torsions:
REMARK  status: ('A' for Active; 'I' for Inactive)
REMARK    1  A    between atoms: C_2  and  C_3 
REMARK    2  A    between atoms: C_3  and  C_4 
REMARK    3  A    between atoms: C_4  and  N_5 
REMARK       I    between atoms: N_5  and  C_6 
REMARK    4  A    between atoms: C_8  and  C_6 
REMARK    5  A    between atoms: C_8  and  N_18 
REMARK    6  A    between atoms: C_8  and  C_9 
REMARK    7  A    between atoms: C_10  and  O_11 
REMARK    8  A    between atoms: C_13  and  O_14 
REMARK    9  A    between atoms: C_16  and  O_17 
REMARK       I    between atoms: N_18  and  C_20 
REMARK   10  A    between atoms: C_20  and  C_22 
REMARK   11  A    between atoms: C_22  and  O_23 
REMARK   12  A    between atoms: C_22  and  C_24 
REMARK   13  A    between atoms: C_22  and  C_30 
ROOT
ATOM      1  C   UNL d   1      26.045 -15.277  -1.108  0.00  0.00     0.217 C 
ENDROOT
BRANCH   1   2
ATOM      2  N   UNL d   1      27.050 -15.032  -0.044  0.00  0.00    -0.336 N 
ATOM      3  C   UNL d   1      27.564 -16.156   0.688  0.00  0.00     0.154 C 
ATOM      4  C   UNL d   1      27.533 -13.724   0.072  0.00  0.00     0.264 C 
ATOM      5  O   UNL d   1      27.018 -12.864  -0.668  0.00  0.00    -0.269 OA
BRANCH   4   6
ATOM      6  C   UNL d   1      28.679 -13.326   1.132  0.00  0.00     0.194 C 
BRANCH   6   7
ATOM      7  O   UNL d   1      29.178 -12.012   0.855  0.00  0.00    -0.371 OA
ATOM      8  H   UNL d   1      28.640 -11.586   0.188  0.00  0.00     0.212 HD
ENDBRANCH   6   7
BRANCH   6   9
ATOM      9  C   UNL d   1      28.139 -13.453   2.583  0.00  0.00    -0.010 C 
ATOM     10  C   UNL d   1      27.980 -12.320   3.406  0.00  0.00     0.011 C 
ATOM     11  C   UNL d   1      27.778 -12.429   4.780  0.00  0.00     0.001 C 
ATOM     12  C   UNL d   1      27.701 -13.680   5.369  0.00  0.00     0.000 C 
ATOM     13  C   UNL d   1      27.779 -14.815   4.576  0.00  0.00     0.001 C 
ATOM     14  C   UNL d   1      27.916 -14.697   3.191  0.00  0.00     0.011 C 
ENDBRANCH   6   9
BRANCH   6  15
ATOM     15  C   UNL d   1      29.918 -14.228   0.938  0.00  0.00    -0.010 A 
ATOM     16  C   UNL d   1      30.195 -14.825  -0.311  0.00  0.00     0.011 A 
ATOM     17  C   UNL d   1      31.207 -15.756  -0.465  0.00  0.00     0.001 A 
ATOM     18  C   UNL d   1      32.017 -16.059   0.619  0.00  0.00     0.000 A 
ATOM     19  C   UNL d   1      31.782 -15.473   1.861  0.00  0.00     0.001 A 
ATOM     20  C   UNL d   1      30.733 -14.575   2.026  0.00  0.00     0.011 A 
ENDBRANCH   6  15
ENDBRANCH   4   6
ENDBRANCH   1   2
BRANCH   1  21
ATOM     21  C   UNL d   1      26.497 -15.198  -2.598  0.00  0.00     0.040 A 
ATOM     22  C   UNL d   1      27.756 -15.706  -2.982  0.00  0.00     0.080 A 
ATOM     23  C   UNL d   1      28.251 -15.575  -4.279  0.00  0.00     0.073 A 
ATOM     24  C   UNL d   1      27.484 -14.985  -5.264  0.00  0.00     0.071 A 
ATOM     25  C   UNL d   1      26.219 -14.524  -4.977  0.00  0.00     0.073 A 
ATOM     26  C   UNL d   1      25.715 -14.683  -3.679  0.00  0.00     0.080 A 
BRANCH  22  27
ATOM     27  O   UNL d   1      28.579 -16.472  -2.197  0.00  0.00    -0.360 OA
ATOM     28  H   UNL d   1      28.074 -17.080  -1.631  0.00  0.00     0.217 HD
ENDBRANCH  22  27
BRANCH  24  29
ATOM     29  O   UNL d   1      27.921 -14.915  -6.549  0.00  0.00    -0.361 OA
ATOM     30  H   UNL d   1      28.489 -15.689  -6.706  0.00  0.00     0.217 HD
ENDBRANCH  24  29
BRANCH  26  31
ATOM     31  O   UNL d   1      24.402 -14.302  -3.531  0.00  0.00    -0.360 OA
ATOM     32  H   UNL d   1      24.042 -14.074  -4.411  0.00  0.00     0.217 HD
ENDBRANCH  26  31
ENDBRANCH   1  21
BRANCH   1  33
ATOM     33  C   UNL d   1      25.583 -16.741  -0.716  0.00  0.00     0.245 C 
ATOM     34  N   UNL d   1      24.323 -16.882  -0.144  0.00  0.00    -0.359 N 
ATOM     35  H   UNL d   1      24.064 -16.104   0.466  0.00  0.00     0.162 HD
ATOM     36  O   UNL d   1      26.265 -17.729  -0.962  0.00  0.00    -0.271 OA
BRANCH  34  37
ATOM     37  C   UNL d   1      23.838 -18.206   0.211  0.00  0.00     0.122 C 
BRANCH  37  38
ATOM     38  C   UNL d   1      23.064 -18.885  -0.914  0.00  0.00     0.019 C 
BRANCH  38  39
ATOM     39  C   UNL d   1      21.588 -18.474  -0.892  0.00  0.00    -0.003 C 
ATOM     40  C   UNL d   1      20.798 -19.330   0.085  0.00  0.00     0.005 C 
ENDBRANCH  38  39
ENDBRANCH  37  38
ENDBRANCH  34  37
ENDBRANCH   1  33
TORSDOF 13
ENDMDL
MODEL 4
REMARK VINA RESULT:    -6.770      3.377      6.453
REMARK INTER + INTRA:         -14.918
REMARK INTER:                 -10.648
REMARK INTRA:                  -4.271
REMARK CONF_INDEPENDENT:        3.878
REMARK UNBOUND:                -4.271
REMARK  13 active torsions:
REMARK  status: ('A' for Active; 'I' for Inactive)
REMARK    1  A    between atoms: C_2  and  C_3 
REMARK    2  A    between atoms: C_3  and  C_4 
REMARK    3  A    between atoms: C_4  and  N_5 
REMARK       I    between atoms: N_5  and  C_6 
REMARK    4  A    between atoms: C_8  and  C_6 
REMARK    5  A    between atoms: C_8  and  N_18 
REMARK    6  A    between atoms: C_8  and  C_9 
REMARK    7  A    between atoms: C_10  and  O_11 
REMARK    8  A    between atoms: C_13  and  O_14 
REMARK    9  A    between atoms: C_16  and  O_17 
REMARK       I    between atoms: N_18  and  C_20 
REMARK   10  A    between atoms: C_20  and  C_22 
REMARK   11  A    between atoms: C_22  and  O_23 
REMARK   12  A    between atoms: C_22  and  C_24 
REMARK   13  A    between atoms: C_22  and  C_30 
ROOT
ATOM      1  C   UNL d   1      29.728 -13.744   0.959  0.00  0.00     0.217 C 
ENDROOT
BRANCH   1   2
ATOM      2  N   UNL d   1      28.656 -13.787  -0.066  0.00  0.00    -0.336 N 
ATOM      3  C   UNL d   1      28.608 -12.747  -1.055  0.00  0.00     0.154 C 
ATOM      4  C   UNL d   1      27.846 -14.929  -0.077  0.00  0.00     0.264 C 
ATOM      5  O   UNL d   1      28.041 -15.768   0.823  0.00  0.00    -0.269 OA
BRANCH   4   6
ATOM      6  C   UNL d   1      26.692 -15.147  -1.178  0.00  0.00     0.194 C 
BRANCH   6   7
ATOM      7  O   UNL d   1      25.835 -14.000  -1.234  0.00  0.00    -0.371 OA
ATOM      8  H   UNL d   1      25.967 -13.448  -0.464  0.00  0.00     0.212 HD
ENDBRANCH   6   7
BRANCH   6   9
ATOM      9  C   UNL d   1      27.320 -15.476  -2.560  0.00  0.00    -0.010 C 
ATOM     10  C   UNL d   1      28.635 -15.969  -2.668  0.00  0.00     0.011 C 
ATOM     11  C   UNL d   1      29.316 -15.999  -3.882  0.00  0.00     0.001 C 
ATOM     12  C   UNL d   1      28.688 -15.558  -5.036  0.00  0.00     0.000 C 
ATOM     13  C   UNL d   1      27.368 -15.136  -4.977  0.00  0.00     0.001 C 
ATOM     14  C   UNL d   1      26.672 -15.171  -3.766  0.00  0.00     0.011 C 
ENDBRANCH   6   9
BRANCH   6  15
ATOM     15  C   UNL d   1      25.743 -16.283  -0.735  0.00  0.00    -0.010 A 
ATOM     16  C   UNL d   1      26.250 -17.491  -0.212  0.00  0.00     0.011 A 
ATOM     17  C   UNL d   1      25.428 -18.575   0.045  0.00  0.00     0.001 A 
ATOM     18  C   UNL d   1      24.061 -18.449  -0.149  0.00  0.00     0.000 A 
ATOM     19  C   UNL d   1      23.526 -17.262  -0.645  0.00  0.00     0.001 A 
ATOM     20  C   UNL d   1      24.359 -16.190  -0.951  0.00  0.00     0.011 A 
ENDBRANCH   6  15
ENDBRANCH   4   6
ENDBRANCH   1   2
BRANCH   1  21
ATOM     21  C   UNL d   1      29.365 -14.073   2.439  0.00  0.00     0.040 A 
ATOM     22  C   UNL d   1      30.380 -14.412   3.357  0.00  0.00     0.080 A 
ATOM     23  C   UNL d   1      30.105 -14.809   4.665  0.00  0.00     0.073 A 
ATOM     24  C   UNL d   1      28.805 -14.824   5.131  0.00  0.00     0.071 A 
ATOM     25  C   UNL d   1      27.768 -14.444   4.310  0.00  0.00     0.073 A 
ATOM     26  C   UNL d   1      28.053 -14.019   3.006  0.00  0.00     0.080 A 
BRANCH  22  27
ATOM     27  O   UNL d   1      31.729 -14.288   3.136  0.00  0.00    -0.360 OA
ATOM     28  H   UNL d   1      32.230 -14.276   3.968  0.00  0.00     0.217 HD
ENDBRANCH  22  27
BRANCH  24  29
ATOM     29  O   UNL d   1      28.525 -15.139   6.424  0.00  0.00    -0.361 OA
ATOM     30  H   UNL d   1      28.169 -16.044   6.432  0.00  0.00     0.217 HD
ENDBRANCH  24  29
BRANCH  26  31
ATOM     31  O   UNL d   1      26.963 -13.546   2.314  0.00  0.00    -0.360 OA
ATOM     32  H   UNL d   1      26.793 -14.138   1.555  0.00  0.00     0.217 HD
ENDBRANCH  26  31
ENDBRANCH   1  21
BRANCH   1  33
ATOM     33  C   UNL d   1      30.728 -14.813   0.353  0.00  0.00     0.245 C 
ATOM     34  N   UNL d   1      30.458 -16.155   0.602  0.00  0.00    -0.359 N 
ATOM     35  H   UNL d   1      30.059 -16.323   1.529  0.00  0.00     0.162 HD
ATOM     36  O   UNL d   1      31.666 -14.494  -0.368  0.00  0.00    -0.271 OA
BRANCH  34  37
ATOM     37  C   UNL d   1      31.328 -17.179   0.048  0.00  0.00     0.122 C 
BRANCH  37  38
ATOM     38  C   UNL d   1      30.644 -18.041  -1.009  0.00  0.00     0.019 C 
BRANCH  38  39
ATOM     39  C   UNL d   1      31.675 -18.726  -1.911  0.00  0.00    -0.003 C 
ATOM     40  C   UNL d   1      31.155 -18.858  -3.333  0.00  0.00     0.005 C 
ENDBRANCH  38  39
ENDBRANCH  37  38
ENDBRANCH  34  37
ENDBRANCH   1  33
TORSDOF 13
ENDMDL
MODEL 5
REMARK VINA RESULT:    -6.720      3.477      6.739
REMARK INTER + INTRA:         -14.622
REMARK INTER:                 -10.598
REMARK INTRA:                  -4.024
REMARK CONF_INDEPENDENT:        3.878
REMARK UNBOUND:                -4.024
REMARK  13 active torsions:
REMARK  status: ('A' for Active; 'I' for Inactive)
REMARK    1  A    between atoms: C_2  and  C_3 
REMARK    2  A    between atoms: C_3  and  C_4 
REMARK    3  A    between atoms: C_4  and  N_5 
REMARK       I    between atoms: N_5  and  C_6 
REMARK    4  A    between atoms: C_8  and  C_6 
REMARK    5  A    between atoms: C_8  and  N_18 
REMARK    6  A    between atoms: C_8  and  C_9 
REMARK    7  A    between atoms: C_10  and  O_11 
REMARK    8  A    between atoms: C_13  and  O_14 
REMARK    9  A    between atoms: C_16  and  O_17 
REMARK       I    between atoms: N_18  and  C_20 
REMARK   10  A    between atoms: C_20  and  C_22 
REMARK   11  A    between atoms: C_22  and  O_23 
REMARK   12  A    between atoms: C_22  and  C_24 
REMARK   13  A    between atoms: C_22  and  C_30 
ROOT
ATOM      1  C   UNL d   1      29.642 -13.638   0.872  0.00  0.00     0.217 C 
ENDROOT
BRANCH   1   2
ATOM      2  N   UNL d   1      28.626 -13.729  -0.206  0.00  0.00    -0.336 N 
ATOM      3  C   UNL d   1      28.627 -12.731  -1.238  0.00  0.00     0.154 C 
ATOM      4  C   UNL d   1      27.823 -14.875  -0.214  0.00  0.00     0.264 C 
ATOM      5  O   UNL d   1      27.973 -15.677   0.729  0.00  0.00    -0.269 OA
BRANCH   4   6
ATOM      6  C   UNL d   1      26.730 -15.145  -1.365  0.00  0.00     0.194 C 
BRANCH   6   7
ATOM      7  O   UNL d   1      25.849 -14.021  -1.488  0.00  0.00    -0.371 OA
ATOM      8  H   UNL d   1      25.896 -13.475  -0.704  0.00  0.00     0.212 HD
ENDBRANCH   6   7
BRANCH   6   9
ATOM      9  C   UNL d   1      27.433 -15.487  -2.707  0.00  0.00    -0.010 C 
ATOM     10  C   UNL d   1      28.755 -15.974  -2.738  0.00  0.00     0.011 C 
ATOM     11  C   UNL d   1      29.500 -16.014  -3.914  0.00  0.00     0.001 C 
ATOM     12  C   UNL d   1      28.932 -15.591  -5.104  0.00  0.00     0.000 C 
ATOM     13  C   UNL d   1      27.610 -15.175  -5.122  0.00  0.00     0.001 C 
ATOM     14  C   UNL d   1      26.850 -15.200  -3.950  0.00  0.00     0.011 C 
ENDBRANCH   6   9
BRANCH   6  15
ATOM     15  C   UNL d   1      25.787 -16.295  -0.944  0.00  0.00    -0.010 A 
ATOM     16  C   UNL d   1      24.387 -16.166  -1.059  0.00  0.00     0.011 A 
ATOM     17  C   UNL d   1      23.523 -17.118  -0.546  0.00  0.00     0.001 A 
ATOM     18  C   UNL d   1      24.046 -18.263   0.034  0.00  0.00     0.000 A 
ATOM     19  C   UNL d   1      25.426 -18.430   0.146  0.00  0.00     0.001 A 
ATOM     20  C   UNL d   1      26.292 -17.449  -0.325  0.00  0.00     0.011 A 
ENDBRANCH   6  15
ENDBRANCH   4   6
ENDBRANCH   1   2
BRANCH   1  21
ATOM     21  C   UNL d   1      29.216 -13.972   2.334  0.00  0.00     0.040 A 
ATOM     22  C   UNL d   1      30.192 -14.320   3.292  0.00  0.00     0.080 A 
ATOM     23  C   UNL d   1      29.860 -14.721   4.585  0.00  0.00     0.073 A 
ATOM     24  C   UNL d   1      28.543 -14.732   4.997  0.00  0.00     0.071 A 
ATOM     25  C   UNL d   1      27.541 -14.343   4.136  0.00  0.00     0.073 A 
ATOM     26  C   UNL d   1      27.882 -13.914   2.846  0.00  0.00     0.080 A 
BRANCH  22  27
ATOM     27  O   UNL d   1      31.548 -14.201   3.127  0.00  0.00    -0.360 OA
ATOM     28  H   UNL d   1      32.010 -14.139   3.980  0.00  0.00     0.217 HD
ENDBRANCH  22  27
BRANCH  24  29
ATOM     29  O   UNL d   1      28.208 -15.050   6.276  0.00  0.00    -0.361 OA
ATOM     30  H   UNL d   1      28.530 -15.953   6.445  0.00  0.00     0.217 HD
ENDBRANCH  24  29
BRANCH  26  31
ATOM     31  O   UNL d   1      26.824 -13.432   2.112  0.00  0.00    -0.360 OA
ATOM     32  H   UNL d   1      26.634 -14.061   1.389  0.00  0.00     0.217 HD
ENDBRANCH  26  31
ENDBRANCH   1  21
BRANCH   1  33
ATOM     33  C   UNL d   1      30.712 -14.672   0.326  0.00  0.00     0.245 C 
ATOM     34  N   UNL d   1      30.448 -16.024   0.513  0.00  0.00    -0.359 N 
ATOM     35  H   UNL d   1      29.972 -16.227   1.395  0.00  0.00     0.162 HD
ATOM     36  O   UNL d   1      31.704 -14.316  -0.299  0.00  0.00    -0.271 OA
BRANCH  34  37
ATOM     37  C   UNL d   1      31.382 -17.017   0.009  0.00  0.00     0.122 C 
BRANCH  37  38
ATOM     38  C   UNL d   1      32.611 -17.191   0.895  0.00  0.00     0.019 C 
BRANCH  38  39
ATOM     39  C   UNL d   1      32.761 -18.647   1.349  0.00  0.00    -0.003 C 
ATOM     40  C   UNL d   1      32.655 -18.761   2.861  0.00  0.00     0.005 C 
ENDBRANCH  38  39
ENDBRANCH  37  38
ENDBRANCH  34  37
ENDBRANCH   1  33
TORSDOF 13
ENDMDL
MODEL 6
REMARK VINA RESULT:    -6.630      3.329      7.230
REMARK INTER + INTRA:         -14.621
REMARK INTER:                 -10.508
REMARK INTRA:                  -4.113
REMARK CONF_INDEPENDENT:        3.878
REMARK UNBOUND:                -4.113
REMARK  13 active torsions:
REMARK  status: ('A' for Active; 'I' for Inactive)
REMARK    1  A    between atoms: C_2  and  C_3 
REMARK    2  A    between atoms: C_3  and  C_4 
REMARK    3  A    between atoms: C_4  and  N_5 
REMARK       I    between atoms: N_5  and  C_6 
REMARK    4  A    between atoms: C_8  and  C_6 
REMARK    5  A    between atoms: C_8  and  N_18 
REMARK    6  A    between atoms: C_8  and  C_9 
REMARK    7  A    between atoms: C_10  and  O_11 
REMARK    8  A    between atoms: C_13  and  O_14 
REMARK    9  A    between atoms: C_16  and  O_17 
REMARK       I    between atoms: N_18  and  C_20 
REMARK   10  A    between atoms: C_20  and  C_22 
REMARK   11  A    between atoms: C_22  and  O_23 
REMARK   12  A    between atoms: C_22  and  C_24 
REMARK   13  A    between atoms: C_22  and  C_30 
ROOT
ATOM      1  C   UNL d   1      28.196 -13.094   1.873  0.00  0.00     0.217 C 
ENDROOT
BRANCH   1   2
ATOM      2  N   UNL d   1      27.737 -14.104   0.886  0.00  0.00    -0.336 N 
ATOM      3  C   UNL d   1      26.501 -13.877   0.193  0.00  0.00     0.154 C 
ATOM      4  C   UNL d   1      28.627 -15.146   0.598  0.00  0.00     0.264 C 
ATOM      5  O   UNL d   1      29.686 -15.182   1.254  0.00  0.00    -0.269 OA
BRANCH   4   6
ATOM      6  C   UNL d   1      28.296 -16.271  -0.505  0.00  0.00     0.194 C 
BRANCH   6   7
ATOM      7  O   UNL d   1      29.190 -17.383  -0.365  0.00  0.00    -0.371 OA
ATOM      8  H   UNL d   1      29.642 -17.342   0.477  0.00  0.00     0.212 HD
ENDBRANCH   6   7
BRANCH   6   9
ATOM      9  C   UNL d   1      26.807 -16.702  -0.406  0.00  0.00    -0.010 C 
ATOM     10  C   UNL d   1      26.363 -17.578   0.605  0.00  0.00     0.011 C 
ATOM     11  C   UNL d   1      25.119 -18.200   0.550  0.00  0.00     0.001 C 
ATOM     12  C   UNL d   1      24.266 -17.943  -0.511  0.00  0.00     0.000 C 
ATOM     13  C   UNL d   1      24.642 -17.029  -1.485  0.00  0.00     0.001 C 
ATOM     14  C   UNL d   1      25.864 -16.360  -1.386  0.00  0.00     0.011 C 
ENDBRANCH   6   9
BRANCH   6  15
ATOM     15  C   UNL d   1      28.609 -15.736  -1.920  0.00  0.00    -0.010 A 
ATOM     16  C   UNL d   1      28.298 -14.408  -2.280  0.00  0.00     0.011 A 
ATOM     17  C   UNL d   1      28.426 -13.957  -3.582  0.00  0.00     0.001 A 
ATOM     18  C   UNL d   1      28.941 -14.810  -4.546  0.00  0.00     0.000 A 
ATOM     19  C   UNL d   1      29.276 -16.123  -4.219  0.00  0.00     0.001 A 
ATOM     20  C   UNL d   1      29.099 -16.590  -2.920  0.00  0.00     0.011 A 
ENDBRANCH   6  15
ENDBRANCH   4   6
ENDBRANCH   1   2
BRANCH   1  21
ATOM     21  C   UNL d   1      27.614 -11.650   1.792  0.00  0.00     0.040 A 
ATOM     22  C   UNL d   1      27.279 -10.957   2.974  0.00  0.00     0.080 A 
ATOM     23  C   UNL d   1      26.667  -9.704   2.958  0.00  0.00     0.073 A 
ATOM     24  C   UNL d   1      26.420  -9.062   1.761  0.00  0.00     0.071 A 
ATOM     25  C   UNL d   1      26.779  -9.651   0.569  0.00  0.00     0.073 A 
ATOM     26  C   UNL d   1      27.419 -10.897   0.592  0.00  0.00     0.080 A 
BRANCH  22  27
ATOM     27  O   UNL d   1      27.604 -11.349   4.247  0.00  0.00    -0.360 OA
ATOM     28  H   UNL d   1      27.047 -12.087   4.550  0.00  0.00     0.217 HD
ENDBRANCH  22  27
BRANCH  24  29
ATOM     29  O   UNL d   1      25.890  -7.810   1.730  0.00  0.00    -0.361 OA
ATOM     30  H   UNL d   1      25.496  -7.683   0.849  0.00  0.00     0.217 HD
ENDBRANCH  24  29
BRANCH  26  31
ATOM     31  O   UNL d   1      27.844 -11.337  -0.640  0.00  0.00    -0.360 OA
ATOM     32  H   UNL d   1      27.155 -11.130  -1.300  0.00  0.00     0.217 HD
ENDBRANCH  26  31
ENDBRANCH   1  21
BRANCH   1  33
ATOM     33  C   UNL d   1      27.775 -13.818   3.219  0.00  0.00     0.245 C 
ATOM     34  N   UNL d   1      28.757 -14.538   3.890  0.00  0.00    -0.359 N 
ATOM     35  H   UNL d   1      29.417 -15.006   3.265  0.00  0.00     0.162 HD
ATOM     36  O   UNL d   1      26.655 -13.700   3.700  0.00  0.00    -0.271 OA
BRANCH  34  37
ATOM     37  C   UNL d   1      28.433 -15.200   5.144  0.00  0.00     0.122 C 
BRANCH  37  38
ATOM     38  C   UNL d   1      28.946 -14.450   6.369  0.00  0.00     0.019 C 
BRANCH  38  39
ATOM     39  C   UNL d   1      28.155 -13.158   6.595  0.00  0.00    -0.003 C 
ATOM     40  C   UNL d   1      29.086 -11.983   6.841  0.00  0.00     0.005 C 
ENDBRANCH  38  39
ENDBRANCH  37  38
ENDBRANCH  34  37
ENDBRANCH   1  33
TORSDOF 13
ENDMDL
MODEL 7
REMARK VINA RESULT:    -6.479      2.380      5.543
REMARK INTER + INTRA:         -14.856
REMARK INTER:                 -10.357
REMARK INTRA:                  -4.499
REMARK CONF_INDEPENDENT:        3.878
REMARK UNBOUND:                -4.499
REMARK  13 active torsions:
REMARK  status: ('A' for Active; 'I' for Inactive)
REMARK    1  A    between atoms: C_2  and  C_3 
REMARK    2  A    between atoms: C_3  and  C_4 
REMARK    3  A    between atoms: C_4  and  N_5 
REMARK       I    between atoms: N_5  and  C_6 
REMARK    4  A    between atoms: C_8  and  C_6 
REMARK    5  A    between atoms: C_8  and  N_18 
REMARK    6  A    between atoms: C_8  and  C_9 
REMARK    7  A    between atoms: C_10  and  O_11 
REMARK    8  A    between atoms: C_13  and  O_14 
REMARK    9  A    between atoms: C_16  and  O_17 
REMARK       I    between atoms: N_18  and  C_20 
REMARK   10  A    between atoms: C_20  and  C_22 
REMARK   11  A    between atoms: C_22  and  O_23 
REMARK   12  A    between atoms: C_22  and  C_24 
REMARK   13  A    between atoms: C_22  and  C_30 
ROOT
ATOM      1  C   UNL d   1      28.988 -15.585  -5.503  0.00  0.00     0.217 C 
ENDROOT
BRANCH   1   2
ATOM      2  N   UNL d   1      28.107 -15.051  -4.435  0.00  0.00    -0.336 N 
ATOM      3  C   UNL d   1      28.712 -14.445  -3.283  0.00  0.00     0.154 C 
ATOM      4  C   UNL d   1      26.732 -15.051  -4.701  0.00  0.00     0.264 C 
ATOM      5  O   UNL d   1      26.363 -15.574  -5.770  0.00  0.00    -0.269 OA
BRANCH   4   6
ATOM      6  C   UNL d   1      25.663 -14.435  -3.667  0.00  0.00     0.194 C 
BRANCH   6   7
ATOM      7  O   UNL d   1      24.407 -14.217  -4.321  0.00  0.00    -0.371 OA
ATOM      8  H   UNL d   1      24.479 -14.417  -5.254  0.00  0.00     0.212 HD
ENDBRANCH   6   7
BRANCH   6   9
ATOM      9  C   UNL d   1      25.523 -15.355  -2.423  0.00  0.00    -0.010 C 
ATOM     10  C   UNL d   1      26.623 -16.078  -1.920  0.00  0.00     0.011 C 
ATOM     11  C   UNL d   1      26.468 -17.115  -1.003  0.00  0.00     0.001 C 
ATOM     12  C   UNL d   1      25.204 -17.443  -0.540  0.00  0.00     0.000 C 
ATOM     13  C   UNL d   1      24.109 -16.702  -0.958  0.00  0.00     0.001 C 
ATOM     14  C   UNL d   1      24.282 -15.622  -1.827  0.00  0.00     0.011 C 
ENDBRANCH   6   9
BRANCH   6  15
ATOM     15  C   UNL d   1      26.095 -13.014  -3.239  0.00  0.00    -0.010 A 
ATOM     16  C   UNL d   1      26.163 -11.961  -4.176  0.00  0.00     0.011 A 
ATOM     17  C   UNL d   1      26.694 -10.727  -3.846  0.00  0.00     0.001 A 
ATOM     18  C   UNL d   1      27.104 -10.492  -2.543  0.00  0.00     0.000 A 
ATOM     19  C   UNL d   1      27.032 -11.505  -1.589  0.00  0.00     0.001 A 
ATOM     20  C   UNL d   1      26.545 -12.762  -1.934  0.00  0.00     0.011 A 
ENDBRANCH   6  15
ENDBRANCH   4   6
ENDBRANCH   1   2
BRANCH   1  21
ATOM     21  C   UNL d   1      29.607 -14.591  -6.532  0.00  0.00     0.040 A 
ATOM     22  C   UNL d   1      30.828 -14.901  -7.167  0.00  0.00     0.080 A 
ATOM     23  C   UNL d   1      31.475 -14.008  -8.020  0.00  0.00     0.073 A 
ATOM     24  C   UNL d   1      30.899 -12.790  -8.324  0.00  0.00     0.071 A 
ATOM     25  C   UNL d   1      29.677 -12.446  -7.791  0.00  0.00     0.073 A 
ATOM     26  C   UNL d   1      29.018 -13.359  -6.957  0.00  0.00     0.080 A 
BRANCH  22  27
ATOM     27  O   UNL d   1      31.459 -16.118  -7.130  0.00  0.00    -0.360 OA
ATOM     28  H   UNL d   1      31.809 -16.315  -6.244  0.00  0.00     0.217 HD
ENDBRANCH  22  27
BRANCH  24  29
ATOM     29  O   UNL d   1      31.481 -11.938  -9.210  0.00  0.00    -0.361 OA
ATOM     30  H   UNL d   1      31.377 -12.325 -10.097  0.00  0.00     0.217 HD
ENDBRANCH  24  29
BRANCH  26  31
ATOM     31  O   UNL d   1      27.755 -12.969  -6.580  0.00  0.00    -0.360 OA
ATOM     32  H   UNL d   1      27.161 -13.744  -6.629  0.00  0.00     0.217 HD
ENDBRANCH  26  31
ENDBRANCH   1  21
BRANCH   1  33
ATOM     33  C   UNL d   1      30.105 -16.276  -4.615  0.00  0.00     0.245 C 
ATOM     34  N   UNL d   1      29.889 -17.594  -4.229  0.00  0.00    -0.359 N 
ATOM     35  H   UNL d   1      28.907 -17.807  -4.039  0.00  0.00     0.162 HD
ATOM     36  O   UNL d   1      31.153 -15.711  -4.330  0.00  0.00    -0.271 OA
BRANCH  34  37
ATOM     37  C   UNL d   1      30.893 -18.285  -3.436  0.00  0.00     0.122 C 
BRANCH  37  38
ATOM     38  C   UNL d   1      31.407 -19.561  -4.096  0.00  0.00     0.019 C 
BRANCH  38  39
ATOM     39  C   UNL d   1      30.406 -20.087  -5.130  0.00  0.00    -0.003 C 
ATOM     40  C   UNL d   1      30.919 -19.872  -6.544  0.00  0.00     0.005 C 
ENDBRANCH  38  39
ENDBRANCH  37  38
ENDBRANCH  34  37
ENDBRANCH   1  33
TORSDOF 13
ENDMDL
MODEL 8
REMARK VINA RESULT:    -6.340      2.460      6.172
REMARK INTER + INTRA:         -14.925
REMARK INTER:                 -10.218
REMARK INTRA:                  -4.708
REMARK CONF_INDEPENDENT:        3.878
REMARK UNBOUND:                -4.708
REMARK  13 active torsions:
REMARK  status: ('A' for Active; 'I' for Inactive)
REMARK    1  A    between atoms: C_2  and  C_3 
REMARK    2  A    between atoms: C_3  and  C_4 
REMARK    3  A    between atoms: C_4  and  N_5 
REMARK       I    between atoms: N_5  and  C_6 
REMARK    4  A    between atoms: C_8  and  C_6 
REMARK    5  A    between atoms: C_8  and  N_18 
REMARK    6  A    between atoms: C_8  and  C_9 
REMARK    7  A    between atoms: C_10  and  O_11 
REMARK    8  A    between atoms: C_13  and  O_14 
REMARK    9  A    between atoms: C_16  and  O_17 
REMARK       I    between atoms: N_18  and  C_20 
REMARK   10  A    between atoms: C_20  and  C_22 
REMARK   11  A    between atoms: C_22  and  O_23 
REMARK   12  A    between atoms: C_22  and  C_24 
REMARK   13  A    between atoms: C_22  and  C_30 
ROOT
ATOM      1  C   UNL d   1      30.197 -14.529  -5.126  0.00  0.00     0.217 C 
ENDROOT
BRANCH   1   2
ATOM      2  N   UNL d   1      28.954 -14.257  -4.362  0.00  0.00    -0.336 N 
ATOM      3  C   UNL d   1      29.010 -13.333  -3.264  0.00  0.00     0.154 C 
ATOM      4  C   UNL d   1      27.775 -14.820  -4.864  0.00  0.00     0.264 C 
ATOM      5  O   UNL d   1      27.883 -15.566  -5.856  0.00  0.00    -0.269 OA
BRANCH   4   6
ATOM      6  C   UNL d   1      26.341 -14.549  -4.183  0.00  0.00     0.194 C 
BRANCH   6   7
ATOM      7  O   UNL d   1      25.289 -15.015  -5.036  0.00  0.00    -0.371 OA
ATOM      8  H   UNL d   1      25.653 -15.491  -5.782  0.00  0.00     0.212 HD
ENDBRANCH   6   7
BRANCH   6   9
ATOM      9  C   UNL d   1      26.283 -15.200  -2.773  0.00  0.00    -0.010 C 
ATOM     10  C   UNL d   1      27.454 -15.620  -2.111  0.00  0.00     0.011 C 
ATOM     11  C   UNL d   1      27.413 -16.453  -0.996  0.00  0.00     0.001 C 
ATOM     12  C   UNL d   1      26.193 -16.871  -0.492  0.00  0.00     0.000 C 
ATOM     13  C   UNL d   1      25.020 -16.416  -1.075  0.00  0.00     0.001 C 
ATOM     14  C   UNL d   1      25.069 -15.528  -2.152  0.00  0.00     0.011 C 
ENDBRANCH   6   9
BRANCH   6  15
ATOM     15  C   UNL d   1      26.078 -13.030  -4.085  0.00  0.00    -0.010 A 
ATOM     16  C   UNL d   1      25.927 -12.242  -5.246  0.00  0.00     0.011 A 
ATOM     17  C   UNL d   1      25.846 -10.862  -5.184  0.00  0.00     0.001 A 
ATOM     18  C   UNL d   1      25.840 -10.239  -3.945  0.00  0.00     0.000 A 
ATOM     19  C   UNL d   1      25.967 -10.990  -2.778  0.00  0.00     0.001 A 
ATOM     20  C   UNL d   1      26.100 -12.374  -2.845  0.00  0.00     0.011 A 
ENDBRANCH   6  15
ENDBRANCH   4   6
ENDBRANCH   1   2
BRANCH   1  21
ATOM     21  C   UNL d   1      30.451 -15.973  -5.655  0.00  0.00     0.040 A 
ATOM     22  C   UNL d   1      30.102 -17.087  -4.862  0.00  0.00     0.080 A 
ATOM     23  C   UNL d   1      30.394 -18.396  -5.242  0.00  0.00     0.073 A 
ATOM     24  C   UNL d   1      30.992 -18.654  -6.460  0.00  0.00     0.071 A 
ATOM     25  C   UNL d   1      31.302 -17.620  -7.314  0.00  0.00     0.073 A 
ATOM     26  C   UNL d   1      30.981 -16.308  -6.940  0.00  0.00     0.080 A 
BRANCH  22  27
ATOM     27  O   UNL d   1      29.352 -17.044  -3.714  0.00  0.00    -0.360 OA
ATOM     28  H   UNL d   1      28.471 -16.665  -3.874  0.00  0.00     0.217 HD
ENDBRANCH  22  27
BRANCH  24  29
ATOM     29  O   UNL d   1      31.218 -19.927  -6.878  0.00  0.00    -0.361 OA
ATOM     30  H   UNL d   1      32.059 -20.218  -6.484  0.00  0.00     0.217 HD
ENDBRANCH  24  29
BRANCH  26  31
ATOM     31  O   UNL d   1      31.221 -15.367  -7.914  0.00  0.00    -0.360 OA
ATOM     32  H   UNL d   1      30.383 -15.181  -8.382  0.00  0.00     0.217 HD
ENDBRANCH  26  31
ENDBRANCH   1  21
BRANCH   1  33
ATOM     33  C   UNL d   1      30.019 -13.495  -6.314  0.00  0.00     0.245 C 
ATOM     34  N   UNL d   1      29.120 -13.828  -7.321  0.00  0.00    -0.359 N 
ATOM     35  H   UNL d   1      29.096 -14.829  -7.531  0.00  0.00     0.162 HD
ATOM     36  O   UNL d   1      30.589 -12.411  -6.326  0.00  0.00    -0.271 OA
BRANCH  34  37
ATOM     37  C   UNL d   1      28.898 -12.904  -8.422  0.00  0.00     0.122 C 
BRANCH  37  38
ATOM     38  C   UNL d   1      28.161 -11.636  -8.003  0.00  0.00     0.019 C 
BRANCH  38  39
ATOM     39  C   UNL d   1      27.238 -11.141  -9.121  0.00  0.00    -0.003 C 
ATOM     40  C   UNL d   1      27.184 -12.139 -10.266  0.00  0.00     0.005 C 
ENDBRANCH  38  39
ENDBRANCH  37  38
ENDBRANCH  34  37
ENDBRANCH   1  33
TORSDOF 13
ENDMDL
MODEL 9
REMARK VINA RESULT:    -5.948      2.292      5.650
REMARK INTER + INTRA:         -14.660
REMARK INTER:                  -9.826
REMARK INTRA:                  -4.834
REMARK CONF_INDEPENDENT:        3.878
REMARK UNBOUND:                -4.834
REMARK  13 active torsions:
REMARK  status: ('A' for Active; 'I' for Inactive)
REMARK    1  A    between atoms: C_2  and  C_3 
REMARK    2  A    between atoms: C_3  and  C_4 
REMARK    3  A    between atoms: C_4  and  N_5 
REMARK       I    between atoms: N_5  and  C_6 
REMARK    4  A    between atoms: C_8  and  C_6 
REMARK    5  A    between atoms: C_8  and  N_18 
REMARK    6  A    between atoms: C_8  and  C_9 
REMARK    7  A    between atoms: C_10  and  O_11 
REMARK    8  A    between atoms: C_13  and  O_14 
REMARK    9  A    between atoms: C_16  and  O_17 
REMARK       I    between atoms: N_18  and  C_20 
REMARK   10  A    between atoms: C_20  and  C_22 
REMARK   11  A    between atoms: C_22  and  O_23 
REMARK   12  A    between atoms: C_22  and  C_24 
REMARK   13  A    between atoms: C_22  and  C_30 
ROOT
ATOM      1  C   UNL d   1      29.044 -15.579  -5.454  0.00  0.00     0.217 C 
ENDROOT
BRANCH   1   2
ATOM      2  N   UNL d   1      28.128 -15.037  -4.419  0.00  0.00    -0.336 N 
ATOM      3  C   UNL d   1      28.695 -14.420  -3.253  0.00  0.00     0.154 C 
ATOM      4  C   UNL d   1      26.763 -15.040  -4.728  0.00  0.00     0.264 C 
ATOM      5  O   UNL d   1      26.429 -15.573  -5.804  0.00  0.00    -0.269 OA
BRANCH   4   6
ATOM      6  C   UNL d   1      25.660 -14.417  -3.735  0.00  0.00     0.194 C 
BRANCH   6   7
ATOM      7  O   UNL d   1      24.427 -14.201  -4.432  0.00  0.00    -0.371 OA
ATOM      8  H   UNL d   1      24.527 -14.417  -5.359  0.00  0.00     0.212 HD
ENDBRANCH   6   7
BRANCH   6   9
ATOM      9  C   UNL d   1      25.477 -15.330  -2.491  0.00  0.00    -0.010 C 
ATOM     10  C   UNL d   1      26.554 -16.064  -1.957  0.00  0.00     0.011 C 
ATOM     11  C   UNL d   1      26.363 -17.094  -1.040  0.00  0.00     0.001 C 
ATOM     12  C   UNL d   1      25.084 -17.405  -0.608  0.00  0.00     0.000 C 
ATOM     13  C   UNL d   1      24.009 -16.653  -1.058  0.00  0.00     0.001 C 
ATOM     14  C   UNL d   1      24.217 -15.579  -1.927  0.00  0.00     0.011 C 
ENDBRANCH   6   9
BRANCH   6  15
ATOM     15  C   UNL d   1      26.080 -12.995  -3.300  0.00  0.00    -0.010 A 
ATOM     16  C   UNL d   1      26.110 -11.931  -4.227  0.00  0.00     0.011 A 
ATOM     17  C   UNL d   1      26.629 -10.691  -3.895  0.00  0.00     0.001 A 
ATOM     18  C   UNL d   1      27.066 -10.465  -2.599  0.00  0.00     0.000 A 
ATOM     19  C   UNL d   1      27.031 -11.489  -1.655  0.00  0.00     0.001 A 
ATOM     20  C   UNL d   1      26.556 -12.750  -2.003  0.00  0.00     0.011 A 
ENDBRANCH   6  15
ENDBRANCH   4   6
ENDBRANCH   1   2
BRANCH   1  21
ATOM     21  C   UNL d   1      29.647 -14.601  -6.508  0.00  0.00     0.040 A 
ATOM     22  C   UNL d   1      30.863 -14.917  -7.149  0.00  0.00     0.080 A 
ATOM     23  C   UNL d   1      31.497 -14.037  -8.026  0.00  0.00     0.073 A 
ATOM     24  C   UNL d   1      30.912 -12.829  -8.348  0.00  0.00     0.071 A 
ATOM     25  C   UNL d   1      29.693 -12.481  -7.810  0.00  0.00     0.073 A 
ATOM     26  C   UNL d   1      29.047 -13.381  -6.951  0.00  0.00     0.080 A 
BRANCH  22  27
ATOM     27  O   UNL d   1      31.502 -16.130  -7.094  0.00  0.00    -0.360 OA
ATOM     28  H   UNL d   1      32.009 -16.233  -6.271  0.00  0.00     0.217 HD
ENDBRANCH  22  27
BRANCH  24  29
ATOM     29  O   UNL d   1      31.480 -11.992  -9.256  0.00  0.00    -0.361 OA
ATOM     30  H   UNL d   1      32.152 -12.501  -9.741  0.00  0.00     0.217 HD
ENDBRANCH  24  29
BRANCH  26  31
ATOM     31  O   UNL d   1      27.785 -12.991  -6.569  0.00  0.00    -0.360 OA
ATOM     32  H   UNL d   1      27.193 -13.767  -6.608  0.00  0.00     0.217 HD
ENDBRANCH  26  31
ENDBRANCH   1  21
BRANCH   1  33
ATOM     33  C   UNL d   1      30.167 -16.200  -4.525  0.00  0.00     0.245 C 
ATOM     34  N   UNL d   1      29.887 -17.415  -3.908  0.00  0.00    -0.359 N 
ATOM     35  H   UNL d   1      28.908 -17.513  -3.630  0.00  0.00     0.162 HD
ATOM     36  O   UNL d   1      31.270 -15.682  -4.399  0.00  0.00    -0.271 OA
BRANCH  34  37
ATOM     37  C   UNL d   1      30.891 -18.043  -3.066  0.00  0.00     0.122 C 
BRANCH  37  38
ATOM     38  C   UNL d   1      30.483 -18.121  -1.598  0.00  0.00     0.019 C 
BRANCH  38  39
ATOM     39  C   UNL d   1      30.836 -16.827  -0.859  0.00  0.00    -0.003 C 
ATOM     40  C   UNL d   1      29.582 -16.060  -0.471  0.00  0.00     0.005 C 
ENDBRANCH  38  39
ENDBRANCH  37  38
ENDBRANCH  34  37
ENDBRANCH   1  33
TORSDOF 13
ENDMDL
