MODEL 1
REMARK VINA RESULT:    -8.082      0.000      0.000
REMARK INTER + INTRA:         -15.399
REMARK INTER:                 -11.065
REMARK INTRA:                  -4.334
REMARK CONF_INDEPENDENT:        2.983
REMARK UNBOUND:                -4.334
REMARK  10 active torsions:
REMARK  status: ('A' for Active; 'I' for Inactive)
REMARK    1  A    between atoms: C_5  and  N_6 
REMARK       I    between atoms: N_6  and  C_7 
REMARK    2  A    between atoms: C_7  and  C_9 
REMARK    3  A    between atoms: C_9  and  C_10 
REMARK    4  A    between atoms: C_10  and  C_11 
REMARK       I    between atoms: C_11  and  N_13 
REMARK    5  A    between atoms: N_13  and  N_14 
REMARK    6  A    between atoms: N_14  and  C_15 
REMARK    7  A    between atoms: C_15  and  N_17 
REMARK       I    between atoms: N_17  and  C_18 
REMARK    8  A    between atoms: C_18  and  C_20 
REMARK    9  A    between atoms: C_20  and  O_21 
REMARK   10  A    between atoms: O_21  and  C_22 
ROOT
ATOM      1  C   UNL d   1      27.784 -14.945  -5.023  0.00  0.00     0.236 C 
ATOM      2  O   UNL d   1      27.836 -15.203  -6.226  0.00  0.00    -0.272 OA
ATOM      3  N   UNL d   1      28.621 -15.560  -4.102  0.00  0.00    -0.268 N 
ATOM      4  H   UNL d   1      28.590 -15.357  -3.100  0.00  0.00     0.190 HD
ENDROOT
BRANCH   3   5
ATOM      5  N   UNL d   1      29.617 -16.555  -4.511  0.00  0.00    -0.273 N 
ATOM      6  H   UNL d   1      29.766 -16.602  -5.517  0.00  0.00     0.189 HD
BRANCH   5   7
ATOM      7  C   UNL d   1      30.255 -17.334  -3.522  0.00  0.00     0.193 C 
ATOM      8  S   UNL d   1      31.060 -18.743  -3.992  0.00  0.00    -0.039 SA
BRANCH   7   9
ATOM      9  N   UNL d   1      30.161 -16.850  -2.183  0.00  0.00    -0.301 N 
ATOM     10  C   UNL d   1      28.964 -16.724  -1.421  0.00  0.00     0.248 C 
ATOM     11  O   UNL d   1      27.859 -17.028  -1.875  0.00  0.00    -0.271 OA
ATOM     12  H   UNL d   1      31.023 -16.574  -1.732  0.00  0.00     0.171 HD
BRANCH  10  13
ATOM     13  C   UNL d   1      29.025 -16.174   0.041  0.00  0.00     0.278 C 
BRANCH  13  14
ATOM     14  O   UNL d   1      27.697 -15.709   0.399  0.00  0.00    -0.342 OA
BRANCH  14  15
ATOM     15  C   UNL d   1      27.545 -14.545   1.101  0.00  0.00     0.070 A 
ATOM     16  C   UNL d   1      27.232 -13.397   0.361  0.00  0.00     0.038 A 
ATOM     17  C   UNL d   1      27.085 -12.154   0.991  0.00  0.00     0.022 A 
ATOM     18  C   UNL d   1      27.277 -12.037   2.369  0.00  0.00     0.017 A 
ATOM     19 BR   UNL d   1      27.028 -10.314   3.133  0.00  0.00    -0.051 Br
ATOM     20  C   UNL d   1      27.637 -13.164   3.124  0.00  0.00    -0.042 A 
ATOM     21  C   UNL d   1      27.882 -13.125   4.607  0.00  0.00     0.049 C 
ATOM     22  C   UNL d   1      27.777 -14.413   2.469  0.00  0.00     0.044 A 
ENDBRANCH  14  15
ENDBRANCH  13  14
ENDBRANCH  10  13
ENDBRANCH   7   9
ENDBRANCH   5   7
ENDBRANCH   3   5
BRANCH   1  23
ATOM     23  C   UNL d   1      26.796 -13.928  -4.445  0.00  0.00     0.114 C 
BRANCH  23  24
ATOM     24  C   UNL d   1      26.642 -14.024  -2.901  0.00  0.00     0.112 C 
BRANCH  24  25
ATOM     25  C   UNL d   1      25.428 -14.871  -2.556  0.00  0.00     0.222 C 
ATOM     26  N   UNL d   1      25.555 -15.727  -1.465  0.00  0.00    -0.327 N 
ATOM     27  H   UNL d   1      26.441 -15.732  -0.977  0.00  0.00     0.169 HD
ATOM     28  O   UNL d   1      24.419 -14.749  -3.259  0.00  0.00    -0.273 OA
BRANCH  26  29
ATOM     29  C   UNL d   1      24.533 -16.610  -0.979  0.00  0.00     0.040 A 
ATOM     30  C   UNL d   1      23.186 -16.351  -1.270  0.00  0.00     0.030 A 
ATOM     31  C   UNL d   1      22.144 -17.162  -0.837  0.00  0.00     0.009 A 
ATOM     32  C   UNL d   1      22.404 -18.293  -0.084  0.00  0.00    -0.061 A 
ATOM     33  C   UNL d   1      21.253 -19.142   0.366  0.00  0.00     0.048 C 
ATOM     34  C   UNL d   1      23.740 -18.588   0.229  0.00  0.00     0.015 A 
ATOM     35  C   UNL d   1      24.816 -17.758  -0.204  0.00  0.00    -0.035 A 
ATOM     36  C   UNL d   1      26.205 -18.180   0.203  0.00  0.00     0.050 C 
ENDBRANCH  26  29
ENDBRANCH  24  25
ENDBRANCH  23  24
ENDBRANCH   1  23
TORSDOF 10
ENDMDL
MODEL 2
REMARK VINA RESULT:    -7.837      4.144      5.845
REMARK INTER + INTRA:         -14.313
REMARK INTER:                 -10.820
REMARK INTRA:                  -3.493
REMARK CONF_INDEPENDENT:        2.983
REMARK UNBOUND:                -3.493
REMARK  10 active torsions:
REMARK  status: ('A' for Active; 'I' for Inactive)
REMARK    1  A    between atoms: C_5  and  N_6 
REMARK       I    between atoms: N_6  and  C_7 
REMARK    2  A    between atoms: C_7  and  C_9 
REMARK    3  A    between atoms: C_9  and  C_10 
REMARK    4  A    between atoms: C_10  and  C_11 
REMARK       I    between atoms: C_11  and  N_13 
REMARK    5  A    between atoms: N_13  and  N_14 
REMARK    6  A    between atoms: N_14  and  C_15 
REMARK    7  A    between atoms: C_15  and  N_17 
REMARK       I    between atoms: N_17  and  C_18 
REMARK    8  A    between atoms: C_18  and  C_20 
REMARK    9  A    between atoms: C_20  and  O_21 
REMARK   10  A    between atoms: O_21  and  C_22 
ROOT
ATOM      1  C   UNL d   1      27.825 -14.287   0.692  0.00  0.00     0.236 C 
ATOM      2  O   UNL d   1      28.209 -15.409   0.360  0.00  0.00    -0.272 OA
ATOM      3  N   UNL d   1      28.129 -13.743   1.932  0.00  0.00    -0.268 N 
ATOM      4  H   UNL d   1      27.818 -12.813   2.222  0.00  0.00     0.190 HD
ENDROOT
BRANCH   3   5
ATOM      5  N   UNL d   1      28.926 -14.476   2.921  0.00  0.00    -0.273 N 
ATOM      6  H   UNL d   1      29.499 -15.217   2.522  0.00  0.00     0.189 HD
BRANCH   5   7
ATOM      7  C   UNL d   1      28.834 -14.113   4.281  0.00  0.00     0.193 C 
ATOM      8  S   UNL d   1      28.132 -15.201   5.366  0.00  0.00    -0.039 SA
BRANCH   7   9
ATOM      9  N   UNL d   1      29.354 -12.830   4.626  0.00  0.00    -0.301 N 
ATOM     10  C   UNL d   1      28.717 -11.578   4.391  0.00  0.00     0.248 C 
ATOM     11  O   UNL d   1      27.618 -11.492   3.839  0.00  0.00    -0.271 OA
ATOM     12  H   UNL d   1      30.256 -12.807   5.082  0.00  0.00     0.171 HD
BRANCH  10  13
ATOM     13  C   UNL d   1      29.418 -10.251   4.830  0.00  0.00     0.278 C 
BRANCH  13  14
ATOM     14  O   UNL d   1      30.388 -10.578   5.860  0.00  0.00    -0.342 OA
BRANCH  14  15
ATOM     15  C   UNL d   1      30.014 -11.332   6.938  0.00  0.00     0.070 A 
ATOM     16  C   UNL d   1      28.963 -10.839   7.721  0.00  0.00     0.038 A 
ATOM     17  C   UNL d   1      28.530 -11.529   8.861  0.00  0.00     0.022 A 
ATOM     18  C   UNL d   1      29.163 -12.711   9.250  0.00  0.00     0.017 A 
ATOM     19 BR   UNL d   1      28.485 -13.587  10.795  0.00  0.00    -0.051 Br
ATOM     20  C   UNL d   1      30.249 -13.201   8.508  0.00  0.00    -0.042 A 
ATOM     21  C   UNL d   1      30.999 -14.453   8.863  0.00  0.00     0.049 C 
ATOM     22  C   UNL d   1      30.669 -12.490   7.356  0.00  0.00     0.044 A 
ENDBRANCH  14  15
ENDBRANCH  13  14
ENDBRANCH  10  13
ENDBRANCH   7   9
ENDBRANCH   5   7
ENDBRANCH   3   5
BRANCH   1  23
ATOM     23  C   UNL d   1      26.985 -13.402  -0.233  0.00  0.00     0.114 C 
BRANCH  23  24
ATOM     24  C   UNL d   1      26.891 -13.940  -1.688  0.00  0.00     0.112 C 
BRANCH  24  25
ATOM     25  C   UNL d   1      25.729 -14.914  -1.804  0.00  0.00     0.222 C 
ATOM     26  N   UNL d   1      25.466 -15.705  -0.689  0.00  0.00    -0.327 N 
ATOM     27  H   UNL d   1      26.061 -15.585   0.120  0.00  0.00     0.169 HD
ATOM     28  O   UNL d   1      25.103 -14.941  -2.869  0.00  0.00    -0.273 OA
BRANCH  26  29
ATOM     29  C   UNL d   1      24.421 -16.686  -0.597  0.00  0.00     0.040 A 
ATOM     30  C   UNL d   1      23.099 -16.333  -0.902  0.00  0.00     0.030 A 
ATOM     31  C   UNL d   1      22.038 -17.229  -0.839  0.00  0.00     0.009 A 
ATOM     32  C   UNL d   1      22.254 -18.544  -0.464  0.00  0.00    -0.061 A 
ATOM     33  C   UNL d   1      21.084 -19.479  -0.405  0.00  0.00     0.048 C 
ATOM     34  C   UNL d   1      23.564 -18.937  -0.150  0.00  0.00     0.015 A 
ATOM     35  C   UNL d   1      24.659 -18.023  -0.205  0.00  0.00    -0.035 A 
ATOM     36  C   UNL d   1      26.016 -18.568   0.162  0.00  0.00     0.050 C 
ENDBRANCH  26  29
ENDBRANCH  24  25
ENDBRANCH  23  24
ENDBRANCH   1  23
TORSDOF 10
ENDMDL
MODEL 3
REMARK VINA RESULT:    -7.617      2.264      3.201
REMARK INTER + INTRA:         -14.437
REMARK INTER:                 -10.600
REMARK INTRA:                  -3.837
REMARK CONF_INDEPENDENT:        2.983
REMARK UNBOUND:                -3.837
REMARK  10 active torsions:
REMARK  status: ('A' for Active; 'I' for Inactive)
REMARK    1  A    between atoms: C_5  and  N_6 
REMARK       I    between atoms: N_6  and  C_7 
REMARK    2  A    between atoms: C_7  and  C_9 
REMARK    3  A    between atoms: C_9  and  C_10 
REMARK    4  A    between atoms: C_10  and  C_11 
REMARK       I    between atoms: C_11  and  N_13 
REMARK    5  A    between atoms: N_13  and  N_14 
REMARK    6  A    between atoms: N_14  and  C_15 
REMARK    7  A    between atoms: C_15  and  N_17 
REMARK       I    between atoms: N_17  and  C_18 
REMARK    8  A    between atoms: C_18  and  C_20 
REMARK    9  A    between atoms: C_20  and  O_21 
REMARK   10  A    between atoms: O_21  and  C_22 
ROOT
ATOM      1  C   UNL d   1      28.957 -15.602  -3.163  0.00  0.00     0.236 C 
ATOM      2  O   UNL d   1      29.579 -16.562  -3.622  0.00  0.00    -0.272 OA
ATOM      3  N   UNL d   1      28.893 -15.352  -1.799  0.00  0.00    -0.268 N 
ATOM      4  H   UNL d   1      28.381 -14.561  -1.403  0.00  0.00     0.190 HD
ENDROOT
BRANCH   3   5
ATOM      5  N   UNL d   1      29.565 -16.218  -0.825  0.00  0.00    -0.273 N 
ATOM      6  H   UNL d   1      29.457 -17.212  -1.013  0.00  0.00     0.189 HD
BRANCH   5   7
ATOM      7  C   UNL d   1      30.270 -15.628   0.245  0.00  0.00     0.193 C 
ATOM      8  S   UNL d   1      31.949 -15.481   0.129  0.00  0.00    -0.039 SA
BRANCH   7   9
ATOM      9  N   UNL d   1      29.484 -15.199   1.356  0.00  0.00    -0.301 N 
ATOM     10  C   UNL d   1      28.206 -14.573   1.285  0.00  0.00     0.248 C 
ATOM     11  O   UNL d   1      27.650 -14.331   0.212  0.00  0.00    -0.271 OA
ATOM     12  H   UNL d   1      29.867 -15.356   2.278  0.00  0.00     0.171 HD
BRANCH  10  13
ATOM     13  C   UNL d   1      27.466 -14.160   2.599  0.00  0.00     0.278 C 
BRANCH  13  14
ATOM     14  O   UNL d   1      28.186 -14.740   3.718  0.00  0.00    -0.342 OA
BRANCH  14  15
ATOM     15  C   UNL d   1      28.352 -14.023   4.871  0.00  0.00     0.070 A 
ATOM     16  C   UNL d   1      28.227 -12.631   4.774  0.00  0.00     0.038 A 
ATOM     17  C   UNL d   1      28.408 -11.812   5.897  0.00  0.00     0.022 A 
ATOM     18  C   UNL d   1      28.745 -12.375   7.129  0.00  0.00     0.017 A 
ATOM     19 BR   UNL d   1      28.943 -11.183   8.598  0.00  0.00    -0.051 Br
ATOM     20  C   UNL d   1      28.922 -13.763   7.241  0.00  0.00    -0.042 A 
ATOM     21  C   UNL d   1      29.302 -14.450   8.523  0.00  0.00     0.049 C 
ATOM     22  C   UNL d   1      28.730 -14.573   6.094  0.00  0.00     0.044 A 
ENDBRANCH  14  15
ENDBRANCH  13  14
ENDBRANCH  10  13
ENDBRANCH   7   9
ENDBRANCH   5   7
ENDBRANCH   3   5
BRANCH   1  23
ATOM     23  C   UNL d   1      28.205 -14.610  -4.055  0.00  0.00     0.114 C 
BRANCH  23  24
ATOM     24  C   UNL d   1      27.048 -13.875  -3.324  0.00  0.00     0.112 C 
BRANCH  24  25
ATOM     25  C   UNL d   1      25.935 -14.859  -2.999  0.00  0.00     0.222 C 
ATOM     26  N   UNL d   1      25.885 -15.334  -1.691  0.00  0.00    -0.327 N 
ATOM     27  H   UNL d   1      26.589 -14.999  -1.046  0.00  0.00     0.169 HD
ATOM     28  O   UNL d   1      25.157 -15.171  -3.907  0.00  0.00    -0.273 OA
BRANCH  26  29
ATOM     29  C   UNL d   1      24.921 -16.268  -1.184  0.00  0.00     0.040 A 
ATOM     30  C   UNL d   1      23.551 -16.017  -1.343  0.00  0.00     0.030 A 
ATOM     31  C   UNL d   1      22.560 -16.877  -0.882  0.00  0.00     0.009 A 
ATOM     32  C   UNL d   1      22.900 -18.051  -0.232  0.00  0.00    -0.061 A 
ATOM     33  C   UNL d   1      21.803 -18.950   0.253  0.00  0.00     0.048 C 
ATOM     34  C   UNL d   1      24.261 -18.338  -0.052  0.00  0.00     0.015 A 
ATOM     35  C   UNL d   1      25.285 -17.459  -0.516  0.00  0.00    -0.035 A 
ATOM     36  C   UNL d   1      26.710 -17.880  -0.256  0.00  0.00     0.050 C 
ENDBRANCH  26  29
ENDBRANCH  24  25
ENDBRANCH  23  24
ENDBRANCH   1  23
TORSDOF 10
ENDMDL
MODEL 4
REMARK VINA RESULT:    -7.266      2.304      4.370
REMARK INTER + INTRA:         -14.854
REMARK INTER:                 -10.249
REMARK INTRA:                  -4.605
REMARK CONF_INDEPENDENT:        2.983
REMARK UNBOUND:                -4.605
REMARK  10 active torsions:
REMARK  status: ('A' for Active; 'I' for Inactive)
REMARK    1  A    between atoms: C_5  and  N_6 
REMARK       I    between atoms: N_6  and  C_7 
REMARK    2  A    between atoms: C_7  and  C_9 
REMARK    3  A    between atoms: C_9  and  C_10 
REMARK    4  A    between atoms: C_10  and  C_11 
REMARK       I    between atoms: C_11  and  N_13 
REMARK    5  A    between atoms: N_13  and  N_14 
REMARK    6  A    between atoms: N_14  and  C_15 
REMARK    7  A    between atoms: C_15  and  N_17 
REMARK       I    between atoms: N_17  and  C_18 
REMARK    8  A    between atoms: C_18  and  C_20 
REMARK    9  A    between atoms: C_20  and  O_21 
REMARK   10  A    between atoms: O_21  and  C_22 
ROOT
ATOM      1  C   UNL d   1      29.274 -15.661  -0.677  0.00  0.00     0.236 C 
ATOM      2  O   UNL d   1      28.853 -15.783  -1.829  0.00  0.00    -0.272 OA
ATOM      3  N   UNL d   1      29.902 -16.704  -0.010  0.00  0.00    -0.268 N 
ATOM      4  H   UNL d   1      30.257 -16.618   0.945  0.00  0.00     0.190 HD
ENDROOT
BRANCH   3   5
ATOM      5  N   UNL d   1      30.101 -18.013  -0.640  0.00  0.00    -0.273 N 
ATOM      6  H   UNL d   1      29.694 -18.788  -0.121  0.00  0.00     0.189 HD
BRANCH   5   7
ATOM      7  C   UNL d   1      30.810 -18.087  -1.858  0.00  0.00     0.193 C 
ATOM      8  S   UNL d   1      32.277 -18.925  -1.894  0.00  0.00    -0.039 SA
BRANCH   7   9
ATOM      9  N   UNL d   1      30.211 -17.433  -2.975  0.00  0.00    -0.301 N 
ATOM     10  C   UNL d   1      30.899 -16.923  -4.114  0.00  0.00     0.248 C 
ATOM     11  O   UNL d   1      32.123 -17.000  -4.233  0.00  0.00    -0.271 OA
ATOM     12  H   UNL d   1      29.206 -17.324  -2.960  0.00  0.00     0.171 HD
BRANCH  10  13
ATOM     13  C   UNL d   1      30.097 -16.228  -5.263  0.00  0.00     0.278 C 
BRANCH  13  14
ATOM     14  O   UNL d   1      28.684 -16.325  -4.943  0.00  0.00    -0.342 OA
BRANCH  14  15
ATOM     15  C   UNL d   1      27.973 -15.198  -4.636  0.00  0.00     0.070 A 
ATOM     16  C   UNL d   1      28.687 -13.994  -4.583  0.00  0.00     0.038 A 
ATOM     17  C   UNL d   1      28.048 -12.793  -4.248  0.00  0.00     0.022 A 
ATOM     18  C   UNL d   1      26.687 -12.785  -3.935  0.00  0.00     0.017 A 
ATOM     19 BR   UNL d   1      25.906 -11.101  -3.521  0.00  0.00    -0.051 Br
ATOM     20  C   UNL d   1      25.961 -13.985  -3.936  0.00  0.00    -0.042 A 
ATOM     21  C   UNL d   1      24.499 -14.071  -3.594  0.00  0.00     0.049 C 
ATOM     22  C   UNL d   1      26.625 -15.189  -4.281  0.00  0.00     0.044 A 
ENDBRANCH  14  15
ENDBRANCH  13  14
ENDBRANCH  10  13
ENDBRANCH   7   9
ENDBRANCH   5   7
ENDBRANCH   3   5
BRANCH   1  23
ATOM     23  C   UNL d   1      29.140 -14.355   0.111  0.00  0.00     0.114 C 
BRANCH  23  24
ATOM     24  C   UNL d   1      27.862 -13.546  -0.245  0.00  0.00     0.112 C 
BRANCH  24  25
ATOM     25  C   UNL d   1      26.625 -14.376   0.059  0.00  0.00     0.222 C 
ATOM     26  N   UNL d   1      26.402 -15.484  -0.755  0.00  0.00    -0.327 N 
ATOM     27  H   UNL d   1      27.070 -15.663  -1.492  0.00  0.00     0.169 HD
ATOM     28  O   UNL d   1      25.905 -14.016   0.996  0.00  0.00    -0.273 OA
BRANCH  26  29
ATOM     29  C   UNL d   1      25.295 -16.390  -0.637  0.00  0.00     0.040 A 
ATOM     30  C   UNL d   1      24.003 -15.966  -0.980  0.00  0.00     0.030 A 
ATOM     31  C   UNL d   1      22.885 -16.788  -0.895  0.00  0.00     0.009 A 
ATOM     32  C   UNL d   1      23.009 -18.096  -0.461  0.00  0.00    -0.061 A 
ATOM     33  C   UNL d   1      21.779 -18.950  -0.381  0.00  0.00     0.048 C 
ATOM     34  C   UNL d   1      24.286 -18.558  -0.108  0.00  0.00     0.015 A 
ATOM     35  C   UNL d   1      25.438 -17.721  -0.184  0.00  0.00    -0.035 A 
ATOM     36  C   UNL d   1      26.752 -18.336   0.228  0.00  0.00     0.050 C 
ENDBRANCH  26  29
ENDBRANCH  24  25
ENDBRANCH  23  24
ENDBRANCH   1  23
TORSDOF 10
ENDMDL
MODEL 5
REMARK VINA RESULT:    -7.116      3.281      5.573
REMARK INTER + INTRA:         -14.006
REMARK INTER:                 -10.099
REMARK INTRA:                  -3.907
REMARK CONF_INDEPENDENT:        2.983
REMARK UNBOUND:                -3.907
REMARK  10 active torsions:
REMARK  status: ('A' for Active; 'I' for Inactive)
REMARK    1  A    between atoms: C_5  and  N_6 
REMARK       I    between atoms: N_6  and  C_7 
REMARK    2  A    between atoms: C_7  and  C_9 
REMARK    3  A    between atoms: C_9  and  C_10 
REMARK    4  A    between atoms: C_10  and  C_11 
REMARK       I    between atoms: C_11  and  N_13 
REMARK    5  A    between atoms: N_13  and  N_14 
REMARK    6  A    between atoms: N_14  and  C_15 
REMARK    7  A    between atoms: C_15  and  N_17 
REMARK       I    between atoms: N_17  and  C_18 
REMARK    8  A    between atoms: C_18  and  C_20 
REMARK    9  A    between atoms: C_20  and  O_21 
REMARK   10  A    between atoms: O_21  and  C_22 
ROOT
ATOM      1  C   UNL d   1      29.953 -13.634   2.805  0.00  0.00     0.236 C 
ATOM      2  O   UNL d   1      30.543 -12.875   3.575  0.00  0.00    -0.272 OA
ATOM      3  N   UNL d   1      30.518 -14.826   2.370  0.00  0.00    -0.268 N 
ATOM      4  H   UNL d   1      30.041 -15.466   1.731  0.00  0.00     0.190 HD
ENDROOT
BRANCH   3   5
ATOM      5  N   UNL d   1      31.853 -15.248   2.804  0.00  0.00    -0.273 N 
ATOM      6  H   UNL d   1      32.210 -14.733   3.606  0.00  0.00     0.189 HD
BRANCH   5   7
ATOM      7  C   UNL d   1      32.506 -16.284   2.102  0.00  0.00     0.193 C 
ATOM      8  S   UNL d   1      34.162 -16.512   2.345  0.00  0.00    -0.039 SA
BRANCH   7   9
ATOM      9  N   UNL d   1      31.690 -17.064   1.230  0.00  0.00    -0.301 N 
ATOM     10  C   UNL d   1      30.997 -16.586   0.081  0.00  0.00     0.248 C 
ATOM     11  O   UNL d   1      31.038 -15.405  -0.269  0.00  0.00    -0.271 OA
ATOM     12  H   UNL d   1      31.597 -18.048   1.445  0.00  0.00     0.171 HD
BRANCH  10  13
ATOM     13  C   UNL d   1      30.138 -17.571  -0.778  0.00  0.00     0.278 C 
BRANCH  13  14
ATOM     14  O   UNL d   1      28.908 -16.891  -1.141  0.00  0.00    -0.342 OA
BRANCH  14  15
ATOM     15  C   UNL d   1      28.767 -16.348  -2.388  0.00  0.00     0.070 A 
ATOM     16  C   UNL d   1      29.921 -16.268  -3.177  0.00  0.00     0.038 A 
ATOM     17  C   UNL d   1      29.879 -15.701  -4.458  0.00  0.00     0.022 A 
ATOM     18  C   UNL d   1      28.684 -15.180  -4.956  0.00  0.00     0.017 A 
ATOM     19 BR   UNL d   1      28.723 -14.457  -6.715  0.00  0.00    -0.051 Br
ATOM     20  C   UNL d   1      27.525 -15.206  -4.166  0.00  0.00    -0.042 A 
ATOM     21  C   UNL d   1      26.202 -14.651  -4.616  0.00  0.00     0.049 C 
ATOM     22  C   UNL d   1      27.587 -15.787  -2.875  0.00  0.00     0.044 A 
ENDBRANCH  14  15
ENDBRANCH  13  14
ENDBRANCH  10  13
ENDBRANCH   7   9
ENDBRANCH   5   7
ENDBRANCH   3   5
BRANCH   1  23
ATOM     23  C   UNL d   1      28.552 -13.329   2.266  0.00  0.00     0.114 C 
BRANCH  23  24
ATOM     24  C   UNL d   1      28.350 -13.764   0.788  0.00  0.00     0.112 C 
BRANCH  24  25
ATOM     25  C   UNL d   1      26.991 -14.425   0.626  0.00  0.00     0.222 C 
ATOM     26  N   UNL d   1      26.983 -15.711   0.091  0.00  0.00    -0.327 N 
ATOM     27  H   UNL d   1      27.875 -16.119  -0.157  0.00  0.00     0.169 HD
ATOM     28  O   UNL d   1      25.993 -13.786   0.973  0.00  0.00    -0.273 OA
BRANCH  26  29
ATOM     29  C   UNL d   1      25.810 -16.503  -0.146  0.00  0.00     0.040 A 
ATOM     30  C   UNL d   1      24.707 -15.943  -0.805  0.00  0.00     0.030 A 
ATOM     31  C   UNL d   1      23.540 -16.650  -1.072  0.00  0.00     0.009 A 
ATOM     32  C   UNL d   1      23.422 -17.976  -0.690  0.00  0.00    -0.061 A 
ATOM     33  C   UNL d   1      22.147 -18.703  -0.994  0.00  0.00     0.048 C 
ATOM     34  C   UNL d   1      24.505 -18.573  -0.028  0.00  0.00     0.015 A 
ATOM     35  C   UNL d   1      25.704 -17.854   0.257  0.00  0.00    -0.035 A 
ATOM     36  C   UNL d   1      26.792 -18.609   0.979  0.00  0.00     0.050 C 
ENDBRANCH  26  29
ENDBRANCH  24  25
ENDBRANCH  23  24
ENDBRANCH   1  23
TORSDOF 10
ENDMDL
MODEL 6
REMARK VINA RESULT:    -6.759      3.636      7.046
REMARK INTER + INTRA:         -14.643
REMARK INTER:                  -9.742
REMARK INTRA:                  -4.900
REMARK CONF_INDEPENDENT:        2.983
REMARK UNBOUND:                -4.900
REMARK  10 active torsions:
REMARK  status: ('A' for Active; 'I' for Inactive)
REMARK    1  A    between atoms: C_5  and  N_6 
REMARK       I    between atoms: N_6  and  C_7 
REMARK    2  A    between atoms: C_7  and  C_9 
REMARK    3  A    between atoms: C_9  and  C_10 
REMARK    4  A    between atoms: C_10  and  C_11 
REMARK       I    between atoms: C_11  and  N_13 
REMARK    5  A    between atoms: N_13  and  N_14 
REMARK    6  A    between atoms: N_14  and  C_15 
REMARK    7  A    between atoms: C_15  and  N_17 
REMARK       I    between atoms: N_17  and  C_18 
REMARK    8  A    between atoms: C_18  and  C_20 
REMARK    9  A    between atoms: C_20  and  O_21 
REMARK   10  A    between atoms: O_21  and  C_22 
ROOT
ATOM      1  C   UNL d   1      29.666 -14.259   5.126  0.00  0.00     0.236 C 
ATOM      2  O   UNL d   1      30.298 -13.425   5.776  0.00  0.00    -0.272 OA
ATOM      3  N   UNL d   1      30.174 -14.825   3.965  0.00  0.00    -0.268 N 
ATOM      4  H   UNL d   1      29.662 -15.518   3.415  0.00  0.00     0.190 HD
ENDROOT
BRANCH   3   5
ATOM      5  N   UNL d   1      31.496 -14.459   3.445  0.00  0.00    -0.273 N 
ATOM      6  H   UNL d   1      32.025 -13.842   4.057  0.00  0.00     0.189 HD
BRANCH   5   7
ATOM      7  C   UNL d   1      31.904 -14.967   2.193  0.00  0.00     0.193 C 
ATOM      8  S   UNL d   1      33.549 -14.953   1.808  0.00  0.00    -0.039 SA
BRANCH   7   9
ATOM      9  N   UNL d   1      30.867 -15.458   1.345  0.00  0.00    -0.301 N 
ATOM     10  C   UNL d   1      30.600 -15.028   0.014  0.00  0.00     0.248 C 
ATOM     11  O   UNL d   1      31.265 -14.151  -0.541  0.00  0.00    -0.271 OA
ATOM     12  H   UNL d   1      30.268 -16.181   1.722  0.00  0.00     0.171 HD
BRANCH  10  13
ATOM     13  C   UNL d   1      29.421 -15.667  -0.791  0.00  0.00     0.278 C 
BRANCH  13  14
ATOM     14  O   UNL d   1      28.708 -16.565   0.099  0.00  0.00    -0.342 OA
BRANCH  14  15
ATOM     15  C   UNL d   1      27.371 -16.793  -0.085  0.00  0.00     0.070 A 
ATOM     16  C   UNL d   1      26.813 -17.873   0.609  0.00  0.00     0.038 A 
ATOM     17  C   UNL d   1      25.458 -18.200   0.460  0.00  0.00     0.022 A 
ATOM     18  C   UNL d   1      24.649 -17.465  -0.408  0.00  0.00     0.017 A 
ATOM     19 BR   UNL d   1      22.819 -17.968  -0.519  0.00  0.00    -0.051 Br
ATOM     20  C   UNL d   1      25.197 -16.407  -1.149  0.00  0.00    -0.042 A 
ATOM     21  C   UNL d   1      24.405 -15.575  -2.119  0.00  0.00     0.049 C 
ATOM     22  C   UNL d   1      26.569 -16.090  -0.982  0.00  0.00     0.044 A 
ENDBRANCH  14  15
ENDBRANCH  13  14
ENDBRANCH  10  13
ENDBRANCH   7   9
ENDBRANCH   5   7
ENDBRANCH   3   5
BRANCH   1  23
ATOM     23  C   UNL d   1      28.273 -14.740   5.544  0.00  0.00     0.114 C 
BRANCH  23  24
ATOM     24  C   UNL d   1      27.122 -14.075   4.740  0.00  0.00     0.112 C 
BRANCH  24  25
ATOM     25  C   UNL d   1      27.456 -14.084   3.257  0.00  0.00     0.222 C 
ATOM     26  N   UNL d   1      27.366 -12.866   2.589  0.00  0.00    -0.327 N 
ATOM     27  H   UNL d   1      27.083 -12.058   3.129  0.00  0.00     0.169 HD
ATOM     28  O   UNL d   1      27.780 -15.161   2.745  0.00  0.00    -0.273 OA
BRANCH  26  29
ATOM     29  C   UNL d   1      27.634 -12.662   1.194  0.00  0.00     0.040 A 
ATOM     30  C   UNL d   1      26.694 -13.063   0.234  0.00  0.00     0.030 A 
ATOM     31  C   UNL d   1      26.883 -12.895  -1.133  0.00  0.00     0.009 A 
ATOM     32  C   UNL d   1      28.039 -12.303  -1.612  0.00  0.00    -0.061 A 
ATOM     33  C   UNL d   1      28.207 -12.142  -3.093  0.00  0.00     0.048 C 
ATOM     34  C   UNL d   1      29.005 -11.888  -0.683  0.00  0.00     0.015 A 
ATOM     35  C   UNL d   1      28.824 -12.062   0.722  0.00  0.00    -0.035 A 
ATOM     36  C   UNL d   1      29.938 -11.578   1.614  0.00  0.00     0.050 C 
ENDBRANCH  26  29
ENDBRANCH  24  25
ENDBRANCH  23  24
ENDBRANCH   1  23
TORSDOF 10
ENDMDL
MODEL 7
REMARK VINA RESULT:    -6.568      2.273      5.005
REMARK INTER + INTRA:         -14.301
REMARK INTER:                  -9.551
REMARK INTRA:                  -4.750
REMARK CONF_INDEPENDENT:        2.983
REMARK UNBOUND:                -4.750
REMARK  10 active torsions:
REMARK  status: ('A' for Active; 'I' for Inactive)
REMARK    1  A    between atoms: C_5  and  N_6 
REMARK       I    between atoms: N_6  and  C_7 
REMARK    2  A    between atoms: C_7  and  C_9 
REMARK    3  A    between atoms: C_9  and  C_10 
REMARK    4  A    between atoms: C_10  and  C_11 
REMARK       I    between atoms: C_11  and  N_13 
REMARK    5  A    between atoms: N_13  and  N_14 
REMARK    6  A    between atoms: N_14  and  C_15 
REMARK    7  A    between atoms: C_15  and  N_17 
REMARK       I    between atoms: N_17  and  C_18 
REMARK    8  A    between atoms: C_18  and  C_20 
REMARK    9  A    between atoms: C_20  and  O_21 
REMARK   10  A    between atoms: O_21  and  C_22 
ROOT
ATOM      1  C   UNL d   1      27.108 -14.812  -4.796  0.00  0.00     0.236 C 
ATOM      2  O   UNL d   1      26.582 -15.354  -5.770  0.00  0.00    -0.272 OA
ATOM      3  N   UNL d   1      28.412 -15.097  -4.412  0.00  0.00    -0.268 N 
ATOM      4  H   UNL d   1      28.862 -14.656  -3.607  0.00  0.00     0.190 HD
ENDROOT
BRANCH   3   5
ATOM      5  N   UNL d   1      29.237 -16.063  -5.145  0.00  0.00    -0.273 N 
ATOM      6  H   UNL d   1      29.153 -15.995  -6.157  0.00  0.00     0.189 HD
BRANCH   5   7
ATOM      7  C   UNL d   1      30.041 -16.968  -4.419  0.00  0.00     0.193 C 
ATOM      8  S   UNL d   1      31.252 -17.815  -5.238  0.00  0.00    -0.039 SA
BRANCH   7   9
ATOM      9  N   UNL d   1      29.751 -17.089  -3.028  0.00  0.00    -0.301 N 
ATOM     10  C   UNL d   1      30.044 -16.122  -2.024  0.00  0.00     0.248 C 
ATOM     11  O   UNL d   1      30.603 -15.054  -2.281  0.00  0.00    -0.271 OA
ATOM     12  H   UNL d   1      29.293 -17.939  -2.726  0.00  0.00     0.171 HD
BRANCH  10  13
ATOM     13  C   UNL d   1      29.661 -16.404  -0.534  0.00  0.00     0.278 C 
BRANCH  13  14
ATOM     14  O   UNL d   1      28.854 -17.610  -0.500  0.00  0.00    -0.342 OA
BRANCH  14  15
ATOM     15  C   UNL d   1      27.490 -17.522  -0.528  0.00  0.00     0.070 A 
ATOM     16  C   UNL d   1      26.780 -18.466   0.225  0.00  0.00     0.038 A 
ATOM     17  C   UNL d   1      25.378 -18.470   0.235  0.00  0.00     0.022 A 
ATOM     18  C   UNL d   1      24.667 -17.546  -0.533  0.00  0.00     0.017 A 
ATOM     19 BR   UNL d   1      22.770 -17.616  -0.431  0.00  0.00    -0.051 Br
ATOM     20  C   UNL d   1      25.356 -16.621  -1.332  0.00  0.00    -0.042 A 
ATOM     21  C   UNL d   1      24.672 -15.604  -2.202  0.00  0.00     0.049 C 
ATOM     22  C   UNL d   1      26.774 -16.630  -1.325  0.00  0.00     0.044 A 
ENDBRANCH  14  15
ENDBRANCH  13  14
ENDBRANCH  10  13
ENDBRANCH   7   9
ENDBRANCH   5   7
ENDBRANCH   3   5
BRANCH   1  23
ATOM     23  C   UNL d   1      26.373 -13.783  -3.934  0.00  0.00     0.114 C 
BRANCH  23  24
ATOM     24  C   UNL d   1      27.284 -12.626  -3.439  0.00  0.00     0.112 C 
BRANCH  24  25
ATOM     25  C   UNL d   1      27.825 -12.950  -2.056  0.00  0.00     0.222 C 
ATOM     26  N   UNL d   1      26.910 -12.922  -1.006  0.00  0.00    -0.327 N 
ATOM     27  H   UNL d   1      25.952 -12.687  -1.229  0.00  0.00     0.169 HD
ATOM     28  O   UNL d   1      29.028 -13.212  -1.953  0.00  0.00    -0.273 OA
BRANCH  26  29
ATOM     29  C   UNL d   1      27.218 -13.192   0.370  0.00  0.00     0.040 A 
ATOM     30  C   UNL d   1      27.471 -14.506   0.787  0.00  0.00     0.030 A 
ATOM     31  C   UNL d   1      27.779 -14.843   2.100  0.00  0.00     0.009 A 
ATOM     32  C   UNL d   1      27.853 -13.862   3.074  0.00  0.00    -0.061 A 
ATOM     33  C   UNL d   1      28.185 -14.265   4.479  0.00  0.00     0.048 C 
ATOM     34  C   UNL d   1      27.606 -12.534   2.697  0.00  0.00     0.015 A 
ATOM     35  C   UNL d   1      27.283 -12.179   1.353  0.00  0.00    -0.035 A 
ATOM     36  C   UNL d   1      27.034 -10.717   1.079  0.00  0.00     0.050 C 
ENDBRANCH  26  29
ENDBRANCH  24  25
ENDBRANCH  23  24
ENDBRANCH   1  23
TORSDOF 10
ENDMDL
MODEL 8
REMARK VINA RESULT:    -6.383      3.608      6.450
REMARK INTER + INTRA:         -14.285
REMARK INTER:                  -9.366
REMARK INTRA:                  -4.919
REMARK CONF_INDEPENDENT:        2.983
REMARK UNBOUND:                -4.919
REMARK  10 active torsions:
REMARK  status: ('A' for Active; 'I' for Inactive)
REMARK    1  A    between atoms: C_5  and  N_6 
REMARK       I    between atoms: N_6  and  C_7 
REMARK    2  A    between atoms: C_7  and  C_9 
REMARK    3  A    between atoms: C_9  and  C_10 
REMARK    4  A    between atoms: C_10  and  C_11 
REMARK       I    between atoms: C_11  and  N_13 
REMARK    5  A    between atoms: N_13  and  N_14 
REMARK    6  A    between atoms: N_14  and  C_15 
REMARK    7  A    between atoms: C_15  and  N_17 
REMARK       I    between atoms: N_17  and  C_18 
REMARK    8  A    between atoms: C_18  and  C_20 
REMARK    9  A    between atoms: C_20  and  O_21 
REMARK   10  A    between atoms: O_21  and  C_22 
ROOT
ATOM      1  C   UNL d   1      26.587 -11.458  -4.094  0.00  0.00     0.236 C 
ATOM      2  O   UNL d   1      27.788 -11.659  -3.905  0.00  0.00    -0.272 OA
ATOM      3  N   UNL d   1      25.883 -10.494  -3.384  0.00  0.00    -0.268 N 
ATOM      4  H   UNL d   1      24.887 -10.315  -3.529  0.00  0.00     0.190 HD
ENDROOT
BRANCH   3   5
ATOM      5  N   UNL d   1      26.531  -9.659  -2.367  0.00  0.00    -0.273 N 
ATOM      6  H   UNL d   1      26.571  -8.671  -2.608  0.00  0.00     0.189 HD
BRANCH   5   7
ATOM      7  C   UNL d   1      27.026 -10.268  -1.195  0.00  0.00     0.193 C 
ATOM      8  S   UNL d   1      27.198  -9.328   0.198  0.00  0.00    -0.039 SA
BRANCH   7   9
ATOM      9  N   UNL d   1      27.345 -11.655  -1.293  0.00  0.00    -0.301 N 
ATOM     10  C   UNL d   1      28.205 -12.381  -0.419  0.00  0.00     0.248 C 
ATOM     11  O   UNL d   1      28.778 -11.848   0.533  0.00  0.00    -0.271 OA
ATOM     12  H   UNL d   1      26.919 -12.172  -2.050  0.00  0.00     0.171 HD
BRANCH  10  13
ATOM     13  C   UNL d   1      28.455 -13.905  -0.659  0.00  0.00     0.278 C 
BRANCH  13  14
ATOM     14  O   UNL d   1      27.503 -14.363  -1.655  0.00  0.00    -0.342 OA
BRANCH  14  15
ATOM     15  C   UNL d   1      26.627 -15.369  -1.354  0.00  0.00     0.070 A 
ATOM     16  C   UNL d   1      25.322 -15.240  -1.844  0.00  0.00     0.038 A 
ATOM     17  C   UNL d   1      24.349 -16.208  -1.563  0.00  0.00     0.022 A 
ATOM     18  C   UNL d   1      24.662 -17.307  -0.761  0.00  0.00     0.017 A 
ATOM     19 BR   UNL d   1      23.281 -18.579  -0.459  0.00  0.00    -0.051 Br
ATOM     20  C   UNL d   1      25.951 -17.434  -0.220  0.00  0.00    -0.042 A 
ATOM     21  C   UNL d   1      26.369 -18.574   0.667  0.00  0.00     0.049 C 
ATOM     22  C   UNL d   1      26.922 -16.446  -0.520  0.00  0.00     0.044 A 
ENDBRANCH  14  15
ENDBRANCH  13  14
ENDBRANCH  10  13
ENDBRANCH   7   9
ENDBRANCH   5   7
ENDBRANCH   3   5
BRANCH   1  23
ATOM     23  C   UNL d   1      25.775 -12.250  -5.122  0.00  0.00     0.114 C 
BRANCH  23  24
ATOM     24  C   UNL d   1      25.290 -13.629  -4.596  0.00  0.00     0.112 C 
BRANCH  24  25
ATOM     25  C   UNL d   1      26.311 -14.701  -4.941  0.00  0.00     0.222 C 
ATOM     26  N   UNL d   1      27.562 -14.587  -4.341  0.00  0.00    -0.327 N 
ATOM     27  H   UNL d   1      27.712 -13.802  -3.720  0.00  0.00     0.169 HD
ATOM     28  O   UNL d   1      25.970 -15.593  -5.725  0.00  0.00    -0.273 OA
BRANCH  26  29
ATOM     29  C   UNL d   1      28.662 -15.488  -4.536  0.00  0.00     0.040 A 
ATOM     30  C   UNL d   1      29.055 -16.350  -3.503  0.00  0.00     0.030 A 
ATOM     31  C   UNL d   1      30.107 -17.251  -3.621  0.00  0.00     0.009 A 
ATOM     32  C   UNL d   1      30.825 -17.337  -4.801  0.00  0.00    -0.061 A 
ATOM     33  C   UNL d   1      31.954 -18.319  -4.889  0.00  0.00     0.048 C 
ATOM     34  C   UNL d   1      30.463 -16.491  -5.860  0.00  0.00     0.015 A 
ATOM     35  C   UNL d   1      29.390 -15.557  -5.746  0.00  0.00    -0.035 A 
ATOM     36  C   UNL d   1      29.104 -14.701  -6.955  0.00  0.00     0.050 C 
ENDBRANCH  26  29
ENDBRANCH  24  25
ENDBRANCH  23  24
ENDBRANCH   1  23
TORSDOF 10
ENDMDL
MODEL 9
REMARK VINA RESULT:    -5.946      3.469      6.248
REMARK INTER + INTRA:         -14.140
REMARK INTER:                  -8.929
REMARK INTRA:                  -5.211
REMARK CONF_INDEPENDENT:        2.983
REMARK UNBOUND:                -5.211
REMARK  10 active torsions:
REMARK  status: ('A' for Active; 'I' for Inactive)
REMARK    1  A    between atoms: C_5  and  N_6 
REMARK       I    between atoms: N_6  and  C_7 
REMARK    2  A    between atoms: C_7  and  C_9 
REMARK    3  A    between atoms: C_9  and  C_10 
REMARK    4  A    between atoms: C_10  and  C_11 
REMARK       I    between atoms: C_11  and  N_13 
REMARK    5  A    between atoms: N_13  and  N_14 
REMARK    6  A    between atoms: N_14  and  C_15 
REMARK    7  A    between atoms: C_15  and  N_17 
REMARK       I    between atoms: N_17  and  C_18 
REMARK    8  A    between atoms: C_18  and  C_20 
REMARK    9  A    between atoms: C_20  and  O_21 
REMARK   10  A    between atoms: O_21  and  C_22 
ROOT
ATOM      1  C   UNL d   1      30.483 -14.354   2.579  0.00  0.00     0.236 C 
ATOM      2  O   UNL d   1      30.420 -14.418   1.350  0.00  0.00    -0.272 OA
ATOM      3  N   UNL d   1      31.625 -14.725   3.276  0.00  0.00    -0.268 N 
ATOM      4  H   UNL d   1      31.694 -14.678   4.295  0.00  0.00     0.190 HD
ENDROOT
BRANCH   3   5
ATOM      5  N   UNL d   1      32.823 -15.217   2.586  0.00  0.00    -0.273 N 
ATOM      6  H   UNL d   1      33.644 -14.631   2.716  0.00  0.00     0.189 HD
BRANCH   5   7
ATOM      7  C   UNL d   1      32.739 -16.406   1.832  0.00  0.00     0.193 C 
ATOM      8  S   UNL d   1      34.060 -17.460   1.828  0.00  0.00    -0.039 SA
BRANCH   7   9
ATOM      9  N   UNL d   1      31.520 -16.617   1.122  0.00  0.00    -0.301 N 
ATOM     10  C   UNL d   1      31.394 -16.846  -0.278  0.00  0.00     0.248 C 
ATOM     11  O   UNL d   1      32.370 -16.876  -1.030  0.00  0.00    -0.271 OA
ATOM     12  H   UNL d   1      30.665 -16.606   1.663  0.00  0.00     0.171 HD
BRANCH  10  13
ATOM     13  C   UNL d   1      29.980 -17.061  -0.910  0.00  0.00     0.278 C 
BRANCH  13  14
ATOM     14  O   UNL d   1      29.021 -17.182   0.173  0.00  0.00    -0.342 OA
BRANCH  14  15
ATOM     15  C   UNL d   1      27.682 -17.243  -0.101  0.00  0.00     0.070 A 
ATOM     16  C   UNL d   1      26.877 -17.924   0.821  0.00  0.00     0.038 A 
ATOM     17  C   UNL d   1      25.499 -18.061   0.609  0.00  0.00     0.022 A 
ATOM     18  C   UNL d   1      24.911 -17.542  -0.545  0.00  0.00     0.017 A 
ATOM     19 BR   UNL d   1      23.030 -17.756  -0.728  0.00  0.00    -0.051 Br
ATOM     20  C   UNL d   1      25.704 -16.897  -1.506  0.00  0.00    -0.042 A 
ATOM     21  C   UNL d   1      25.157 -16.325  -2.785  0.00  0.00     0.049 C 
ATOM     22  C   UNL d   1      27.095 -16.765  -1.272  0.00  0.00     0.044 A 
ENDBRANCH  14  15
ENDBRANCH  13  14
ENDBRANCH  10  13
ENDBRANCH   7   9
ENDBRANCH   5   7
ENDBRANCH   3   5
BRANCH   1  23
ATOM     23  C   UNL d   1      29.314 -13.861   3.436  0.00  0.00     0.114 C 
BRANCH  23  24
ATOM     24  C   UNL d   1      27.942 -14.451   3.007  0.00  0.00     0.112 C 
BRANCH  24  25
ATOM     25  C   UNL d   1      27.466 -13.776   1.731  0.00  0.00     0.222 C 
ATOM     26  N   UNL d   1      27.945 -14.300   0.533  0.00  0.00    -0.327 N 
ATOM     27  H   UNL d   1      28.576 -15.088   0.588  0.00  0.00     0.169 HD
ATOM     28  O   UNL d   1      26.696 -12.815   1.838  0.00  0.00    -0.273 OA
BRANCH  26  29
ATOM     29  C   UNL d   1      27.621 -13.807  -0.776  0.00  0.00     0.040 A 
ATOM     30  C   UNL d   1      26.288 -13.533  -1.113  0.00  0.00     0.030 A 
ATOM     31  C   UNL d   1      25.901 -13.051  -2.358  0.00  0.00     0.009 A 
ATOM     32  C   UNL d   1      26.847 -12.812  -3.340  0.00  0.00    -0.061 A 
ATOM     33  C   UNL d   1      26.389 -12.294  -4.671  0.00  0.00     0.048 C 
ATOM     34  C   UNL d   1      28.192 -13.073  -3.042  0.00  0.00     0.015 A 
ATOM     35  C   UNL d   1      28.599 -13.575  -1.770  0.00  0.00    -0.035 A 
ATOM     36  C   UNL d   1      30.075 -13.819  -1.578  0.00  0.00     0.050 C 
ENDBRANCH  26  29
ENDBRANCH  24  25
ENDBRANCH  23  24
ENDBRANCH   1  23
TORSDOF 10
ENDMDL
