MODEL 1
REMARK VINA RESULT:    -8.984      0.000      0.000
REMARK INTER + INTRA:         -11.286
REMARK INTER:                 -10.177
REMARK INTRA:                  -1.110
REMARK CONF_INDEPENDENT:        1.193
REMARK UNBOUND:                -1.110
REMARK  4 active torsions:
REMARK  status: ('A' for Active; 'I' for Inactive)
REMARK    1  A    between atoms: C_5  and  N_6 
REMARK       I    between atoms: N_6  and  C_7 
REMARK    2  A    between atoms: C_7  and  C_9 
REMARK    3  A    between atoms: C_12  and  N_13 
REMARK    4  A    between atoms: N_13  and  C_14 
ROOT
ATOM      1  C   UNL d   1      28.476 -14.166  -5.348  0.00  0.00     0.032 A 
ATOM      2  C   UNL d   1      28.570 -13.773  -4.020  0.00  0.00     0.019 A 
ATOM      3  C   UNL d   1      27.358 -14.071  -2.988  0.00  0.00     0.030 A 
ATOM      4  C   UNL d   1      25.928 -14.731  -3.338  0.00  0.00     0.030 A 
ATOM      5  C   UNL d   1      26.060 -15.097  -4.669  0.00  0.00     0.030 A 
ATOM      6  C   UNL d   1      27.265 -14.867  -5.570  0.00  0.00     0.019 A 
ENDROOT
BRANCH   4   7
ATOM      7  N   UNL d   1      24.430 -15.173  -2.469  0.00  0.00    -0.353 N 
ATOM      8  H   UNL d   1      23.784 -14.858  -3.227  0.00  0.00     0.162 HD
BRANCH   7   9
ATOM      9  C   UNL d   1      23.391 -16.018  -1.275  0.00  0.00     0.227 C 
ATOM     10  N   UNL d   1      24.568 -16.638  -1.283  0.00  0.00    -0.149 NA
ATOM     11  N   UNL d   1      24.473 -17.748  -1.744  0.00  0.00    -0.157 NA
ATOM     12  C   UNL d   1      24.063 -18.452  -0.744  0.00  0.00     0.063 C 
ATOM     13  C   UNL d   1      24.894 -18.195   0.588  0.00  0.00     0.073 C 
ATOM     14  C   UNL d   1      22.687 -18.527  -0.728  0.00  0.00     0.001 C 
ATOM     15  C   UNL d   1      21.191 -18.694  -1.255  0.00  0.00     0.014 C 
ATOM     16  C   UNL d   1      22.639 -17.402  -0.137  0.00  0.00     0.011 C 
ATOM     17  C   UNL d   1      20.124 -19.205  -0.469  0.00  0.00     0.001 C 
ATOM     18  C   UNL d   1      20.583 -19.534   0.732  0.00  0.00     0.001 C 
ATOM     19  C   UNL d   1      21.756 -18.576   0.954  0.00  0.00     0.013 C 
ENDBRANCH   7   9
ENDBRANCH   4   7
BRANCH   1  20
ATOM     20  C   UNL d   1      29.523 -13.880  -6.500  0.00  0.00     0.256 C 
ATOM     21  N   UNL d   1      30.789 -14.507  -6.451  0.00  0.00    -0.323 N 
ATOM     22  H   UNL d   1      31.582 -13.957  -6.781  0.00  0.00     0.169 HD
ATOM     23  O   UNL d   1      29.288 -13.081  -7.408  0.00  0.00    -0.267 OA
BRANCH  21  24
ATOM     24  C   UNL d   1      31.012 -15.892  -6.241  0.00  0.00     0.035 C 
ATOM     25  C   UNL d   1      31.407 -16.398  -5.002  0.00  0.00     0.030 C 
ATOM     26  C   UNL d   1      31.488 -17.790  -4.814  0.00  0.00     0.009 C 
ATOM     27  C   UNL d   1      31.157 -18.680  -5.845  0.00  0.00    -0.062 C 
ATOM     28  C   UNL d   1      31.208 -20.164  -5.672  0.00  0.00     0.048 C 
ATOM     29  C   UNL d   1      30.792 -18.169  -7.078  0.00  0.00     0.009 C 
ATOM     30  C   UNL d   1      30.802 -16.801  -7.280  0.00  0.00     0.030 C 
ENDBRANCH  21  24
ENDBRANCH   1  20
TORSDOF 4
ENDMDL
MODEL 2
REMARK VINA RESULT:    -8.954      2.198      3.489
REMARK INTER + INTRA:         -12.212
REMARK INTER:                 -10.147
REMARK INTRA:                  -2.065
REMARK CONF_INDEPENDENT:        1.193
REMARK UNBOUND:                -2.065
REMARK  4 active torsions:
REMARK  status: ('A' for Active; 'I' for Inactive)
REMARK    1  A    between atoms: C_5  and  N_6 
REMARK       I    between atoms: N_6  and  C_7 
REMARK    2  A    between atoms: C_7  and  C_9 
REMARK    3  A    between atoms: C_12  and  N_13 
REMARK    4  A    between atoms: N_13  and  C_14 
ROOT
ATOM      1  C   UNL d   1      28.099 -15.759  -1.860  0.00  0.00     0.032 A 
ATOM      2  C   UNL d   1      28.243 -16.856  -1.024  0.00  0.00     0.019 A 
ATOM      3  C   UNL d   1      26.941 -17.671  -0.507  0.00  0.00     0.030 A 
ATOM      4  C   UNL d   1      25.395 -17.304  -0.786  0.00  0.00     0.030 A 
ATOM      5  C   UNL d   1      25.473 -16.237  -1.669  0.00  0.00     0.030 A 
ATOM      6  C   UNL d   1      26.735 -15.565  -2.190  0.00  0.00     0.019 A 
ENDROOT
BRANCH   4   7
ATOM      7  N   UNL d   1      23.786 -17.963  -0.373  0.00  0.00    -0.353 N 
ATOM      8  H   UNL d   1      23.250 -17.160  -0.768  0.00  0.00     0.162 HD
BRANCH   7   9
ATOM      9  C   UNL d   1      22.556 -19.202   0.044  0.00  0.00     0.227 C 
ATOM     10  N   UNL d   1      22.133 -18.578  -1.052  0.00  0.00    -0.149 NA
ATOM     11  N   UNL d   1      21.150 -17.917  -0.826  0.00  0.00    -0.157 NA
ATOM     12  C   UNL d   1      20.191 -18.777  -0.895  0.00  0.00     0.063 C 
ATOM     13  C   UNL d   1      20.268 -19.700  -2.189  0.00  0.00     0.073 C 
ATOM     14  C   UNL d   1      19.913 -19.305   0.347  0.00  0.00     0.001 C 
ATOM     15  C   UNL d   1      19.649 -19.374   1.917  0.00  0.00     0.014 C 
ATOM     16  C   UNL d   1      20.861 -20.139   0.198  0.00  0.00     0.011 C 
ATOM     17  C   UNL d   1      18.827 -20.349   2.543  0.00  0.00     0.001 C 
ATOM     18  C   UNL d   1      18.313 -21.148   1.616  0.00  0.00     0.001 C 
ATOM     19  C   UNL d   1      19.359 -21.140   0.500  0.00  0.00     0.013 C 
ENDBRANCH   7   9
ENDBRANCH   4   7
BRANCH   1  20
ATOM     20  C   UNL d   1      29.250 -14.807  -2.384  0.00  0.00     0.256 C 
ATOM     21  N   UNL d   1      30.390 -15.375  -2.995  0.00  0.00    -0.323 N 
ATOM     22  H   UNL d   1      31.282 -14.916  -2.811  0.00  0.00     0.169 HD
ATOM     23  O   UNL d   1      29.206 -13.585  -2.222  0.00  0.00    -0.267 OA
BRANCH  21  24
ATOM     24  C   UNL d   1      30.370 -16.345  -4.030  0.00  0.00     0.035 C 
ATOM     25  C   UNL d   1      30.109 -16.003  -5.358  0.00  0.00     0.030 C 
ATOM     26  C   UNL d   1      30.230 -16.980  -6.363  0.00  0.00     0.009 C 
ATOM     27  C   UNL d   1      30.628 -18.289  -6.056  0.00  0.00    -0.062 C 
ATOM     28  C   UNL d   1      30.789 -19.345  -7.102  0.00  0.00     0.048 C 
ATOM     29  C   UNL d   1      30.859 -18.625  -4.734  0.00  0.00     0.009 C 
ATOM     30  C   UNL d   1      30.650 -17.682  -3.744  0.00  0.00     0.030 C 
ENDBRANCH  21  24
ENDBRANCH   1  20
TORSDOF 4
ENDMDL
MODEL 3
REMARK VINA RESULT:    -8.946      7.390      9.867
REMARK INTER + INTRA:         -12.203
REMARK INTER:                 -10.139
REMARK INTRA:                  -2.063
REMARK CONF_INDEPENDENT:        1.193
REMARK UNBOUND:                -2.063
REMARK  4 active torsions:
REMARK  status: ('A' for Active; 'I' for Inactive)
REMARK    1  A    between atoms: C_5  and  N_6 
REMARK       I    between atoms: N_6  and  C_7 
REMARK    2  A    between atoms: C_7  and  C_9 
REMARK    3  A    between atoms: C_12  and  N_13 
REMARK    4  A    between atoms: N_13  and  C_14 
ROOT
ATOM      1  C   UNL d   1      27.217 -14.387   0.145  0.00  0.00     0.032 A 
ATOM      2  C   UNL d   1      26.519 -13.327   0.706  0.00  0.00     0.019 A 
ATOM      3  C   UNL d   1      26.664 -12.991   2.284  0.00  0.00     0.030 A 
ATOM      4  C   UNL d   1      27.501 -13.829   3.380  0.00  0.00     0.030 A 
ATOM      5  C   UNL d   1      28.156 -14.787   2.619  0.00  0.00     0.030 A 
ATOM      6  C   UNL d   1      28.046 -15.000   1.117  0.00  0.00     0.019 A 
ENDROOT
BRANCH   4   7
ATOM      7  N   UNL d   1      27.847 -13.737   5.131  0.00  0.00    -0.353 N 
ATOM      8  H   UNL d   1      28.337 -14.657   5.179  0.00  0.00     0.162 HD
BRANCH   7   9
ATOM      9  C   UNL d   1      28.099 -12.974   6.735  0.00  0.00     0.227 C 
ATOM     10  N   UNL d   1      29.258 -13.513   6.368  0.00  0.00    -0.149 NA
ATOM     11  N   UNL d   1      29.546 -14.450   7.070  0.00  0.00    -0.157 NA
ATOM     12  C   UNL d   1      30.084 -13.894   8.102  0.00  0.00     0.063 C 
ATOM     13  C   UNL d   1      31.174 -12.797   7.727  0.00  0.00     0.073 C 
ATOM     14  C   UNL d   1      29.145 -13.666   9.084  0.00  0.00     0.001 C 
ATOM     15  C   UNL d   1      27.912 -13.919  10.062  0.00  0.00     0.014 C 
ATOM     16  C   UNL d   1      28.809 -12.586   8.502  0.00  0.00     0.011 C 
ATOM     17  C   UNL d   1      27.779 -13.323  11.345  0.00  0.00     0.001 C 
ATOM     18  C   UNL d   1      28.842 -12.567  11.588  0.00  0.00     0.001 C 
ATOM     19  C   UNL d   1      29.294 -12.107  10.200  0.00  0.00     0.013 C 
ENDBRANCH   7   9
ENDBRANCH   4   7
BRANCH   1  20
ATOM     20  C   UNL d   1      27.125 -14.901  -1.349  0.00  0.00     0.256 C 
ATOM     21  N   UNL d   1      26.621 -16.196  -1.602  0.00  0.00    -0.323 N 
ATOM     22  H   UNL d   1      27.056 -16.714  -2.366  0.00  0.00     0.169 HD
ATOM     23  O   UNL d   1      27.536 -14.225  -2.294  0.00  0.00    -0.267 OA
BRANCH  21  24
ATOM     24  C   UNL d   1      25.414 -16.725  -1.076  0.00  0.00     0.035 C 
ATOM     25  C   UNL d   1      24.177 -16.126  -1.319  0.00  0.00     0.030 C 
ATOM     26  C   UNL d   1      23.000 -16.763  -0.883  0.00  0.00     0.009 C 
ATOM     27  C   UNL d   1      23.047 -18.001  -0.228  0.00  0.00    -0.062 C 
ATOM     28  C   UNL d   1      21.816 -18.716   0.226  0.00  0.00     0.048 C 
ATOM     29  C   UNL d   1      24.279 -18.574   0.031  0.00  0.00     0.009 C 
ATOM     30  C   UNL d   1      25.434 -17.898  -0.320  0.00  0.00     0.030 C 
ENDBRANCH  21  24
ENDBRANCH   1  20
TORSDOF 4
ENDMDL
MODEL 4
REMARK VINA RESULT:    -8.743      8.141     11.264
REMARK INTER + INTRA:         -11.940
REMARK INTER:                  -9.936
REMARK INTRA:                  -2.004
REMARK CONF_INDEPENDENT:        1.193
REMARK UNBOUND:                -2.004
REMARK  4 active torsions:
REMARK  status: ('A' for Active; 'I' for Inactive)
REMARK    1  A    between atoms: C_5  and  N_6 
REMARK       I    between atoms: N_6  and  C_7 
REMARK    2  A    between atoms: C_7  and  C_9 
REMARK    3  A    between atoms: C_12  and  N_13 
REMARK    4  A    between atoms: N_13  and  C_14 
ROOT
ATOM      1  C   UNL d   1      28.538 -12.120   6.426  0.00  0.00     0.032 A 
ATOM      2  C   UNL d   1      28.540 -13.507   6.475  0.00  0.00     0.019 A 
ATOM      3  C   UNL d   1      28.269 -14.377   5.135  0.00  0.00     0.030 A 
ATOM      4  C   UNL d   1      27.892 -13.810   3.672  0.00  0.00     0.030 A 
ATOM      5  C   UNL d   1      28.000 -12.436   3.823  0.00  0.00     0.030 A 
ATOM      6  C   UNL d   1      28.345 -11.675   5.094  0.00  0.00     0.019 A 
ENDROOT
BRANCH   4   7
ATOM      7  N   UNL d   1      27.537 -14.473   2.051  0.00  0.00    -0.353 N 
ATOM      8  H   UNL d   1      28.075 -15.356   2.190  0.00  0.00     0.162 HD
BRANCH   7   9
ATOM      9  C   UNL d   1      26.664 -14.682   0.497  0.00  0.00     0.227 C 
ATOM     10  N   UNL d   1      27.049 -15.890   0.900  0.00  0.00    -0.149 NA
ATOM     11  N   UNL d   1      27.897 -16.343   0.173  0.00  0.00    -0.157 NA
ATOM     12  C   UNL d   1      27.216 -16.840  -0.804  0.00  0.00     0.063 C 
ATOM     13  C   UNL d   1      25.994 -17.739  -0.324  0.00  0.00     0.073 C 
ATOM     14  C   UNL d   1      27.076 -15.923  -1.822  0.00  0.00     0.001 C 
ATOM     15  C   UNL d   1      27.453 -14.785  -2.874  0.00  0.00     0.014 C 
ATOM     16  C   UNL d   1      26.088 -15.406  -1.211  0.00  0.00     0.011 C 
ATOM     17  C   UNL d   1      26.818 -14.625  -4.134  0.00  0.00     0.001 C 
ATOM     18  C   UNL d   1      25.905 -15.575  -4.287  0.00  0.00     0.001 C 
ATOM     19  C   UNL d   1      25.456 -15.891  -2.859  0.00  0.00     0.013 C 
ENDBRANCH   7   9
ENDBRANCH   4   7
BRANCH   1  20
ATOM     20  C   UNL d   1      28.699 -11.126   7.646  0.00  0.00     0.256 C 
ATOM     21  N   UNL d   1      28.479 -11.603   8.958  0.00  0.00    -0.323 N 
ATOM     22  H   UNL d   1      28.035 -10.956   9.609  0.00  0.00     0.169 HD
ATOM     23  O   UNL d   1      28.954  -9.931   7.481  0.00  0.00    -0.267 OA
BRANCH  21  24
ATOM     24  C   UNL d   1      29.049 -12.779   9.510  0.00  0.00     0.035 C 
ATOM     25  C   UNL d   1      28.338 -13.606  10.382  0.00  0.00     0.030 C 
ATOM     26  C   UNL d   1      28.904 -14.825  10.797  0.00  0.00     0.009 C 
ATOM     27  C   UNL d   1      30.161 -15.236  10.334  0.00  0.00    -0.062 C 
ATOM     28  C   UNL d   1      30.780 -16.535  10.735  0.00  0.00     0.048 C 
ATOM     29  C   UNL d   1      30.869 -14.397   9.491  0.00  0.00     0.009 C 
ATOM     30  C   UNL d   1      30.345 -13.161   9.160  0.00  0.00     0.030 C 
ENDBRANCH  21  24
ENDBRANCH   1  20
TORSDOF 4
ENDMDL
MODEL 5
REMARK VINA RESULT:    -8.528      4.376      6.695
REMARK INTER + INTRA:         -11.848
REMARK INTER:                  -9.721
REMARK INTRA:                  -2.127
REMARK CONF_INDEPENDENT:        1.193
REMARK UNBOUND:                -2.127
REMARK  4 active torsions:
REMARK  status: ('A' for Active; 'I' for Inactive)
REMARK    1  A    between atoms: C_5  and  N_6 
REMARK       I    between atoms: N_6  and  C_7 
REMARK    2  A    between atoms: C_7  and  C_9 
REMARK    3  A    between atoms: C_12  and  N_13 
REMARK    4  A    between atoms: N_13  and  C_14 
ROOT
ATOM      1  C   UNL d   1      27.924 -15.192  -0.643  0.00  0.00     0.032 A 
ATOM      2  C   UNL d   1      28.020 -16.563  -0.838  0.00  0.00     0.019 A 
ATOM      3  C   UNL d   1      26.702 -17.500  -0.737  0.00  0.00     0.030 A 
ATOM      4  C   UNL d   1      25.211 -17.035  -0.333  0.00  0.00     0.030 A 
ATOM      5  C   UNL d   1      25.319 -15.655  -0.243  0.00  0.00     0.030 A 
ATOM      6  C   UNL d   1      26.574 -14.817  -0.434  0.00  0.00     0.019 A 
ENDROOT
BRANCH   4   7
ATOM      7  N   UNL d   1      23.603 -17.788  -0.130  0.00  0.00    -0.353 N 
ATOM      8  H   UNL d   1      23.094 -17.080  -0.704  0.00  0.00     0.162 HD
BRANCH   7   9
ATOM      9  C   UNL d   1      22.405 -19.080   0.210  0.00  0.00     0.227 C 
ATOM     10  N   UNL d   1      22.032 -18.483  -0.918  0.00  0.00    -0.149 NA
ATOM     11  N   UNL d   1      21.006 -17.868  -0.767  0.00  0.00    -0.157 NA
ATOM     12  C   UNL d   1      20.095 -18.772  -0.895  0.00  0.00     0.063 C 
ATOM     13  C   UNL d   1      20.305 -19.697  -2.172  0.00  0.00     0.073 C 
ATOM     14  C   UNL d   1      19.755 -19.306   0.329  0.00  0.00     0.001 C 
ATOM     15  C   UNL d   1      19.384 -19.379   1.878  0.00  0.00     0.014 C 
ATOM     16  C   UNL d   1      20.749 -20.095   0.254  0.00  0.00     0.011 C 
ATOM     17  C   UNL d   1      18.567 -20.388   2.452  0.00  0.00     0.001 C 
ATOM     18  C   UNL d   1      18.157 -21.215   1.499  0.00  0.00     0.001 C 
ATOM     19  C   UNL d   1      19.277 -21.164   0.459  0.00  0.00     0.013 C 
ENDBRANCH   7   9
ENDBRANCH   4   7
BRANCH   1  20
ATOM     20  C   UNL d   1      29.115 -14.150  -0.622  0.00  0.00     0.256 C 
ATOM     21  N   UNL d   1      29.017 -13.009   0.205  0.00  0.00    -0.323 N 
ATOM     22  H   UNL d   1      29.415 -12.145  -0.162  0.00  0.00     0.169 HD
ATOM     23  O   UNL d   1      30.100 -14.275  -1.352  0.00  0.00    -0.267 OA
BRANCH  21  24
ATOM     24  C   UNL d   1      28.663 -13.019   1.579  0.00  0.00     0.035 C 
ATOM     25  C   UNL d   1      27.363 -12.745   2.009  0.00  0.00     0.030 C 
ATOM     26  C   UNL d   1      27.036 -12.895   3.369  0.00  0.00     0.009 C 
ATOM     27  C   UNL d   1      27.988 -13.337   4.298  0.00  0.00    -0.062 C 
ATOM     28  C   UNL d   1      27.668 -13.531   5.745  0.00  0.00     0.048 C 
ATOM     29  C   UNL d   1      29.280 -13.581   3.867  0.00  0.00     0.009 C 
ATOM     30  C   UNL d   1      29.615 -13.344   2.546  0.00  0.00     0.030 C 
ENDBRANCH  21  24
ENDBRANCH   1  20
TORSDOF 4
ENDMDL
MODEL 6
REMARK VINA RESULT:    -8.439      4.082      6.283
REMARK INTER + INTRA:         -11.681
REMARK INTER:                  -9.632
REMARK INTRA:                  -2.049
REMARK CONF_INDEPENDENT:        1.193
REMARK UNBOUND:                -2.049
REMARK  4 active torsions:
REMARK  status: ('A' for Active; 'I' for Inactive)
REMARK    1  A    between atoms: C_5  and  N_6 
REMARK       I    between atoms: N_6  and  C_7 
REMARK    2  A    between atoms: C_7  and  C_9 
REMARK    3  A    between atoms: C_12  and  N_13 
REMARK    4  A    between atoms: N_13  and  C_14 
ROOT
ATOM      1  C   UNL d   1      26.966 -11.768  -5.208  0.00  0.00     0.032 A 
ATOM      2  C   UNL d   1      26.315 -11.299  -4.076  0.00  0.00     0.019 A 
ATOM      3  C   UNL d   1      25.535 -12.324  -3.093  0.00  0.00     0.030 A 
ATOM      4  C   UNL d   1      25.329 -13.909  -3.313  0.00  0.00     0.030 A 
ATOM      5  C   UNL d   1      26.090 -14.178  -4.441  0.00  0.00     0.030 A 
ATOM      6  C   UNL d   1      26.877 -13.180  -5.278  0.00  0.00     0.019 A 
ENDROOT
BRANCH   4   7
ATOM      7  N   UNL d   1      24.546 -15.269  -2.459  0.00  0.00    -0.353 N 
ATOM      8  H   UNL d   1      25.283 -15.969  -2.699  0.00  0.00     0.162 HD
BRANCH   7   9
ATOM      9  C   UNL d   1      23.469 -16.092  -1.282  0.00  0.00     0.227 C 
ATOM     10  N   UNL d   1      24.652 -16.698  -1.226  0.00  0.00    -0.149 NA
ATOM     11  N   UNL d   1      24.589 -17.821  -1.658  0.00  0.00    -0.157 NA
ATOM     12  C   UNL d   1      24.146 -18.501  -0.655  0.00  0.00     0.063 C 
ATOM     13  C   UNL d   1      24.921 -18.197   0.701  0.00  0.00     0.073 C 
ATOM     14  C   UNL d   1      22.771 -18.593  -0.691  0.00  0.00     0.001 C 
ATOM     15  C   UNL d   1      21.300 -18.792  -1.272  0.00  0.00     0.014 C 
ATOM     16  C   UNL d   1      22.688 -17.452  -0.136  0.00  0.00     0.011 C 
ATOM     17  C   UNL d   1      20.208 -19.293  -0.515  0.00  0.00     0.001 C 
ATOM     18  C   UNL d   1      20.622 -19.582   0.712  0.00  0.00     0.001 C 
ATOM     19  C   UNL d   1      21.774 -18.605   0.953  0.00  0.00     0.013 C 
ENDBRANCH   7   9
ENDBRANCH   4   7
BRANCH   1  20
ATOM     20  C   UNL d   1      27.697 -10.901  -6.311  0.00  0.00     0.256 C 
ATOM     21  N   UNL d   1      26.958  -9.939  -7.035  0.00  0.00    -0.323 N 
ATOM     22  H   UNL d   1      27.202  -9.820  -8.018  0.00  0.00     0.169 HD
ATOM     23  O   UNL d   1      28.882 -11.082  -6.599  0.00  0.00    -0.267 OA
BRANCH  21  24
ATOM     24  C   UNL d   1      26.106  -8.958  -6.464  0.00  0.00     0.035 C 
ATOM     25  C   UNL d   1      26.534  -7.650  -6.236  0.00  0.00     0.030 C 
ATOM     26  C   UNL d   1      25.611  -6.686  -5.789  0.00  0.00     0.009 C 
ATOM     27  C   UNL d   1      24.263  -7.012  -5.589  0.00  0.00    -0.062 C 
ATOM     28  C   UNL d   1      23.252  -6.007  -5.139  0.00  0.00     0.048 C 
ATOM     29  C   UNL d   1      23.853  -8.318  -5.793  0.00  0.00     0.009 C 
ATOM     30  C   UNL d   1      24.785  -9.278  -6.144  0.00  0.00     0.030 C 
ENDBRANCH  21  24
ENDBRANCH   1  20
TORSDOF 4
ENDMDL
MODEL 7
REMARK VINA RESULT:    -8.322      5.238      9.544
REMARK INTER + INTRA:         -11.555
REMARK INTER:                  -9.515
REMARK INTRA:                  -2.040
REMARK CONF_INDEPENDENT:        1.193
REMARK UNBOUND:                -2.040
REMARK  4 active torsions:
REMARK  status: ('A' for Active; 'I' for Inactive)
REMARK    1  A    between atoms: C_5  and  N_6 
REMARK       I    between atoms: N_6  and  C_7 
REMARK    2  A    between atoms: C_7  and  C_9 
REMARK    3  A    between atoms: C_12  and  N_13 
REMARK    4  A    between atoms: N_13  and  C_14 
ROOT
ATOM      1  C   UNL d   1      26.600 -15.660  -1.808  0.00  0.00     0.032 A 
ATOM      2  C   UNL d   1      25.882 -15.678  -2.995  0.00  0.00     0.019 A 
ATOM      3  C   UNL d   1      25.493 -14.292  -3.740  0.00  0.00     0.030 A 
ATOM      4  C   UNL d   1      25.776 -12.794  -3.210  0.00  0.00     0.030 A 
ATOM      5  C   UNL d   1      26.537 -12.997  -2.069  0.00  0.00     0.030 A 
ATOM      6  C   UNL d   1      26.947 -14.330  -1.461  0.00  0.00     0.019 A 
ENDROOT
BRANCH   4   7
ATOM      7  N   UNL d   1      25.482 -11.121  -3.764  0.00  0.00    -0.353 N 
ATOM      8  H   UNL d   1      25.890 -10.668  -2.916  0.00  0.00     0.162 HD
BRANCH   7   9
ATOM      9  C   UNL d   1      25.176  -9.784  -4.922  0.00  0.00     0.227 C 
ATOM     10  N   UNL d   1      25.884  -9.280  -3.914  0.00  0.00    -0.149 NA
ATOM     11  N   UNL d   1      25.228  -8.505  -3.265  0.00  0.00    -0.157 NA
ATOM     12  C   UNL d   1      25.318  -7.406  -3.934  0.00  0.00     0.063 C 
ATOM     13  C   UNL d   1      26.809  -7.049  -4.357  0.00  0.00     0.073 C 
ATOM     14  C   UNL d   1      24.271  -7.283  -4.821  0.00  0.00     0.001 C 
ATOM     15  C   UNL d   1      22.785  -7.324  -5.396  0.00  0.00     0.014 C 
ATOM     16  C   UNL d   1      24.902  -8.007  -5.655  0.00  0.00     0.011 C 
ATOM     17  C   UNL d   1      22.307  -6.472  -6.427  0.00  0.00     0.001 C 
ATOM     18  C   UNL d   1      23.276  -5.643  -6.794  0.00  0.00     0.001 C 
ATOM     19  C   UNL d   1      24.559  -6.431  -6.521  0.00  0.00     0.013 C 
ENDBRANCH   7   9
ENDBRANCH   4   7
BRANCH   1  20
ATOM     20  C   UNL d   1      26.986 -16.906  -0.912  0.00  0.00     0.256 C 
ATOM     21  N   UNL d   1      26.071 -17.367   0.060  0.00  0.00    -0.323 N 
ATOM     22  H   UNL d   1      26.468 -17.713   0.933  0.00  0.00     0.169 HD
ATOM     23  O   UNL d   1      28.089 -17.451  -0.999  0.00  0.00    -0.267 OA
BRANCH  21  24
ATOM     24  C   UNL d   1      24.696 -17.633  -0.168  0.00  0.00     0.035 C 
ATOM     25  C   UNL d   1      23.784 -16.617  -0.456  0.00  0.00     0.030 C 
ATOM     26  C   UNL d   1      22.461 -16.949  -0.801  0.00  0.00     0.009 C 
ATOM     27  C   UNL d   1      22.047 -18.285  -0.882  0.00  0.00    -0.062 C 
ATOM     28  C   UNL d   1      20.657 -18.674  -1.270  0.00  0.00     0.048 C 
ATOM     29  C   UNL d   1      22.951 -19.285  -0.570  0.00  0.00     0.009 C 
ATOM     30  C   UNL d   1      24.223 -18.946  -0.145  0.00  0.00     0.030 C 
ENDBRANCH  21  24
ENDBRANCH   1  20
TORSDOF 4
ENDMDL
MODEL 8
REMARK VINA RESULT:    -8.180      5.061      9.886
REMARK INTER + INTRA:         -11.304
REMARK INTER:                  -9.373
REMARK INTRA:                  -1.931
REMARK CONF_INDEPENDENT:        1.193
REMARK UNBOUND:                -1.931
REMARK  4 active torsions:
REMARK  status: ('A' for Active; 'I' for Inactive)
REMARK    1  A    between atoms: C_5  and  N_6 
REMARK       I    between atoms: N_6  and  C_7 
REMARK    2  A    between atoms: C_7  and  C_9 
REMARK    3  A    between atoms: C_12  and  N_13 
REMARK    4  A    between atoms: N_13  and  C_14 
ROOT
ATOM      1  C   UNL d   1      26.598 -15.593  -1.838  0.00  0.00     0.032 A 
ATOM      2  C   UNL d   1      25.603 -15.560  -2.804  0.00  0.00     0.019 A 
ATOM      3  C   UNL d   1      25.231 -14.172  -3.553  0.00  0.00     0.030 A 
ATOM      4  C   UNL d   1      25.844 -12.712  -3.247  0.00  0.00     0.030 A 
ATOM      5  C   UNL d   1      26.839 -12.970  -2.315  0.00  0.00     0.030 A 
ATOM      6  C   UNL d   1      27.203 -14.317  -1.709  0.00  0.00     0.019 A 
ENDROOT
BRANCH   4   7
ATOM      7  N   UNL d   1      25.652 -11.044  -3.860  0.00  0.00    -0.353 N 
ATOM      8  H   UNL d   1      24.836 -11.262  -4.473  0.00  0.00     0.162 HD
BRANCH   7   9
ATOM      9  C   UNL d   1      25.808  -9.256  -3.887  0.00  0.00     0.227 C 
ATOM     10  N   UNL d   1      24.780  -9.575  -4.668  0.00  0.00    -0.149 NA
ATOM     11  N   UNL d   1      25.023  -9.343  -5.826  0.00  0.00    -0.157 NA
ATOM     12  C   UNL d   1      24.770  -8.083  -5.936  0.00  0.00     0.063 C 
ATOM     13  C   UNL d   1      23.372  -7.665  -5.302  0.00  0.00     0.073 C 
ATOM     14  C   UNL d   1      25.907  -7.332  -5.725  0.00  0.00     0.001 C 
ATOM     15  C   UNL d   1      27.431  -6.871  -5.804  0.00  0.00     0.014 C 
ATOM     16  C   UNL d   1      25.714  -7.406  -4.470  0.00  0.00     0.011 C 
ATOM     17  C   UNL d   1      27.858  -5.520  -5.707  0.00  0.00     0.001 C 
ATOM     18  C   UNL d   1      26.798  -4.734  -5.571  0.00  0.00     0.001 C 
ATOM     19  C   UNL d   1      25.770  -5.619  -4.863  0.00  0.00     0.013 C 
ENDBRANCH   7   9
ENDBRANCH   4   7
BRANCH   1  20
ATOM     20  C   UNL d   1      27.026 -16.836  -0.956  0.00  0.00     0.256 C 
ATOM     21  N   UNL d   1      26.157 -17.293   0.059  0.00  0.00    -0.323 N 
ATOM     22  H   UNL d   1      26.594 -17.635   0.914  0.00  0.00     0.169 HD
ATOM     23  O   UNL d   1      28.124 -17.380  -1.091  0.00  0.00    -0.267 OA
BRANCH  21  24
ATOM     24  C   UNL d   1      24.773 -17.561  -0.105  0.00  0.00     0.035 C 
ATOM     25  C   UNL d   1      23.836 -16.539  -0.264  0.00  0.00     0.030 C 
ATOM     26  C   UNL d   1      22.497 -16.864  -0.553  0.00  0.00     0.009 C 
ATOM     27  C   UNL d   1      22.092 -18.197  -0.703  0.00  0.00    -0.062 C 
ATOM     28  C   UNL d   1      20.684 -18.575  -1.034  0.00  0.00     0.048 C 
ATOM     29  C   UNL d   1      23.022 -19.204  -0.518  0.00  0.00     0.009 C 
ATOM     30  C   UNL d   1      24.314 -18.879  -0.146  0.00  0.00     0.030 C 
ENDBRANCH  21  24
ENDBRANCH   1  20
TORSDOF 4
ENDMDL
MODEL 9
REMARK VINA RESULT:    -8.032      7.576      9.902
REMARK INTER + INTRA:         -11.349
REMARK INTER:                  -9.225
REMARK INTRA:                  -2.124
REMARK CONF_INDEPENDENT:        1.193
REMARK UNBOUND:                -2.124
REMARK  4 active torsions:
REMARK  status: ('A' for Active; 'I' for Inactive)
REMARK    1  A    between atoms: C_5  and  N_6 
REMARK       I    between atoms: N_6  and  C_7 
REMARK    2  A    between atoms: C_7  and  C_9 
REMARK    3  A    between atoms: C_12  and  N_13 
REMARK    4  A    between atoms: N_13  and  C_14 
ROOT
ATOM      1  C   UNL d   1      27.888 -14.139   0.267  0.00  0.00     0.032 A 
ATOM      2  C   UNL d   1      26.862 -13.607   1.034  0.00  0.00     0.019 A 
ATOM      3  C   UNL d   1      27.038 -13.435   2.636  0.00  0.00     0.030 A 
ATOM      4  C   UNL d   1      28.297 -13.907   3.528  0.00  0.00     0.030 A 
ATOM      5  C   UNL d   1      29.213 -14.346   2.583  0.00  0.00     0.030 A 
ATOM      6  C   UNL d   1      29.022 -14.403   1.075  0.00  0.00     0.019 A 
ENDROOT
BRANCH   4   7
ATOM      7  N   UNL d   1      28.783 -13.874   5.247  0.00  0.00    -0.353 N 
ATOM      8  H   UNL d   1      28.961 -12.846   5.276  0.00  0.00     0.162 HD
BRANCH   7   9
ATOM      9  C   UNL d   1      28.905 -14.430   6.949  0.00  0.00     0.227 C 
ATOM     10  N   UNL d   1      28.723 -13.112   6.976  0.00  0.00    -0.149 NA
ATOM     11  N   UNL d   1      29.707 -12.544   7.375  0.00  0.00    -0.157 NA
ATOM     12  C   UNL d   1      29.598 -12.627   8.658  0.00  0.00     0.063 C 
ATOM     13  C   UNL d   1      28.156 -12.222   9.193  0.00  0.00     0.073 C 
ATOM     14  C   UNL d   1      30.255 -13.739   9.137  0.00  0.00     0.001 C 
ATOM     15  C   UNL d   1      31.393 -14.840   9.323  0.00  0.00     0.014 C 
ATOM     16  C   UNL d   1      29.237 -14.450   8.863  0.00  0.00     0.011 C 
ATOM     17  C   UNL d   1      31.623 -15.550  10.531  0.00  0.00     0.001 C 
ATOM     18  C   UNL d   1      30.769 -15.130  11.455  0.00  0.00     0.001 C 
ATOM     19  C   UNL d   1      29.544 -14.687  10.652  0.00  0.00     0.013 C 
ENDBRANCH   7   9
ENDBRANCH   4   7
BRANCH   1  20
ATOM     20  C   UNL d   1      27.851 -14.452  -1.284  0.00  0.00     0.256 C 
ATOM     21  N   UNL d   1      27.531 -15.758  -1.716  0.00  0.00    -0.323 N 
ATOM     22  H   UNL d   1      28.025 -16.099  -2.540  0.00  0.00     0.169 HD
ATOM     23  O   UNL d   1      28.151 -13.602  -2.125  0.00  0.00    -0.267 OA
BRANCH  21  24
ATOM     24  C   UNL d   1      26.417 -16.519  -1.276  0.00  0.00     0.035 C 
ATOM     25  C   UNL d   1      26.524 -17.463  -0.254  0.00  0.00     0.030 C 
ATOM     26  C   UNL d   1      25.365 -18.095   0.231  0.00  0.00     0.009 C 
ATOM     27  C   UNL d   1      24.099 -17.777  -0.279  0.00  0.00    -0.062 C 
ATOM     28  C   UNL d   1      22.845 -18.410   0.230  0.00  0.00     0.048 C 
ATOM     29  C   UNL d   1      24.005 -16.859  -1.310  0.00  0.00     0.009 C 
ATOM     30  C   UNL d   1      25.159 -16.310  -1.842  0.00  0.00     0.030 C 
ENDBRANCH  21  24
ENDBRANCH   1  20
TORSDOF 4
ENDMDL
