MODEL 1
REMARK VINA RESULT:    -8.460      0.000      0.000
REMARK INTER + INTRA:         -10.059
REMARK INTER:                  -9.654
REMARK INTRA:                  -0.405
REMARK CONF_INDEPENDENT:        1.193
REMARK UNBOUND:                -0.405
REMARK  4 active torsions:
REMARK  status: ('A' for Active; 'I' for Inactive)
REMARK       I    between atoms: C_2  and  N_3 
REMARK    1  A    between atoms: C_2  and  C_13 
REMARK    2  A    between atoms: N_3  and  N_4 
REMARK    3  A    between atoms: C_5  and  C_6 
REMARK    4  A    between atoms: C_9  and  O_10 
ROOT
ATOM      1  O   UNL d   1      24.544 -18.508   0.596  0.00  0.00    -0.266 OA
ATOM      2  C   UNL d   1      24.617 -17.984  -0.521  0.00  0.00     0.274 C 
ATOM      3  N   UNL d   1      23.650 -18.169  -1.516  0.00  0.00    -0.243 N 
ATOM      4  H   UNL d   1      23.806 -17.822  -2.455  0.00  0.00     0.192 HD
ENDROOT
BRANCH   2   5
ATOM      5  C   UNL d   1      25.772 -17.132  -0.854  0.00  0.00     0.061 A 
ATOM      6  C   UNL d   1      27.090 -17.313  -0.463  0.00  0.00     0.106 A 
ATOM      7  N   UNL d   1      27.879 -16.415  -1.147  0.00  0.00    -0.364 N 
ATOM      8  C   UNL d   1      27.102 -15.577  -1.913  0.00  0.00     0.043 A 
ATOM      9  H   UNL d   1      28.889 -16.370  -1.108  0.00  0.00     0.165 HD
ATOM     10  C   UNL d   1      27.466 -14.494  -2.733  0.00  0.00     0.030 A 
ATOM     11  C   UNL d   1      25.781 -16.004  -1.758  0.00  0.00     0.008 A 
ATOM     12  C   UNL d   1      26.443 -13.797  -3.384  0.00  0.00     0.002 A 
ATOM     13  C   UNL d   1      25.116 -14.194  -3.252  0.00  0.00     0.001 A 
ATOM     14  C   UNL d   1      24.778 -15.304  -2.464  0.00  0.00     0.015 A 
ENDBRANCH   2   5
BRANCH   3  15
ATOM     15  N   UNL d   1      22.516 -18.921  -1.228  0.00  0.00    -0.183 NA
ATOM     16  C   UNL d   1      21.789 -18.579  -0.212  0.00  0.00     0.150 C 
BRANCH  16  17
ATOM     17  C   UNL d   1      20.551 -19.323   0.173  0.00  0.00    -0.017 A 
ATOM     18  C   UNL d   1      19.586 -19.685  -0.776  0.00  0.00     0.015 A 
ATOM     19  C   UNL d   1      18.467 -20.451  -0.398  0.00  0.00     0.037 A 
ATOM     20  C   UNL d   1      18.310 -20.831   0.933  0.00  0.00     0.065 A 
ATOM     21  C   UNL d   1      19.245 -20.449   1.888  0.00  0.00     0.037 A 
ATOM     22  C   UNL d   1      20.372 -19.704   1.509  0.00  0.00     0.015 A 
BRANCH  20  23
ATOM     23  O   UNL d   1      17.255 -21.587   1.355  0.00  0.00    -0.361 OA
ATOM     24  H   UNL d   1      17.264 -22.445   0.899  0.00  0.00     0.217 HD
ENDBRANCH  20  23
ENDBRANCH  16  17
ENDBRANCH   3  15
TORSDOF 4
ENDMDL
MODEL 2
REMARK VINA RESULT:    -7.900      1.244      2.245
REMARK INTER + INTRA:          -9.406
REMARK INTER:                  -9.093
REMARK INTRA:                  -0.313
REMARK CONF_INDEPENDENT:        1.193
REMARK UNBOUND:                -0.313
REMARK  4 active torsions:
REMARK  status: ('A' for Active; 'I' for Inactive)
REMARK       I    between atoms: C_2  and  N_3 
REMARK    1  A    between atoms: C_2  and  C_13 
REMARK    2  A    between atoms: N_3  and  N_4 
REMARK    3  A    between atoms: C_5  and  C_6 
REMARK    4  A    between atoms: C_9  and  O_10 
ROOT
ATOM      1  O   UNL d   1      22.586 -16.207  -0.903  0.00  0.00    -0.266 OA
ATOM      2  C   UNL d   1      23.582 -16.830  -1.290  0.00  0.00     0.274 C 
ATOM      3  N   UNL d   1      23.609 -18.224  -1.416  0.00  0.00    -0.243 N 
ATOM      4  H   UNL d   1      24.477 -18.704  -1.620  0.00  0.00     0.192 HD
ENDROOT
BRANCH   2   5
ATOM      5  C   UNL d   1      24.815 -16.099  -1.629  0.00  0.00     0.061 A 
ATOM      6  C   UNL d   1      24.922 -14.926  -2.363  0.00  0.00     0.106 A 
ATOM      7  N   UNL d   1      26.219 -14.472  -2.281  0.00  0.00    -0.364 N 
ATOM      8  C   UNL d   1      27.000 -15.369  -1.588  0.00  0.00     0.043 A 
ATOM      9  H   UNL d   1      26.563 -13.602  -2.664  0.00  0.00     0.165 HD
ATOM     10  C   UNL d   1      28.376 -15.345  -1.298  0.00  0.00     0.030 A 
ATOM     11  C   UNL d   1      26.150 -16.392  -1.161  0.00  0.00     0.008 A 
ATOM     12  C   UNL d   1      28.911 -16.422  -0.586  0.00  0.00     0.002 A 
ATOM     13  C   UNL d   1      28.094 -17.458  -0.145  0.00  0.00     0.001 A 
ATOM     14  C   UNL d   1      26.717 -17.443  -0.406  0.00  0.00     0.015 A 
ENDBRANCH   2   5
BRANCH   3  15
ATOM     15  N   UNL d   1      22.452 -18.950  -1.158  0.00  0.00    -0.183 NA
ATOM     16  C   UNL d   1      21.755 -18.650  -0.107  0.00  0.00     0.150 C 
BRANCH  16  17
ATOM     17  C   UNL d   1      20.496 -19.372   0.250  0.00  0.00    -0.017 A 
ATOM     18  C   UNL d   1      19.539 -19.705  -0.719  0.00  0.00     0.015 A 
ATOM     19  C   UNL d   1      18.399 -20.450  -0.366  0.00  0.00     0.037 A 
ATOM     20  C   UNL d   1      18.211 -20.838   0.958  0.00  0.00     0.065 A 
ATOM     21  C   UNL d   1      19.137 -20.483   1.932  0.00  0.00     0.037 A 
ATOM     22  C   UNL d   1      20.285 -19.760   1.579  0.00  0.00     0.015 A 
BRANCH  20  23
ATOM     23  O   UNL d   1      17.133 -21.575   1.356  0.00  0.00    -0.361 OA
ATOM     24  H   UNL d   1      17.373 -22.516   1.385  0.00  0.00     0.217 HD
ENDBRANCH  20  23
ENDBRANCH  16  17
ENDBRANCH   3  15
TORSDOF 4
ENDMDL
MODEL 3
REMARK VINA RESULT:    -6.978      1.327      1.493
REMARK INTER + INTRA:          -8.375
REMARK INTER:                  -8.171
REMARK INTRA:                  -0.204
REMARK CONF_INDEPENDENT:        1.193
REMARK UNBOUND:                -0.204
REMARK  4 active torsions:
REMARK  status: ('A' for Active; 'I' for Inactive)
REMARK       I    between atoms: C_2  and  N_3 
REMARK    1  A    between atoms: C_2  and  C_13 
REMARK    2  A    between atoms: N_3  and  N_4 
REMARK    3  A    between atoms: C_5  and  C_6 
REMARK    4  A    between atoms: C_9  and  O_10 
ROOT
ATOM      1  O   UNL d   1      24.111 -16.903  -1.687  0.00  0.00    -0.266 OA
ATOM      2  C   UNL d   1      24.989 -17.225  -0.877  0.00  0.00     0.274 C 
ATOM      3  N   UNL d   1      24.803 -18.212   0.098  0.00  0.00    -0.243 N 
ATOM      4  H   UNL d   1      25.502 -18.362   0.816  0.00  0.00     0.192 HD
ENDROOT
BRANCH   2   5
ATOM      5  C   UNL d   1      26.296 -16.547  -0.909  0.00  0.00     0.061 A 
ATOM      6  C   UNL d   1      27.264 -16.542   0.085  0.00  0.00     0.106 A 
ATOM      7  N   UNL d   1      28.407 -15.962  -0.418  0.00  0.00    -0.364 N 
ATOM      8  C   UNL d   1      28.190 -15.495  -1.694  0.00  0.00     0.043 A 
ATOM      9  H   UNL d   1      29.292 -15.889   0.067  0.00  0.00     0.165 HD
ATOM     10  C   UNL d   1      29.046 -14.804  -2.569  0.00  0.00     0.030 A 
ATOM     11  C   UNL d   1      26.882 -15.852  -2.032  0.00  0.00     0.008 A 
ATOM     12  C   UNL d   1      28.538 -14.427  -3.816  0.00  0.00     0.002 A 
ATOM     13  C   UNL d   1      27.240 -14.766  -4.186  0.00  0.00     0.001 A 
ATOM     14  C   UNL d   1      26.416 -15.493  -3.316  0.00  0.00     0.015 A 
ENDBRANCH   2   5
BRANCH   3  15
ATOM     15  N   UNL d   1      23.604 -18.916   0.130  0.00  0.00    -0.183 NA
ATOM     16  C   UNL d   1      22.506 -18.277  -0.127  0.00  0.00     0.150 C 
BRANCH  16  17
ATOM     17  C   UNL d   1      21.170 -18.949  -0.120  0.00  0.00    -0.017 A 
ATOM     18  C   UNL d   1      20.367 -18.999  -1.267  0.00  0.00     0.015 A 
ATOM     19  C   UNL d   1      19.148 -19.702  -1.252  0.00  0.00     0.037 A 
ATOM     20  C   UNL d   1      18.730 -20.333  -0.082  0.00  0.00     0.065 A 
ATOM     21  C   UNL d   1      19.504 -20.260   1.070  0.00  0.00     0.037 A 
ATOM     22  C   UNL d   1      20.729 -19.579   1.051  0.00  0.00     0.015 A 
BRANCH  20  23
ATOM     23  O   UNL d   1      17.566 -21.043  -0.013  0.00  0.00    -0.361 OA
ATOM     24  H   UNL d   1      16.986 -20.791  -0.750  0.00  0.00     0.217 HD
ENDBRANCH  20  23
ENDBRANCH  16  17
ENDBRANCH   3  15
TORSDOF 4
ENDMDL
MODEL 4
REMARK VINA RESULT:    -6.874      5.970      8.702
REMARK INTER + INTRA:          -8.432
REMARK INTER:                  -8.067
REMARK INTRA:                  -0.365
REMARK CONF_INDEPENDENT:        1.193
REMARK UNBOUND:                -0.365
REMARK  4 active torsions:
REMARK  status: ('A' for Active; 'I' for Inactive)
REMARK       I    between atoms: C_2  and  N_3 
REMARK    1  A    between atoms: C_2  and  C_13 
REMARK    2  A    between atoms: N_3  and  N_4 
REMARK    3  A    between atoms: C_5  and  C_6 
REMARK    4  A    between atoms: C_9  and  O_10 
ROOT
ATOM      1  O   UNL d   1      26.575 -13.208   2.692  0.00  0.00    -0.266 OA
ATOM      2  C   UNL d   1      27.496 -13.955   3.043  0.00  0.00     0.274 C 
ATOM      3  N   UNL d   1      28.218 -14.750   2.145  0.00  0.00    -0.243 N 
ATOM      4  H   UNL d   1      28.882 -15.435   2.486  0.00  0.00     0.192 HD
ENDROOT
BRANCH   2   5
ATOM      5  C   UNL d   1      27.864 -14.042   4.466  0.00  0.00     0.061 A 
ATOM      6  C   UNL d   1      28.075 -15.193   5.211  0.00  0.00     0.106 A 
ATOM      7  N   UNL d   1      28.592 -14.836   6.436  0.00  0.00    -0.364 N 
ATOM      8  C   UNL d   1      28.640 -13.466   6.558  0.00  0.00     0.043 A 
ATOM      9  H   UNL d   1      28.904 -15.478   7.153  0.00  0.00     0.165 HD
ATOM     10  C   UNL d   1      29.049 -12.662   7.637  0.00  0.00     0.030 A 
ATOM     11  C   UNL d   1      28.199 -12.941   5.341  0.00  0.00     0.008 A 
ATOM     12  C   UNL d   1      28.965 -11.275   7.484  0.00  0.00     0.002 A 
ATOM     13  C   UNL d   1      28.530 -10.717   6.285  0.00  0.00     0.001 A 
ATOM     14  C   UNL d   1      28.168 -11.535   5.206  0.00  0.00     0.015 A 
ENDBRANCH   2   5
BRANCH   3  15
ATOM     15  N   UNL d   1      27.941 -14.660   0.785  0.00  0.00    -0.183 NA
ATOM     16  C   UNL d   1      26.736 -14.913   0.382  0.00  0.00     0.150 C 
BRANCH  16  17
ATOM     17  C   UNL d   1      26.342 -14.838  -1.058  0.00  0.00    -0.017 A 
ATOM     18  C   UNL d   1      25.979 -15.982  -1.781  0.00  0.00     0.015 A 
ATOM     19  C   UNL d   1      25.541 -15.873  -3.114  0.00  0.00     0.037 A 
ATOM     20  C   UNL d   1      25.490 -14.620  -3.723  0.00  0.00     0.065 A 
ATOM     21  C   UNL d   1      25.881 -13.484  -3.024  0.00  0.00     0.037 A 
ATOM     22  C   UNL d   1      26.296 -13.588  -1.689  0.00  0.00     0.015 A 
BRANCH  20  23
ATOM     23  O   UNL d   1      25.059 -14.451  -5.006  0.00  0.00    -0.361 OA
ATOM     24  H   UNL d   1      24.320 -13.821  -5.022  0.00  0.00     0.217 HD
ENDBRANCH  20  23
ENDBRANCH  16  17
ENDBRANCH   3  15
TORSDOF 4
ENDMDL
MODEL 5
REMARK VINA RESULT:    -6.841      3.914      5.877
REMARK INTER + INTRA:          -8.424
REMARK INTER:                  -8.034
REMARK INTRA:                  -0.390
REMARK CONF_INDEPENDENT:        1.193
REMARK UNBOUND:                -0.390
REMARK  4 active torsions:
REMARK  status: ('A' for Active; 'I' for Inactive)
REMARK       I    between atoms: C_2  and  N_3 
REMARK    1  A    between atoms: C_2  and  C_13 
REMARK    2  A    between atoms: N_3  and  N_4 
REMARK    3  A    between atoms: C_5  and  C_6 
REMARK    4  A    between atoms: C_9  and  O_10 
ROOT
ATOM      1  O   UNL d   1      26.370 -15.950  -5.403  0.00  0.00    -0.266 OA
ATOM      2  C   UNL d   1      26.629 -14.792  -5.054  0.00  0.00     0.274 C 
ATOM      3  N   UNL d   1      25.966 -14.143  -4.006  0.00  0.00    -0.243 N 
ATOM      4  H   UNL d   1      26.124 -13.158  -3.831  0.00  0.00     0.192 HD
ENDROOT
BRANCH   2   5
ATOM      5  C   UNL d   1      27.672 -14.032  -5.765  0.00  0.00     0.061 A 
ATOM      6  C   UNL d   1      27.685 -12.671  -6.031  0.00  0.00     0.106 A 
ATOM      7  N   UNL d   1      28.921 -12.333  -6.536  0.00  0.00    -0.364 N 
ATOM      8  C   UNL d   1      29.698 -13.457  -6.701  0.00  0.00     0.043 A 
ATOM      9  H   UNL d   1      29.232 -11.395  -6.752  0.00  0.00     0.165 HD
ATOM     10  C   UNL d   1      30.997 -13.598  -7.219  0.00  0.00     0.030 A 
ATOM     11  C   UNL d   1      28.948 -14.534  -6.222  0.00  0.00     0.008 A 
ATOM     12  C   UNL d   1      31.534 -14.887  -7.291  0.00  0.00     0.002 A 
ATOM     13  C   UNL d   1      30.815 -15.983  -6.823  0.00  0.00     0.001 A 
ATOM     14  C   UNL d   1      29.538 -15.816  -6.269  0.00  0.00     0.015 A 
ENDBRANCH   2   5
BRANCH   3  15
ATOM     15  N   UNL d   1      25.013 -14.840  -3.272  0.00  0.00    -0.183 NA
ATOM     16  C   UNL d   1      25.418 -15.717  -2.409  0.00  0.00     0.150 C 
BRANCH  16  17
ATOM     17  C   UNL d   1      24.469 -16.512  -1.571  0.00  0.00    -0.017 A 
ATOM     18  C   UNL d   1      23.193 -16.030  -1.247  0.00  0.00     0.015 A 
ATOM     19  C   UNL d   1      22.293 -16.831  -0.520  0.00  0.00     0.037 A 
ATOM     20  C   UNL d   1      22.683 -18.101  -0.102  0.00  0.00     0.065 A 
ATOM     21  C   UNL d   1      23.958 -18.575  -0.389  0.00  0.00     0.037 A 
ATOM     22  C   UNL d   1      24.849 -17.787  -1.132  0.00  0.00     0.015 A 
BRANCH  20  23
ATOM     23  O   UNL d   1      21.847 -18.928   0.591  0.00  0.00    -0.361 OA
ATOM     24  H   UNL d   1      22.215 -19.828   0.605  0.00  0.00     0.217 HD
ENDBRANCH  20  23
ENDBRANCH  16  17
ENDBRANCH   3  15
TORSDOF 4
ENDMDL
MODEL 6
REMARK VINA RESULT:    -6.796      3.792      5.751
REMARK INTER + INTRA:          -8.392
REMARK INTER:                  -7.989
REMARK INTRA:                  -0.404
REMARK CONF_INDEPENDENT:        1.193
REMARK UNBOUND:                -0.404
REMARK  4 active torsions:
REMARK  status: ('A' for Active; 'I' for Inactive)
REMARK       I    between atoms: C_2  and  N_3 
REMARK    1  A    between atoms: C_2  and  C_13 
REMARK    2  A    between atoms: N_3  and  N_4 
REMARK    3  A    between atoms: C_5  and  C_6 
REMARK    4  A    between atoms: C_9  and  O_10 
ROOT
ATOM      1  O   UNL d   1      26.069 -15.946  -5.585  0.00  0.00    -0.266 OA
ATOM      2  C   UNL d   1      26.549 -14.880  -5.182  0.00  0.00     0.274 C 
ATOM      3  N   UNL d   1      26.108 -14.235  -4.020  0.00  0.00    -0.243 N 
ATOM      4  H   UNL d   1      26.443 -13.307  -3.790  0.00  0.00     0.192 HD
ENDROOT
BRANCH   2   5
ATOM      5  C   UNL d   1      27.627 -14.229  -5.945  0.00  0.00     0.061 A 
ATOM      6  C   UNL d   1      28.687 -14.845  -6.595  0.00  0.00     0.106 A 
ATOM      7  N   UNL d   1      29.349 -13.903  -7.348  0.00  0.00    -0.364 N 
ATOM      8  C   UNL d   1      28.811 -12.654  -7.140  0.00  0.00     0.043 A 
ATOM      9  H   UNL d   1      30.120 -14.087  -7.978  0.00  0.00     0.165 HD
ATOM     10  C   UNL d   1      29.187 -11.401  -7.657  0.00  0.00     0.030 A 
ATOM     11  C   UNL d   1      27.728 -12.825  -6.274  0.00  0.00     0.008 A 
ATOM     12  C   UNL d   1      28.461 -10.280  -7.243  0.00  0.00     0.002 A 
ATOM     13  C   UNL d   1      27.377 -10.414  -6.381  0.00  0.00     0.001 A 
ATOM     14  C   UNL d   1      26.990 -11.677  -5.911  0.00  0.00     0.015 A 
ENDBRANCH   2   5
BRANCH   3  15
ATOM     15  N   UNL d   1      25.129 -14.839  -3.239  0.00  0.00    -0.183 NA
ATOM     16  C   UNL d   1      25.466 -15.848  -2.498  0.00  0.00     0.150 C 
BRANCH  16  17
ATOM     17  C   UNL d   1      24.485 -16.559  -1.622  0.00  0.00    -0.017 A 
ATOM     18  C   UNL d   1      23.258 -15.980  -1.271  0.00  0.00     0.015 A 
ATOM     19  C   UNL d   1      22.323 -16.702  -0.507  0.00  0.00     0.037 A 
ATOM     20  C   UNL d   1      22.630 -17.992  -0.080  0.00  0.00     0.065 A 
ATOM     21  C   UNL d   1      23.859 -18.562  -0.394  0.00  0.00     0.037 A 
ATOM     22  C   UNL d   1      24.783 -17.852  -1.174  0.00  0.00     0.015 A 
BRANCH  20  23
ATOM     23  O   UNL d   1      21.757 -18.745   0.650  0.00  0.00    -0.361 OA
ATOM     24  H   UNL d   1      22.207 -19.540   0.980  0.00  0.00     0.217 HD
ENDBRANCH  20  23
ENDBRANCH  16  17
ENDBRANCH   3  15
TORSDOF 4
ENDMDL
MODEL 7
REMARK VINA RESULT:    -6.761      2.404      8.546
REMARK INTER + INTRA:          -8.326
REMARK INTER:                  -7.954
REMARK INTRA:                  -0.372
REMARK CONF_INDEPENDENT:        1.193
REMARK UNBOUND:                -0.372
REMARK  4 active torsions:
REMARK  status: ('A' for Active; 'I' for Inactive)
REMARK       I    between atoms: C_2  and  N_3 
REMARK    1  A    between atoms: C_2  and  C_13 
REMARK    2  A    between atoms: N_3  and  N_4 
REMARK    3  A    between atoms: C_5  and  C_6 
REMARK    4  A    between atoms: C_9  and  O_10 
ROOT
ATOM      1  O   UNL d   1      23.256 -18.575   0.939  0.00  0.00    -0.266 OA
ATOM      2  C   UNL d   1      22.580 -18.095   0.022  0.00  0.00     0.274 C 
ATOM      3  N   UNL d   1      22.959 -16.948  -0.686  0.00  0.00    -0.243 N 
ATOM      4  H   UNL d   1      22.322 -16.519  -1.346  0.00  0.00     0.192 HD
ENDROOT
BRANCH   2   5
ATOM      5  C   UNL d   1      21.307 -18.730  -0.358  0.00  0.00     0.061 A 
ATOM      6  C   UNL d   1      20.793 -18.885  -1.637  0.00  0.00     0.106 A 
ATOM      7  N   UNL d   1      19.686 -19.700  -1.571  0.00  0.00    -0.364 N 
ATOM      8  C   UNL d   1      19.396 -20.015  -0.263  0.00  0.00     0.043 A 
ATOM      9  H   UNL d   1      19.155 -20.037  -2.364  0.00  0.00     0.165 HD
ATOM     10  C   UNL d   1      18.345 -20.774   0.279  0.00  0.00     0.030 A 
ATOM     11  C   UNL d   1      20.395 -19.429   0.519  0.00  0.00     0.008 A 
ATOM     12  C   UNL d   1      18.286 -20.907   1.670  0.00  0.00     0.002 A 
ATOM     13  C   UNL d   1      19.264 -20.338   2.480  0.00  0.00     0.001 A 
ATOM     14  C   UNL d   1      20.329 -19.620   1.917  0.00  0.00     0.015 A 
ENDBRANCH   2   5
BRANCH   3  15
ATOM     15  N   UNL d   1      24.179 -16.346  -0.398  0.00  0.00    -0.183 NA
ATOM     16  C   UNL d   1      25.264 -17.035  -0.569  0.00  0.00     0.150 C 
BRANCH  16  17
ATOM     17  C   UNL d   1      26.620 -16.472  -0.291  0.00  0.00    -0.017 A 
ATOM     18  C   UNL d   1      27.770 -17.272  -0.329  0.00  0.00     0.015 A 
ATOM     19  C   UNL d   1      29.042 -16.701  -0.137  0.00  0.00     0.037 A 
ATOM     20  C   UNL d   1      29.154 -15.336   0.116  0.00  0.00     0.065 A 
ATOM     21  C   UNL d   1      28.016 -14.540   0.189  0.00  0.00     0.037 A 
ATOM     22  C   UNL d   1      26.750 -15.103  -0.024  0.00  0.00     0.015 A 
BRANCH  20  23
ATOM     23  O   UNL d   1      30.360 -14.724   0.294  0.00  0.00    -0.361 OA
ATOM     24  H   UNL d   1      31.074 -15.377   0.208  0.00  0.00     0.217 HD
ENDBRANCH  20  23
ENDBRANCH  16  17
ENDBRANCH   3  15
TORSDOF 4
ENDMDL
MODEL 8
REMARK VINA RESULT:    -6.322      3.939      5.666
REMARK INTER + INTRA:          -7.897
REMARK INTER:                  -7.515
REMARK INTRA:                  -0.382
REMARK CONF_INDEPENDENT:        1.193
REMARK UNBOUND:                -0.382
REMARK  4 active torsions:
REMARK  status: ('A' for Active; 'I' for Inactive)
REMARK       I    between atoms: C_2  and  N_3 
REMARK    1  A    between atoms: C_2  and  C_13 
REMARK    2  A    between atoms: N_3  and  N_4 
REMARK    3  A    between atoms: C_5  and  C_6 
REMARK    4  A    between atoms: C_9  and  O_10 
ROOT
ATOM      1  O   UNL d   1      28.623 -16.782  -1.878  0.00  0.00    -0.266 OA
ATOM      2  C   UNL d   1      28.970 -16.915  -0.699  0.00  0.00     0.274 C 
ATOM      3  N   UNL d   1      28.069 -16.873   0.372  0.00  0.00    -0.243 N 
ATOM      4  H   UNL d   1      28.406 -16.866   1.327  0.00  0.00     0.192 HD
ENDROOT
BRANCH   2   5
ATOM      5  C   UNL d   1      30.392 -17.116  -0.374  0.00  0.00     0.061 A 
ATOM      6  C   UNL d   1      31.254 -18.058  -0.918  0.00  0.00     0.106 A 
ATOM      7  N   UNL d   1      32.533 -17.782  -0.492  0.00  0.00    -0.364 N 
ATOM      8  C   UNL d   1      32.529 -16.733   0.399  0.00  0.00     0.043 A 
ATOM      9  H   UNL d   1      33.370 -18.266  -0.790  0.00  0.00     0.165 HD
ATOM     10  C   UNL d   1      33.585 -16.142   1.115  0.00  0.00     0.030 A 
ATOM     11  C   UNL d   1      31.207 -16.291   0.489  0.00  0.00     0.008 A 
ATOM     12  C   UNL d   1      33.276 -15.090   1.983  0.00  0.00     0.002 A 
ATOM     13  C   UNL d   1      31.970 -14.624   2.097  0.00  0.00     0.001 A 
ATOM     14  C   UNL d   1      30.937 -15.199   1.343  0.00  0.00     0.015 A 
ENDBRANCH   2   5
BRANCH   3  15
ATOM     15  N   UNL d   1      26.710 -16.739   0.109  0.00  0.00    -0.183 NA
ATOM     16  C   UNL d   1      25.984 -17.811   0.047  0.00  0.00     0.150 C 
BRANCH  16  17
ATOM     17  C   UNL d   1      24.515 -17.767  -0.226  0.00  0.00    -0.017 A 
ATOM     18  C   UNL d   1      23.858 -16.565  -0.523  0.00  0.00     0.015 A 
ATOM     19  C   UNL d   1      22.489 -16.564  -0.849  0.00  0.00     0.037 A 
ATOM     20  C   UNL d   1      21.780 -17.763  -0.854  0.00  0.00     0.065 A 
ATOM     21  C   UNL d   1      22.415 -18.956  -0.528  0.00  0.00     0.037 A 
ATOM     22  C   UNL d   1      23.784 -18.962  -0.225  0.00  0.00     0.015 A 
BRANCH  20  23
ATOM     23  O   UNL d   1      20.456 -17.825  -1.178  0.00  0.00    -0.361 OA
ATOM     24  H   UNL d   1      20.209 -17.042  -1.696  0.00  0.00     0.217 HD
ENDBRANCH  20  23
ENDBRANCH  16  17
ENDBRANCH   3  15
TORSDOF 4
ENDMDL
MODEL 9
REMARK VINA RESULT:    -6.313      4.069      5.735
REMARK INTER + INTRA:          -7.869
REMARK INTER:                  -7.506
REMARK INTRA:                  -0.363
REMARK CONF_INDEPENDENT:        1.193
REMARK UNBOUND:                -0.363
REMARK  4 active torsions:
REMARK  status: ('A' for Active; 'I' for Inactive)
REMARK       I    between atoms: C_2  and  N_3 
REMARK    1  A    between atoms: C_2  and  C_13 
REMARK    2  A    between atoms: N_3  and  N_4 
REMARK    3  A    between atoms: C_5  and  C_6 
REMARK    4  A    between atoms: C_9  and  O_10 
ROOT
ATOM      1  O   UNL d   1      27.590 -13.776   1.383  0.00  0.00    -0.266 OA
ATOM      2  C   UNL d   1      28.291 -14.791   1.307  0.00  0.00     0.274 C 
ATOM      3  N   UNL d   1      27.792 -16.035   0.903  0.00  0.00    -0.243 N 
ATOM      4  H   UNL d   1      28.369 -16.866   0.970  0.00  0.00     0.192 HD
ENDROOT
BRANCH   2   5
ATOM      5  C   UNL d   1      29.718 -14.722   1.665  0.00  0.00     0.061 A 
ATOM      6  C   UNL d   1      30.272 -14.173   2.812  0.00  0.00     0.106 A 
ATOM      7  N   UNL d   1      31.611 -14.489   2.850  0.00  0.00    -0.364 N 
ATOM      8  C   UNL d   1      31.981 -15.155   1.704  0.00  0.00     0.043 A 
ATOM      9  H   UNL d   1      32.245 -14.276   3.608  0.00  0.00     0.165 HD
ATOM     10  C   UNL d   1      33.240 -15.627   1.291  0.00  0.00     0.030 A 
ATOM     11  C   UNL d   1      30.819 -15.322   0.946  0.00  0.00     0.008 A 
ATOM     12  C   UNL d   1      33.324 -16.255   0.045  0.00  0.00     0.002 A 
ATOM     13  C   UNL d   1      32.187 -16.439  -0.736  0.00  0.00     0.001 A 
ATOM     14  C   UNL d   1      30.933 -15.999  -0.288  0.00  0.00     0.015 A 
ENDBRANCH   2   5
BRANCH   3  15
ATOM     15  N   UNL d   1      26.464 -16.136   0.505  0.00  0.00    -0.183 NA
ATOM     16  C   UNL d   1      25.987 -17.311   0.235  0.00  0.00     0.150 C 
BRANCH  16  17
ATOM     17  C   UNL d   1      24.571 -17.519  -0.197  0.00  0.00    -0.017 A 
ATOM     18  C   UNL d   1      23.993 -18.795  -0.232  0.00  0.00     0.015 A 
ATOM     19  C   UNL d   1      22.637 -18.954  -0.571  0.00  0.00     0.037 A 
ATOM     20  C   UNL d   1      21.871 -17.835  -0.893  0.00  0.00     0.065 A 
ATOM     21  C   UNL d   1      22.445 -16.568  -0.894  0.00  0.00     0.037 A 
ATOM     22  C   UNL d   1      23.790 -16.406  -0.535  0.00  0.00     0.015 A 
BRANCH  20  23
ATOM     23  O   UNL d   1      20.548 -17.925  -1.213  0.00  0.00    -0.361 OA
ATOM     24  H   UNL d   1      20.321 -17.241  -1.864  0.00  0.00     0.217 HD
ENDBRANCH  20  23
ENDBRANCH  16  17
ENDBRANCH   3  15
TORSDOF 4
ENDMDL
