MODEL 1
REMARK VINA RESULT:   -11.323      0.000      0.000
REMARK INTER + INTRA:         -16.686
REMARK INTER:                 -14.903
REMARK INTRA:                  -1.783
REMARK CONF_INDEPENDENT:        3.580
REMARK UNBOUND:                -1.783
REMARK  12 active torsions:
REMARK  status: ('A' for Active; 'I' for Inactive)
REMARK    1  A    between atoms: C_2  and  C_3 
REMARK       I    between atoms: C_2  and  N_12 
REMARK    2  A    between atoms: C_6  and  N_7 
REMARK    3  A    between atoms: C_14  and  N_15 
REMARK    4  A    between atoms: N_15  and  C_16 
REMARK    5  A    between atoms: C_16  and  C_17 
REMARK    6  A    between atoms: C_17  and  C_18 
REMARK    7  A    between atoms: C_18  and  C_19 
REMARK    8  A    between atoms: C_26  and  N_27 
REMARK    9  A    between atoms: N_27  and  C_28 
REMARK   10  A    between atoms: C_28  and  C_29 
REMARK   11  A    between atoms: C_29  and  C_30 
REMARK   12  A    between atoms: C_30  and  C_31 
ROOT
ATOM      1  O   UNL d   1      29.322 -13.679  -0.798  0.00  0.00    -0.265 OA
ATOM      2  C   UNL d   1      28.332 -13.875  -0.077  0.00  0.00     0.295 C 
ATOM      3  N   UNL d   1      27.775 -15.193   0.019  0.00  0.00    -0.006 N 
ATOM      4  N   UNL d   1      26.404 -15.427   0.118  0.00  0.00     0.044 NA
ATOM      5  C   UNL d   1      26.321 -16.774   0.173  0.00  0.00     0.755 A 
ATOM      6  N   UNL d   1      27.537 -17.386   0.192  0.00  0.00     0.131 NA
ATOM      7  C   UNL d   1      28.429 -16.425   0.105  0.00  0.00     0.742 A 
ENDROOT
BRANCH   2   8
ATOM      8  C   UNL d   1      27.872 -12.672   0.641  0.00  0.00     0.035 C 
ATOM      9  C   UNL d   1      27.578 -12.784   1.994  0.00  0.00     0.019 C 
ATOM     10  C   UNL d   1      26.912 -11.745   2.635  0.00  0.00     0.037 C 
ATOM     11  C   UNL d   1      26.683 -10.536   1.962  0.00  0.00     0.102 C 
ATOM     12  C   UNL d   1      27.133 -10.354   0.649  0.00  0.00     0.037 C 
ATOM     13  C   UNL d   1      27.757 -11.422  -0.006  0.00  0.00     0.019 C 
BRANCH  11  14
ATOM     14  N   UNL d   1      25.998  -9.450   2.672  0.00  0.00    -0.116 N 
ATOM     15  O   UNL d   1      26.631  -8.844   3.542  0.00  0.00    -0.532 OA
ATOM     16  O   UNL d   1      24.824  -9.199   2.347  0.00  0.00    -0.532 OA
ENDBRANCH  11  14
ENDBRANCH   2   8
BRANCH   7  17
ATOM     17  N   UNL d   1      29.761 -16.652   0.230  0.00  0.00    -0.222 N 
ATOM     18  H   UNL d   1      30.098 -16.857   1.166  0.00  0.00     0.177 HD
BRANCH  17  19
ATOM     19  C   UNL d   1      30.690 -16.823  -0.865  0.00  0.00     0.138 C 
BRANCH  19  20
ATOM     20  C   UNL d   1      30.344 -15.930  -2.029  0.00  0.00     0.025 C 
BRANCH  20  21
ATOM     21  C   UNL d   1      29.602 -16.711  -3.120  0.00  0.00     0.040 C 
BRANCH  21  22
ATOM     22  C   UNL d   1      28.432 -15.947  -3.686  0.00  0.00    -0.058 A 
ATOM     23  C   UNL d   1      28.460 -15.421  -4.987  0.00  0.00     0.007 A 
ATOM     24  C   UNL d   1      27.449 -14.590  -5.448  0.00  0.00     0.001 A 
ATOM     25  C   UNL d   1      26.345 -14.341  -4.645  0.00  0.00     0.000 A 
ATOM     26  C   UNL d   1      26.277 -14.888  -3.364  0.00  0.00     0.001 A 
ATOM     27  C   UNL d   1      27.322 -15.676  -2.878  0.00  0.00     0.007 A 
ENDBRANCH  21  22
ENDBRANCH  20  21
ENDBRANCH  19  20
ENDBRANCH  17  19
ENDBRANCH   7  17
BRANCH   5  28
ATOM     28  N   UNL d   1      25.195 -17.552   0.239  0.00  0.00    -0.221 N 
ATOM     29  H   UNL d   1      25.077 -18.198   1.009  0.00  0.00     0.177 HD
BRANCH  28  30
ATOM     30  C   UNL d   1      24.108 -17.512  -0.775  0.00  0.00     0.138 C 
BRANCH  30  31
ATOM     31  C   UNL d   1      22.672 -17.629  -0.191  0.00  0.00     0.025 C 
BRANCH  31  32
ATOM     32  C   UNL d   1      21.709 -18.551  -1.010  0.00  0.00     0.040 C 
BRANCH  32  33
ATOM     33  C   UNL d   1      20.589 -19.207  -0.203  0.00  0.00    -0.058 A 
ATOM     34  C   UNL d   1      20.655 -19.331   1.192  0.00  0.00     0.007 A 
ATOM     35  C   UNL d   1      19.703 -20.066   1.901  0.00  0.00     0.001 A 
ATOM     36  C   UNL d   1      18.601 -20.599   1.245  0.00  0.00     0.000 A 
ATOM     37  C   UNL d   1      18.470 -20.425  -0.131  0.00  0.00     0.001 A 
ATOM     38  C   UNL d   1      19.458 -19.737  -0.852  0.00  0.00     0.007 A 
ENDBRANCH  32  33
ENDBRANCH  31  32
ENDBRANCH  30  31
ENDBRANCH  28  30
ENDBRANCH   5  28
TORSDOF 12
ENDMDL
MODEL 2
REMARK VINA RESULT:   -11.077      2.249      4.295
REMARK INTER + INTRA:         -16.446
REMARK INTER:                 -14.657
REMARK INTRA:                  -1.789
REMARK CONF_INDEPENDENT:        3.580
REMARK UNBOUND:                -1.789
REMARK  12 active torsions:
REMARK  status: ('A' for Active; 'I' for Inactive)
REMARK    1  A    between atoms: C_2  and  C_3 
REMARK       I    between atoms: C_2  and  N_12 
REMARK    2  A    between atoms: C_6  and  N_7 
REMARK    3  A    between atoms: C_14  and  N_15 
REMARK    4  A    between atoms: N_15  and  C_16 
REMARK    5  A    between atoms: C_16  and  C_17 
REMARK    6  A    between atoms: C_17  and  C_18 
REMARK    7  A    between atoms: C_18  and  C_19 
REMARK    8  A    between atoms: C_26  and  N_27 
REMARK    9  A    between atoms: N_27  and  C_28 
REMARK   10  A    between atoms: C_28  and  C_29 
REMARK   11  A    between atoms: C_29  and  C_30 
REMARK   12  A    between atoms: C_30  and  C_31 
ROOT
ATOM      1  O   UNL d   1      29.552 -13.044  -0.558  0.00  0.00    -0.265 OA
ATOM      2  C   UNL d   1      28.495 -13.347   0.017  0.00  0.00     0.295 C 
ATOM      3  N   UNL d   1      28.155 -14.729   0.191  0.00  0.00    -0.006 N 
ATOM      4  N   UNL d   1      26.845 -15.201   0.101  0.00  0.00     0.044 NA
ATOM      5  C   UNL d   1      26.977 -16.528   0.314  0.00  0.00     0.755 A 
ATOM      6  N   UNL d   1      28.254 -16.901   0.605  0.00  0.00     0.131 NA
ATOM      7  C   UNL d   1      28.977 -15.805   0.537  0.00  0.00     0.742 A 
ENDROOT
BRANCH   2   8
ATOM      8  C   UNL d   1      27.722 -12.184   0.492  0.00  0.00     0.035 C 
ATOM      9  C   UNL d   1      27.849 -10.984  -0.196  0.00  0.00     0.019 C 
ATOM     10  C   UNL d   1      27.337  -9.819   0.366  0.00  0.00     0.037 C 
ATOM     11  C   UNL d   1      26.564  -9.884   1.534  0.00  0.00     0.102 C 
ATOM     12  C   UNL d   1      26.285 -11.116   2.139  0.00  0.00     0.037 C 
ATOM     13  C   UNL d   1      26.847 -12.277   1.595  0.00  0.00     0.019 C 
BRANCH  11  14
ATOM     14  N   UNL d   1      26.017  -8.641   2.091  0.00  0.00    -0.116 N 
ATOM     15  O   UNL d   1      25.218  -8.004   1.398  0.00  0.00    -0.532 OA
ATOM     16  O   UNL d   1      26.385  -8.310   3.232  0.00  0.00    -0.532 OA
ENDBRANCH  11  14
ENDBRANCH   2   8
BRANCH   7  17
ATOM     17  N   UNL d   1      30.284 -15.770   0.900  0.00  0.00    -0.222 N 
ATOM     18  H   UNL d   1      30.694 -16.651   1.196  0.00  0.00     0.177 HD
BRANCH  17  19
ATOM     19  C   UNL d   1      31.177 -14.649   0.712  0.00  0.00     0.138 C 
BRANCH  19  20
ATOM     20  C   UNL d   1      31.153 -13.717   1.895  0.00  0.00     0.025 C 
BRANCH  20  21
ATOM     21  C   UNL d   1      30.886 -14.485   3.195  0.00  0.00     0.040 C 
BRANCH  21  22
ATOM     22  C   UNL d   1      29.697 -13.947   3.953  0.00  0.00    -0.058 A 
ATOM     23  C   UNL d   1      29.831 -12.897   4.874  0.00  0.00     0.007 A 
ATOM     24  C   UNL d   1      28.770 -12.509   5.680  0.00  0.00     0.001 A 
ATOM     25  C   UNL d   1      27.529 -13.108   5.515  0.00  0.00     0.000 A 
ATOM     26  C   UNL d   1      27.364 -14.125   4.576  0.00  0.00     0.001 A 
ATOM     27  C   UNL d   1      28.446 -14.555   3.807  0.00  0.00     0.007 A 
ENDBRANCH  21  22
ENDBRANCH  20  21
ENDBRANCH  19  20
ENDBRANCH  17  19
ENDBRANCH   7  17
BRANCH   5  28
ATOM     28  N   UNL d   1      26.001 -17.489   0.300  0.00  0.00    -0.221 N 
ATOM     29  H   UNL d   1      26.163 -18.375   0.763  0.00  0.00     0.177 HD
BRANCH  28  30
ATOM     30  C   UNL d   1      24.685 -17.316  -0.371  0.00  0.00     0.138 C 
BRANCH  30  31
ATOM     31  C   UNL d   1      23.611 -18.367   0.025  0.00  0.00     0.025 C 
BRANCH  31  32
ATOM     32  C   UNL d   1      22.393 -18.454  -0.952  0.00  0.00     0.040 C 
BRANCH  32  33
ATOM     33  C   UNL d   1      21.129 -19.084  -0.367  0.00  0.00    -0.058 A 
ATOM     34  C   UNL d   1      20.029 -19.417  -1.169  0.00  0.00     0.007 A 
ATOM     35  C   UNL d   1      18.825 -19.849  -0.607  0.00  0.00     0.001 A 
ATOM     36  C   UNL d   1      18.731 -20.064   0.762  0.00  0.00     0.000 A 
ATOM     37  C   UNL d   1      19.835 -19.815   1.574  0.00  0.00     0.001 A 
ATOM     38  C   UNL d   1      21.025 -19.325   1.016  0.00  0.00     0.007 A 
ENDBRANCH  32  33
ENDBRANCH  31  32
ENDBRANCH  30  31
ENDBRANCH  28  30
ENDBRANCH   5  28
TORSDOF 12
ENDMDL
MODEL 3
REMARK VINA RESULT:   -10.904      3.469      8.433
REMARK INTER + INTRA:         -16.894
REMARK INTER:                 -14.484
REMARK INTRA:                  -2.410
REMARK CONF_INDEPENDENT:        3.580
REMARK UNBOUND:                -2.410
REMARK  12 active torsions:
REMARK  status: ('A' for Active; 'I' for Inactive)
REMARK    1  A    between atoms: C_2  and  C_3 
REMARK       I    between atoms: C_2  and  N_12 
REMARK    2  A    between atoms: C_6  and  N_7 
REMARK    3  A    between atoms: C_14  and  N_15 
REMARK    4  A    between atoms: N_15  and  C_16 
REMARK    5  A    between atoms: C_16  and  C_17 
REMARK    6  A    between atoms: C_17  and  C_18 
REMARK    7  A    between atoms: C_18  and  C_19 
REMARK    8  A    between atoms: C_26  and  N_27 
REMARK    9  A    between atoms: N_27  and  C_28 
REMARK   10  A    between atoms: C_28  and  C_29 
REMARK   11  A    between atoms: C_29  and  C_30 
REMARK   12  A    between atoms: C_30  and  C_31 
ROOT
ATOM      1  O   UNL d   1      25.553 -14.791  -0.268  0.00  0.00    -0.265 OA
ATOM      2  C   UNL d   1      25.855 -15.993  -0.315  0.00  0.00     0.295 C 
ATOM      3  N   UNL d   1      27.224 -16.387  -0.142  0.00  0.00    -0.006 N 
ATOM      4  N   UNL d   1      27.800 -17.441  -0.850  0.00  0.00     0.044 NA
ATOM      5  C   UNL d   1      29.073 -17.460  -0.399  0.00  0.00     0.755 A 
ATOM      6  N   UNL d   1      29.307 -16.549   0.585  0.00  0.00     0.131 NA
ATOM      7  C   UNL d   1      28.179 -15.895   0.751  0.00  0.00     0.742 A 
ENDROOT
BRANCH   2   8
ATOM      8  C   UNL d   1      24.701 -16.889  -0.514  0.00  0.00     0.035 C 
ATOM      9  C   UNL d   1      23.500 -16.331  -0.935  0.00  0.00     0.019 C 
ATOM     10  C   UNL d   1      22.341 -17.099  -0.892  0.00  0.00     0.037 C 
ATOM     11  C   UNL d   1      22.413 -18.464  -0.579  0.00  0.00     0.102 C 
ATOM     12  C   UNL d   1      23.648 -19.074  -0.324  0.00  0.00     0.037 C 
ATOM     13  C   UNL d   1      24.803 -18.283  -0.319  0.00  0.00     0.019 C 
BRANCH  11  14
ATOM     14  N   UNL d   1      21.175 -19.253  -0.564  0.00  0.00    -0.116 N 
ATOM     15  O   UNL d   1      20.764 -19.695  -1.641  0.00  0.00    -0.532 OA
ATOM     16  O   UNL d   1      20.623 -19.436   0.534  0.00  0.00    -0.532 OA
ENDBRANCH  11  14
ENDBRANCH   2   8
BRANCH   7  17
ATOM     17  N   UNL d   1      27.998 -14.994   1.750  0.00  0.00    -0.222 N 
ATOM     18  H   UNL d   1      28.475 -15.189   2.625  0.00  0.00     0.177 HD
BRANCH  17  19
ATOM     19  C   UNL d   1      27.360 -13.705   1.612  0.00  0.00     0.138 C 
BRANCH  19  20
ATOM     20  C   UNL d   1      27.466 -12.896   2.879  0.00  0.00     0.025 C 
BRANCH  20  21
ATOM     21  C   UNL d   1      27.034 -13.722   4.096  0.00  0.00     0.040 C 
BRANCH  21  22
ATOM     22  C   UNL d   1      27.977 -13.572   5.264  0.00  0.00    -0.058 A 
ATOM     23  C   UNL d   1      29.005 -14.498   5.500  0.00  0.00     0.007 A 
ATOM     24  C   UNL d   1      29.770 -14.444   6.656  0.00  0.00     0.001 A 
ATOM     25  C   UNL d   1      29.578 -13.405   7.556  0.00  0.00     0.000 A 
ATOM     26  C   UNL d   1      28.591 -12.450   7.321  0.00  0.00     0.001 A 
ATOM     27  C   UNL d   1      27.781 -12.538   6.187  0.00  0.00     0.007 A 
ENDBRANCH  21  22
ENDBRANCH  20  21
ENDBRANCH  19  20
ENDBRANCH  17  19
ENDBRANCH   7  17
BRANCH   5  28
ATOM     28  N   UNL d   1      30.098 -18.280  -0.790  0.00  0.00    -0.221 N 
ATOM     29  H   UNL d   1      30.391 -19.039  -0.186  0.00  0.00     0.177 HD
BRANCH  28  30
ATOM     30  C   UNL d   1      30.833 -18.125  -2.073  0.00  0.00     0.138 C 
BRANCH  30  31
ATOM     31  C   UNL d   1      30.629 -16.753  -2.776  0.00  0.00     0.025 C 
BRANCH  31  32
ATOM     32  C   UNL d   1      29.403 -16.693  -3.744  0.00  0.00     0.040 C 
BRANCH  32  33
ATOM     33  C   UNL d   1      28.407 -15.567  -3.469  0.00  0.00    -0.058 A 
ATOM     34  C   UNL d   1      28.640 -14.595  -2.486  0.00  0.00     0.007 A 
ATOM     35  C   UNL d   1      27.659 -13.664  -2.138  0.00  0.00     0.001 A 
ATOM     36  C   UNL d   1      26.463 -13.613  -2.843  0.00  0.00     0.000 A 
ATOM     37  C   UNL d   1      26.237 -14.517  -3.878  0.00  0.00     0.001 A 
ATOM     38  C   UNL d   1      27.199 -15.490  -4.188  0.00  0.00     0.007 A 
ENDBRANCH  32  33
ENDBRANCH  31  32
ENDBRANCH  30  31
ENDBRANCH  28  30
ENDBRANCH   5  28
TORSDOF 12
ENDMDL
MODEL 4
REMARK VINA RESULT:   -10.741      3.022      7.109
REMARK INTER + INTRA:         -16.503
REMARK INTER:                 -14.321
REMARK INTRA:                  -2.183
REMARK CONF_INDEPENDENT:        3.580
REMARK UNBOUND:                -2.183
REMARK  12 active torsions:
REMARK  status: ('A' for Active; 'I' for Inactive)
REMARK    1  A    between atoms: C_2  and  C_3 
REMARK       I    between atoms: C_2  and  N_12 
REMARK    2  A    between atoms: C_6  and  N_7 
REMARK    3  A    between atoms: C_14  and  N_15 
REMARK    4  A    between atoms: N_15  and  C_16 
REMARK    5  A    between atoms: C_16  and  C_17 
REMARK    6  A    between atoms: C_17  and  C_18 
REMARK    7  A    between atoms: C_18  and  C_19 
REMARK    8  A    between atoms: C_26  and  N_27 
REMARK    9  A    between atoms: N_27  and  C_28 
REMARK   10  A    between atoms: C_28  and  C_29 
REMARK   11  A    between atoms: C_29  and  C_30 
REMARK   12  A    between atoms: C_30  and  C_31 
ROOT
ATOM      1  O   UNL d   1      26.859 -13.341   0.163  0.00  0.00    -0.265 OA
ATOM      2  C   UNL d   1      27.579 -12.786   1.007  0.00  0.00     0.295 C 
ATOM      3  N   UNL d   1      28.634 -13.526   1.635  0.00  0.00    -0.006 N 
ATOM      4  N   UNL d   1      28.980 -13.356   2.975  0.00  0.00     0.044 NA
ATOM      5  C   UNL d   1      29.990 -14.236   3.150  0.00  0.00     0.755 A 
ATOM      6  N   UNL d   1      30.345 -14.880   2.005  0.00  0.00     0.131 NA
ATOM      7  C   UNL d   1      29.524 -14.446   1.074  0.00  0.00     0.742 A 
ENDROOT
BRANCH   2   8
ATOM      8  C   UNL d   1      27.251 -11.365   1.225  0.00  0.00     0.035 C 
ATOM      9  C   UNL d   1      26.807 -10.978   2.484  0.00  0.00     0.019 C 
ATOM     10  C   UNL d   1      26.257  -9.711   2.652  0.00  0.00     0.037 C 
ATOM     11  C   UNL d   1      26.298  -8.782   1.602  0.00  0.00     0.102 C 
ATOM     12  C   UNL d   1      26.903  -9.109   0.382  0.00  0.00     0.037 C 
ATOM     13  C   UNL d   1      27.408 -10.403   0.204  0.00  0.00     0.019 C 
BRANCH  11  14
ATOM     14  N   UNL d   1      25.731  -7.446   1.817  0.00  0.00    -0.116 N 
ATOM     15  O   UNL d   1      24.958  -7.005   0.960  0.00  0.00    -0.532 OA
ATOM     16  O   UNL d   1      26.055  -6.843   2.854  0.00  0.00    -0.532 OA
ENDBRANCH  11  14
ENDBRANCH   2   8
BRANCH   7  17
ATOM     17  N   UNL d   1      29.667 -14.773  -0.235  0.00  0.00    -0.222 N 
ATOM     18  H   UNL d   1      30.585 -14.618  -0.641  0.00  0.00     0.177 HD
BRANCH  17  19
ATOM     19  C   UNL d   1      28.700 -15.495  -1.031  0.00  0.00     0.138 C 
BRANCH  19  20
ATOM     20  C   UNL d   1      28.471 -16.885  -0.496  0.00  0.00     0.025 C 
BRANCH  20  21
ATOM     21  C   UNL d   1      27.358 -16.892   0.559  0.00  0.00     0.040 C 
BRANCH  21  22
ATOM     22  C   UNL d   1      25.995 -17.143  -0.038  0.00  0.00    -0.058 A 
ATOM     23  C   UNL d   1      25.333 -16.162  -0.792  0.00  0.00     0.007 A 
ATOM     24  C   UNL d   1      24.021 -16.338  -1.207  0.00  0.00     0.001 A 
ATOM     25  C   UNL d   1      23.377 -17.541  -0.951  0.00  0.00     0.000 A 
ATOM     26  C   UNL d   1      24.031 -18.546  -0.240  0.00  0.00     0.001 A 
ATOM     27  C   UNL d   1      25.331 -18.345   0.229  0.00  0.00     0.007 A 
ENDBRANCH  21  22
ENDBRANCH  20  21
ENDBRANCH  19  20
ENDBRANCH  17  19
ENDBRANCH   7  17
BRANCH   5  28
ATOM     28  N   UNL d   1      30.682 -14.513   4.300  0.00  0.00    -0.221 N 
ATOM     29  H   UNL d   1      31.695 -14.512   4.287  0.00  0.00     0.177 HD
BRANCH  28  30
ATOM     30  C   UNL d   1      30.030 -14.829   5.597  0.00  0.00     0.138 C 
BRANCH  30  31
ATOM     31  C   UNL d   1      28.520 -15.185   5.495  0.00  0.00     0.025 C 
BRANCH  31  32
ATOM     32  C   UNL d   1      27.560 -13.951   5.469  0.00  0.00     0.040 C 
BRANCH  32  33
ATOM     33  C   UNL d   1      28.068 -12.712   6.204  0.00  0.00    -0.058 A 
ATOM     34  C   UNL d   1      28.255 -11.487   5.549  0.00  0.00     0.007 A 
ATOM     35  C   UNL d   1      28.863 -10.405   6.191  0.00  0.00     0.001 A 
ATOM     36  C   UNL d   1      29.195 -10.489   7.537  0.00  0.00     0.000 A 
ATOM     37  C   UNL d   1      28.949 -11.670   8.233  0.00  0.00     0.001 A 
ATOM     38  C   UNL d   1      28.393 -12.776   7.573  0.00  0.00     0.007 A 
ENDBRANCH  32  33
ENDBRANCH  31  32
ENDBRANCH  30  31
ENDBRANCH  28  30
ENDBRANCH   5  28
TORSDOF 12
ENDMDL
MODEL 5
REMARK VINA RESULT:   -10.616      3.366      7.947
REMARK INTER + INTRA:         -16.724
REMARK INTER:                 -14.196
REMARK INTRA:                  -2.528
REMARK CONF_INDEPENDENT:        3.580
REMARK UNBOUND:                -2.528
REMARK  12 active torsions:
REMARK  status: ('A' for Active; 'I' for Inactive)
REMARK    1  A    between atoms: C_2  and  C_3 
REMARK       I    between atoms: C_2  and  N_12 
REMARK    2  A    between atoms: C_6  and  N_7 
REMARK    3  A    between atoms: C_14  and  N_15 
REMARK    4  A    between atoms: N_15  and  C_16 
REMARK    5  A    between atoms: C_16  and  C_17 
REMARK    6  A    between atoms: C_17  and  C_18 
REMARK    7  A    between atoms: C_18  and  C_19 
REMARK    8  A    between atoms: C_26  and  N_27 
REMARK    9  A    between atoms: N_27  and  C_28 
REMARK   10  A    between atoms: C_28  and  C_29 
REMARK   11  A    between atoms: C_29  and  C_30 
REMARK   12  A    between atoms: C_30  and  C_31 
ROOT
ATOM      1  O   UNL d   1      25.549 -14.884  -0.671  0.00  0.00    -0.265 OA
ATOM      2  C   UNL d   1      25.826 -16.090  -0.577  0.00  0.00     0.295 C 
ATOM      3  N   UNL d   1      27.188 -16.490  -0.371  0.00  0.00    -0.006 N 
ATOM      4  N   UNL d   1      27.734 -17.633  -0.953  0.00  0.00     0.044 NA
ATOM      5  C   UNL d   1      29.011 -17.626  -0.515  0.00  0.00     0.755 A 
ATOM      6  N   UNL d   1      29.276 -16.610   0.352  0.00  0.00     0.131 NA
ATOM      7  C   UNL d   1      28.163 -15.916   0.449  0.00  0.00     0.742 A 
ENDROOT
BRANCH   2   8
ATOM      8  C   UNL d   1      24.651 -16.977  -0.657  0.00  0.00     0.035 C 
ATOM      9  C   UNL d   1      23.437 -16.427  -1.048  0.00  0.00     0.019 C 
ATOM     10  C   UNL d   1      22.271 -17.172  -0.895  0.00  0.00     0.037 C 
ATOM     11  C   UNL d   1      22.343 -18.516  -0.501  0.00  0.00     0.102 C 
ATOM     12  C   UNL d   1      23.582 -19.128  -0.273  0.00  0.00     0.037 C 
ATOM     13  C   UNL d   1      24.745 -18.358  -0.380  0.00  0.00     0.019 C 
BRANCH  11  14
ATOM     14  N   UNL d   1      21.098 -19.282  -0.370  0.00  0.00    -0.116 N 
ATOM     15  O   UNL d   1      20.572 -19.702  -1.404  0.00  0.00    -0.532 OA
ATOM     16  O   UNL d   1      20.655 -19.469   0.777  0.00  0.00    -0.532 OA
ENDBRANCH  11  14
ENDBRANCH   2   8
BRANCH   7  17
ATOM     17  N   UNL d   1      28.013 -14.899   1.334  0.00  0.00    -0.222 N 
ATOM     18  H   UNL d   1      28.229 -15.110   2.304  0.00  0.00     0.177 HD
BRANCH  17  19
ATOM     19  C   UNL d   1      27.770 -13.516   0.991  0.00  0.00     0.138 C 
BRANCH  19  20
ATOM     20  C   UNL d   1      28.284 -13.190  -0.388  0.00  0.00     0.025 C 
BRANCH  20  21
ATOM     21  C   UNL d   1      27.210 -12.481  -1.221  0.00  0.00     0.040 C 
BRANCH  21  22
ATOM     22  C   UNL d   1      26.818 -13.264  -2.449  0.00  0.00    -0.058 A 
ATOM     23  C   UNL d   1      25.598 -13.037  -3.104  0.00  0.00     0.007 A 
ATOM     24  C   UNL d   1      25.172 -13.861  -4.136  0.00  0.00     0.001 A 
ATOM     25  C   UNL d   1      26.003 -14.875  -4.591  0.00  0.00     0.000 A 
ATOM     26  C   UNL d   1      27.238 -15.091  -3.983  0.00  0.00     0.001 A 
ATOM     27  C   UNL d   1      27.641 -14.300  -2.906  0.00  0.00     0.007 A 
ENDBRANCH  21  22
ENDBRANCH  20  21
ENDBRANCH  19  20
ENDBRANCH  17  19
ENDBRANCH   7  17
BRANCH   5  28
ATOM     28  N   UNL d   1      30.015 -18.510  -0.814  0.00  0.00    -0.221 N 
ATOM     29  H   UNL d   1      30.269 -19.225  -0.144  0.00  0.00     0.177 HD
BRANCH  28  30
ATOM     30  C   UNL d   1      30.780 -18.485  -2.089  0.00  0.00     0.138 C 
BRANCH  30  31
ATOM     31  C   UNL d   1      30.802 -17.105  -2.806  0.00  0.00     0.025 C 
BRANCH  31  32
ATOM     32  C   UNL d   1      29.908 -17.023  -4.087  0.00  0.00     0.040 C 
BRANCH  32  33
ATOM     33  C   UNL d   1      30.406 -17.830  -5.284  0.00  0.00    -0.058 A 
ATOM     34  C   UNL d   1      30.847 -17.212  -6.463  0.00  0.00     0.007 A 
ATOM     35  C   UNL d   1      31.154 -17.958  -7.603  0.00  0.00     0.001 A 
ATOM     36  C   UNL d   1      31.133 -19.347  -7.556  0.00  0.00     0.000 A 
ATOM     37  C   UNL d   1      30.773 -19.988  -6.374  0.00  0.00     0.001 A 
ATOM     38  C   UNL d   1      30.407 -19.238  -5.246  0.00  0.00     0.007 A 
ENDBRANCH  32  33
ENDBRANCH  31  32
ENDBRANCH  30  31
ENDBRANCH  28  30
ENDBRANCH   5  28
TORSDOF 12
ENDMDL
MODEL 6
REMARK VINA RESULT:   -10.427      3.339      7.202
REMARK INTER + INTRA:         -16.965
REMARK INTER:                 -14.007
REMARK INTRA:                  -2.958
REMARK CONF_INDEPENDENT:        3.580
REMARK UNBOUND:                -2.958
REMARK  12 active torsions:
REMARK  status: ('A' for Active; 'I' for Inactive)
REMARK    1  A    between atoms: C_2  and  C_3 
REMARK       I    between atoms: C_2  and  N_12 
REMARK    2  A    between atoms: C_6  and  N_7 
REMARK    3  A    between atoms: C_14  and  N_15 
REMARK    4  A    between atoms: N_15  and  C_16 
REMARK    5  A    between atoms: C_16  and  C_17 
REMARK    6  A    between atoms: C_17  and  C_18 
REMARK    7  A    between atoms: C_18  and  C_19 
REMARK    8  A    between atoms: C_26  and  N_27 
REMARK    9  A    between atoms: N_27  and  C_28 
REMARK   10  A    between atoms: C_28  and  C_29 
REMARK   11  A    between atoms: C_29  and  C_30 
REMARK   12  A    between atoms: C_30  and  C_31 
ROOT
ATOM      1  O   UNL d   1      27.258 -18.969   0.619  0.00  0.00    -0.265 OA
ATOM      2  C   UNL d   1      26.845 -17.817   0.411  0.00  0.00     0.295 C 
ATOM      3  N   UNL d   1      27.746 -16.709   0.537  0.00  0.00    -0.006 N 
ATOM      4  N   UNL d   1      27.355 -15.474   1.055  0.00  0.00     0.044 NA
ATOM      5  C   UNL d   1      28.489 -14.742   1.005  0.00  0.00     0.755 A 
ATOM      6  N   UNL d   1      29.529 -15.402   0.426  0.00  0.00     0.131 NA
ATOM      7  C   UNL d   1      29.080 -16.603   0.132  0.00  0.00     0.742 A 
ENDROOT
BRANCH   2   8
ATOM      8  C   UNL d   1      25.428 -17.757   0.009  0.00  0.00     0.035 C 
ATOM      9  C   UNL d   1      24.476 -18.284   0.874  0.00  0.00     0.019 C 
ATOM     10  C   UNL d   1      23.173 -18.468   0.422  0.00  0.00     0.037 C 
ATOM     11  C   UNL d   1      22.791 -17.981  -0.837  0.00  0.00     0.102 C 
ATOM     12  C   UNL d   1      23.705 -17.292  -1.644  0.00  0.00     0.037 C 
ATOM     13  C   UNL d   1      25.026 -17.157  -1.203  0.00  0.00     0.019 C 
BRANCH  11  14
ATOM     14  N   UNL d   1      21.403 -18.170  -1.276  0.00  0.00    -0.116 N 
ATOM     15  O   UNL d   1      21.059 -19.306  -1.616  0.00  0.00    -0.532 OA
ATOM     16  O   UNL d   1      20.657 -17.176  -1.269  0.00  0.00    -0.532 OA
ENDBRANCH  11  14
ENDBRANCH   2   8
BRANCH   7  17
ATOM     17  N   UNL d   1      29.806 -17.499  -0.581  0.00  0.00    -0.222 N 
ATOM     18  H   UNL d   1      29.731 -18.471  -0.294  0.00  0.00     0.177 HD
BRANCH  17  19
ATOM     19  C   UNL d   1      30.505 -17.221  -1.815  0.00  0.00     0.138 C 
BRANCH  19  20
ATOM     20  C   UNL d   1      29.547 -17.016  -2.960  0.00  0.00     0.025 C 
BRANCH  20  21
ATOM     21  C   UNL d   1      29.296 -15.524  -3.206  0.00  0.00     0.040 C 
BRANCH  21  22
ATOM     22  C   UNL d   1      27.829 -15.172  -3.187  0.00  0.00    -0.058 A 
ATOM     23  C   UNL d   1      27.009 -15.390  -4.305  0.00  0.00     0.007 A 
ATOM     24  C   UNL d   1      25.702 -14.925  -4.339  0.00  0.00     0.001 A 
ATOM     25  C   UNL d   1      25.163 -14.310  -3.217  0.00  0.00     0.000 A 
ATOM     26  C   UNL d   1      25.948 -14.122  -2.080  0.00  0.00     0.001 A 
ATOM     27  C   UNL d   1      27.281 -14.537  -2.067  0.00  0.00     0.007 A 
ENDBRANCH  21  22
ENDBRANCH  20  21
ENDBRANCH  19  20
ENDBRANCH  17  19
ENDBRANCH   7  17
BRANCH   5  28
ATOM     28  N   UNL d   1      28.685 -13.453   1.427  0.00  0.00    -0.221 N 
ATOM     29  H   UNL d   1      29.453 -13.242   2.052  0.00  0.00     0.177 HD
BRANCH  28  30
ATOM     30  C   UNL d   1      27.818 -12.315   1.023  0.00  0.00     0.138 C 
BRANCH  30  31
ATOM     31  C   UNL d   1      26.942 -11.729   2.166  0.00  0.00     0.025 C 
BRANCH  31  32
ATOM     32  C   UNL d   1      27.677 -11.578   3.539  0.00  0.00     0.040 C 
BRANCH  32  33
ATOM     33  C   UNL d   1      28.196 -12.879   4.149  0.00  0.00    -0.058 A 
ATOM     34  C   UNL d   1      27.350 -13.966   4.408  0.00  0.00     0.007 A 
ATOM     35  C   UNL d   1      27.802 -15.089   5.104  0.00  0.00     0.001 A 
ATOM     36  C   UNL d   1      29.140 -15.199   5.459  0.00  0.00     0.000 A 
ATOM     37  C   UNL d   1      30.021 -14.167   5.144  0.00  0.00     0.001 A 
ATOM     38  C   UNL d   1      29.554 -13.013   4.498  0.00  0.00     0.007 A 
ENDBRANCH  32  33
ENDBRANCH  31  32
ENDBRANCH  30  31
ENDBRANCH  28  30
ENDBRANCH   5  28
TORSDOF 12
ENDMDL
MODEL 7
REMARK VINA RESULT:    -9.605      3.065      7.225
REMARK INTER + INTRA:         -16.702
REMARK INTER:                 -13.185
REMARK INTRA:                  -3.517
REMARK CONF_INDEPENDENT:        3.580
REMARK UNBOUND:                -3.517
REMARK  12 active torsions:
REMARK  status: ('A' for Active; 'I' for Inactive)
REMARK    1  A    between atoms: C_2  and  C_3 
REMARK       I    between atoms: C_2  and  N_12 
REMARK    2  A    between atoms: C_6  and  N_7 
REMARK    3  A    between atoms: C_14  and  N_15 
REMARK    4  A    between atoms: N_15  and  C_16 
REMARK    5  A    between atoms: C_16  and  C_17 
REMARK    6  A    between atoms: C_17  and  C_18 
REMARK    7  A    between atoms: C_18  and  C_19 
REMARK    8  A    between atoms: C_26  and  N_27 
REMARK    9  A    between atoms: N_27  and  C_28 
REMARK   10  A    between atoms: C_28  and  C_29 
REMARK   11  A    between atoms: C_29  and  C_30 
REMARK   12  A    between atoms: C_30  and  C_31 
ROOT
ATOM      1  O   UNL d   1      25.532 -14.828  -0.217  0.00  0.00    -0.265 OA
ATOM      2  C   UNL d   1      25.841 -16.027  -0.292  0.00  0.00     0.295 C 
ATOM      3  N   UNL d   1      27.211 -16.417  -0.125  0.00  0.00    -0.006 N 
ATOM      4  N   UNL d   1      27.795 -17.451  -0.856  0.00  0.00     0.044 NA
ATOM      5  C   UNL d   1      29.067 -17.473  -0.402  0.00  0.00     0.755 A 
ATOM      6  N   UNL d   1      29.293 -16.586   0.605  0.00  0.00     0.131 NA
ATOM      7  C   UNL d   1      28.161 -15.942   0.784  0.00  0.00     0.742 A 
ENDROOT
BRANCH   2   8
ATOM      8  C   UNL d   1      24.693 -16.924  -0.517  0.00  0.00     0.035 C 
ATOM      9  C   UNL d   1      23.487 -16.361  -0.916  0.00  0.00     0.019 C 
ATOM     10  C   UNL d   1      22.332 -17.138  -0.895  0.00  0.00     0.037 C 
ATOM     11  C   UNL d   1      22.415 -18.512  -0.626  0.00  0.00     0.102 C 
ATOM     12  C   UNL d   1      23.655 -19.121  -0.394  0.00  0.00     0.037 C 
ATOM     13  C   UNL d   1      24.804 -18.323  -0.367  0.00  0.00     0.019 C 
BRANCH  11  14
ATOM     14  N   UNL d   1      21.183 -19.309  -0.633  0.00  0.00    -0.116 N 
ATOM     15  O   UNL d   1      20.758 -19.700  -1.724  0.00  0.00    -0.532 OA
ATOM     16  O   UNL d   1      20.647 -19.551   0.463  0.00  0.00    -0.532 OA
ENDBRANCH  11  14
ENDBRANCH   2   8
BRANCH   7  17
ATOM     17  N   UNL d   1      27.972 -15.067   1.803  0.00  0.00    -0.222 N 
ATOM     18  H   UNL d   1      28.210 -15.400   2.733  0.00  0.00     0.177 HD
BRANCH  17  19
ATOM     19  C   UNL d   1      27.658 -13.664   1.658  0.00  0.00     0.138 C 
BRANCH  19  20
ATOM     20  C   UNL d   1      28.152 -13.120   0.342  0.00  0.00     0.025 C 
BRANCH  20  21
ATOM     21  C   UNL d   1      27.031 -12.394  -0.410  0.00  0.00     0.040 C 
BRANCH  21  22
ATOM     22  C   UNL d   1      27.333 -12.223  -1.878  0.00  0.00    -0.058 A 
ATOM     23  C   UNL d   1      28.641 -12.337  -2.374  0.00  0.00     0.007 A 
ATOM     24  C   UNL d   1      28.938 -12.028  -3.694  0.00  0.00     0.001 A 
ATOM     25  C   UNL d   1      27.914 -11.683  -4.564  0.00  0.00     0.000 A 
ATOM     26  C   UNL d   1      26.601 -11.604  -4.102  0.00  0.00     0.001 A 
ATOM     27  C   UNL d   1      26.311 -11.858  -2.760  0.00  0.00     0.007 A 
ENDBRANCH  21  22
ENDBRANCH  20  21
ENDBRANCH  19  20
ENDBRANCH  17  19
ENDBRANCH   7  17
BRANCH   5  28
ATOM     28  N   UNL d   1      30.098 -18.279  -0.810  0.00  0.00    -0.221 N 
ATOM     29  H   UNL d   1      30.343 -19.094  -0.262  0.00  0.00     0.177 HD
BRANCH  28  30
ATOM     30  C   UNL d   1      30.905 -18.026  -2.032  0.00  0.00     0.138 C 
BRANCH  30  31
ATOM     31  C   UNL d   1      30.101 -17.457  -3.235  0.00  0.00     0.025 C 
BRANCH  31  32
ATOM     32  C   UNL d   1      29.773 -15.931  -3.135  0.00  0.00     0.040 C 
BRANCH  32  33
ATOM     33  C   UNL d   1      28.451 -15.503  -3.772  0.00  0.00    -0.058 A 
ATOM     34  C   UNL d   1      27.250 -15.490  -3.049  0.00  0.00     0.007 A 
ATOM     35  C   UNL d   1      26.027 -15.246  -3.677  0.00  0.00     0.001 A 
ATOM     36  C   UNL d   1      25.989 -14.900  -5.022  0.00  0.00     0.000 A 
ATOM     37  C   UNL d   1      27.176 -14.830  -5.746  0.00  0.00     0.001 A 
ATOM     38  C   UNL d   1      28.399 -15.132  -5.129  0.00  0.00     0.007 A 
ENDBRANCH  32  33
ENDBRANCH  31  32
ENDBRANCH  30  31
ENDBRANCH  28  30
ENDBRANCH   5  28
TORSDOF 12
ENDMDL
MODEL 8
REMARK VINA RESULT:    -9.498      3.371      7.363
REMARK INTER + INTRA:         -16.733
REMARK INTER:                 -13.078
REMARK INTRA:                  -3.655
REMARK CONF_INDEPENDENT:        3.580
REMARK UNBOUND:                -3.655
REMARK  12 active torsions:
REMARK  status: ('A' for Active; 'I' for Inactive)
REMARK    1  A    between atoms: C_2  and  C_3 
REMARK       I    between atoms: C_2  and  N_12 
REMARK    2  A    between atoms: C_6  and  N_7 
REMARK    3  A    between atoms: C_14  and  N_15 
REMARK    4  A    between atoms: N_15  and  C_16 
REMARK    5  A    between atoms: C_16  and  C_17 
REMARK    6  A    between atoms: C_17  and  C_18 
REMARK    7  A    between atoms: C_18  and  C_19 
REMARK    8  A    between atoms: C_26  and  N_27 
REMARK    9  A    between atoms: N_27  and  C_28 
REMARK   10  A    between atoms: C_28  and  C_29 
REMARK   11  A    between atoms: C_29  and  C_30 
REMARK   12  A    between atoms: C_30  and  C_31 
ROOT
ATOM      1  O   UNL d   1      27.258 -19.015   0.576  0.00  0.00    -0.265 OA
ATOM      2  C   UNL d   1      26.805 -17.873   0.412  0.00  0.00     0.295 C 
ATOM      3  N   UNL d   1      27.659 -16.737   0.605  0.00  0.00    -0.006 N 
ATOM      4  N   UNL d   1      27.210 -15.543   1.169  0.00  0.00     0.044 NA
ATOM      5  C   UNL d   1      28.314 -14.766   1.173  0.00  0.00     0.755 A 
ATOM      6  N   UNL d   1      29.390 -15.359   0.587  0.00  0.00     0.131 NA
ATOM      7  C   UNL d   1      28.994 -16.561   0.231  0.00  0.00     0.742 A 
ENDROOT
BRANCH   2   8
ATOM      8  C   UNL d   1      25.393 -17.850  -0.014  0.00  0.00     0.035 C 
ATOM      9  C   UNL d   1      24.420 -18.200   0.913  0.00  0.00     0.019 C 
ATOM     10  C   UNL d   1      23.118 -18.429   0.480  0.00  0.00     0.037 C 
ATOM     11  C   UNL d   1      22.760 -18.154  -0.848  0.00  0.00     0.102 C 
ATOM     12  C   UNL d   1      23.699 -17.632  -1.747  0.00  0.00     0.037 C 
ATOM     13  C   UNL d   1      25.019 -17.454  -1.317  0.00  0.00     0.019 C 
BRANCH  11  14
ATOM     14  N   UNL d   1      21.373 -18.383  -1.269  0.00  0.00    -0.116 N 
ATOM     15  O   UNL d   1      21.053 -19.532  -1.587  0.00  0.00    -0.532 OA
ATOM     16  O   UNL d   1      20.603 -17.407  -1.270  0.00  0.00    -0.532 OA
ENDBRANCH  11  14
ENDBRANCH   2   8
BRANCH   7  17
ATOM     17  N   UNL d   1      29.768 -17.396  -0.507  0.00  0.00    -0.222 N 
ATOM     18  H   UNL d   1      29.843 -18.353  -0.174  0.00  0.00     0.177 HD
BRANCH  17  19
ATOM     19  C   UNL d   1      30.318 -17.098  -1.810  0.00  0.00     0.138 C 
BRANCH  19  20
ATOM     20  C   UNL d   1      29.248 -17.075  -2.871  0.00  0.00     0.025 C 
BRANCH  20  21
ATOM     21  C   UNL d   1      29.001 -15.648  -3.372  0.00  0.00     0.040 C 
BRANCH  21  22
ATOM     22  C   UNL d   1      27.535 -15.291  -3.407  0.00  0.00    -0.058 A 
ATOM     23  C   UNL d   1      26.833 -15.196  -4.619  0.00  0.00     0.007 A 
ATOM     24  C   UNL d   1      25.531 -14.719  -4.659  0.00  0.00     0.001 A 
ATOM     25  C   UNL d   1      24.876 -14.411  -3.475  0.00  0.00     0.000 A 
ATOM     26  C   UNL d   1      25.542 -14.539  -2.256  0.00  0.00     0.001 A 
ATOM     27  C   UNL d   1      26.871 -14.962  -2.220  0.00  0.00     0.007 A 
ENDBRANCH  21  22
ENDBRANCH  20  21
ENDBRANCH  19  20
ENDBRANCH  17  19
ENDBRANCH   7  17
BRANCH   5  28
ATOM     28  N   UNL d   1      28.451 -13.491   1.656  0.00  0.00    -0.221 N 
ATOM     29  H   UNL d   1      28.962 -13.334   2.517  0.00  0.00     0.177 HD
BRANCH  28  30
ATOM     30  C   UNL d   1      27.882 -12.292   0.987  0.00  0.00     0.138 C 
BRANCH  30  31
ATOM     31  C   UNL d   1      27.492 -12.505  -0.503  0.00  0.00     0.025 C 
BRANCH  31  32
ATOM     32  C   UNL d   1      27.735 -11.264  -1.423  0.00  0.00     0.040 C 
BRANCH  32  33
ATOM     33  C   UNL d   1      27.415 -11.474  -2.903  0.00  0.00    -0.058 A 
ATOM     34  C   UNL d   1      28.342 -12.042  -3.788  0.00  0.00     0.007 A 
ATOM     35  C   UNL d   1      28.099 -12.089  -5.162  0.00  0.00     0.001 A 
ATOM     36  C   UNL d   1      26.875 -11.670  -5.670  0.00  0.00     0.000 A 
ATOM     37  C   UNL d   1      25.906 -11.173  -4.803  0.00  0.00     0.001 A 
ATOM     38  C   UNL d   1      26.173 -11.071  -3.429  0.00  0.00     0.007 A 
ENDBRANCH  32  33
ENDBRANCH  31  32
ENDBRANCH  30  31
ENDBRANCH  28  30
ENDBRANCH   5  28
TORSDOF 12
ENDMDL
MODEL 9
REMARK VINA RESULT:    -9.487      3.450      6.759
REMARK INTER + INTRA:         -16.597
REMARK INTER:                 -13.067
REMARK INTRA:                  -3.530
REMARK CONF_INDEPENDENT:        3.580
REMARK UNBOUND:                -3.530
REMARK  12 active torsions:
REMARK  status: ('A' for Active; 'I' for Inactive)
REMARK    1  A    between atoms: C_2  and  C_3 
REMARK       I    between atoms: C_2  and  N_12 
REMARK    2  A    between atoms: C_6  and  N_7 
REMARK    3  A    between atoms: C_14  and  N_15 
REMARK    4  A    between atoms: N_15  and  C_16 
REMARK    5  A    between atoms: C_16  and  C_17 
REMARK    6  A    between atoms: C_17  and  C_18 
REMARK    7  A    between atoms: C_18  and  C_19 
REMARK    8  A    between atoms: C_26  and  N_27 
REMARK    9  A    between atoms: N_27  and  C_28 
REMARK   10  A    between atoms: C_28  and  C_29 
REMARK   11  A    between atoms: C_29  and  C_30 
REMARK   12  A    between atoms: C_30  and  C_31 
ROOT
ATOM      1  O   UNL d   1      27.184 -19.067   0.679  0.00  0.00    -0.265 OA
ATOM      2  C   UNL d   1      26.762 -17.929   0.424  0.00  0.00     0.295 C 
ATOM      3  N   UNL d   1      27.648 -16.805   0.525  0.00  0.00    -0.006 N 
ATOM      4  N   UNL d   1      27.233 -15.558   0.991  0.00  0.00     0.044 NA
ATOM      5  C   UNL d   1      28.359 -14.814   0.934  0.00  0.00     0.755 A 
ATOM      6  N   UNL d   1      29.417 -15.482   0.396  0.00  0.00     0.131 NA
ATOM      7  C   UNL d   1      28.986 -16.697   0.138  0.00  0.00     0.742 A 
ENDROOT
BRANCH   2   8
ATOM      8  C   UNL d   1      25.351 -17.901  -0.003  0.00  0.00     0.035 C 
ATOM      9  C   UNL d   1      24.378 -18.273   0.917  0.00  0.00     0.019 C 
ATOM     10  C   UNL d   1      23.077 -18.496   0.478  0.00  0.00     0.037 C 
ATOM     11  C   UNL d   1      22.719 -18.194  -0.844  0.00  0.00     0.102 C 
ATOM     12  C   UNL d   1      23.657 -17.652  -1.731  0.00  0.00     0.037 C 
ATOM     13  C   UNL d   1      24.976 -17.479  -1.297  0.00  0.00     0.019 C 
BRANCH  11  14
ATOM     14  N   UNL d   1      21.333 -18.419  -1.271  0.00  0.00    -0.116 N 
ATOM     15  O   UNL d   1      20.568 -17.449  -1.270  0.00  0.00    -0.532 OA
ATOM     16  O   UNL d   1      21.016 -19.570  -1.617  0.00  0.00    -0.532 OA
ENDBRANCH  11  14
ENDBRANCH   2   8
BRANCH   7  17
ATOM     17  N   UNL d   1      29.735 -17.610  -0.531  0.00  0.00    -0.222 N 
ATOM     18  H   UNL d   1      29.918 -18.484  -0.047  0.00  0.00     0.177 HD
BRANCH  17  19
ATOM     19  C   UNL d   1      30.115 -17.526  -1.923  0.00  0.00     0.138 C 
BRANCH  19  20
ATOM     20  C   UNL d   1      29.996 -16.117  -2.445  0.00  0.00     0.025 C 
BRANCH  20  21
ATOM     21  C   UNL d   1      28.719 -15.944  -3.275  0.00  0.00     0.040 C 
BRANCH  21  22
ATOM     22  C   UNL d   1      28.869 -14.909  -4.361  0.00  0.00    -0.058 A 
ATOM     23  C   UNL d   1      29.314 -13.608  -4.078  0.00  0.00     0.007 A 
ATOM     24  C   UNL d   1      29.304 -12.617  -5.049  0.00  0.00     0.001 A 
ATOM     25  C   UNL d   1      28.931 -12.935  -6.348  0.00  0.00     0.000 A 
ATOM     26  C   UNL d   1      28.526 -14.231  -6.661  0.00  0.00     0.001 A 
ATOM     27  C   UNL d   1      28.480 -15.213  -5.671  0.00  0.00     0.007 A 
ENDBRANCH  21  22
ENDBRANCH  20  21
ENDBRANCH  19  20
ENDBRANCH  17  19
ENDBRANCH   7  17
BRANCH   5  28
ATOM     28  N   UNL d   1      28.533 -13.509   1.313  0.00  0.00    -0.221 N 
ATOM     29  H   UNL d   1      28.183 -13.198   2.211  0.00  0.00     0.177 HD
BRANCH  28  30
ATOM     30  C   UNL d   1      29.215 -12.492   0.471  0.00  0.00     0.138 C 
BRANCH  30  31
ATOM     31  C   UNL d   1      28.629 -12.335  -0.961  0.00  0.00     0.025 C 
BRANCH  31  32
ATOM     32  C   UNL d   1      27.072 -12.195  -1.015  0.00  0.00     0.040 C 
BRANCH  32  33
ATOM     33  C   UNL d   1      26.385 -12.960  -2.145  0.00  0.00    -0.058 A 
ATOM     34  C   UNL d   1      26.093 -14.328  -2.043  0.00  0.00     0.007 A 
ATOM     35  C   UNL d   1      25.607 -15.050  -3.135  0.00  0.00     0.001 A 
ATOM     36  C   UNL d   1      25.296 -14.398  -4.321  0.00  0.00     0.000 A 
ATOM     37  C   UNL d   1      25.503 -13.024  -4.425  0.00  0.00     0.001 A 
ATOM     38  C   UNL d   1      26.048 -12.310  -3.347  0.00  0.00     0.007 A 
ENDBRANCH  32  33
ENDBRANCH  31  32
ENDBRANCH  30  31
ENDBRANCH  28  30
ENDBRANCH   5  28
TORSDOF 12
ENDMDL
