MODEL 1
REMARK VINA RESULT:    -8.792      0.000      0.000
REMARK INTER + INTRA:         -13.451
REMARK INTER:                 -11.775
REMARK INTRA:                  -1.676
REMARK CONF_INDEPENDENT:        2.983
REMARK UNBOUND:                -1.676
REMARK  10 active torsions:
REMARK  status: ('A' for Active; 'I' for Inactive)
REMARK    1  A    between atoms: O_2  and  C_3 
REMARK    2  A    between atoms: C_3  and  C_4 
REMARK    3  A    between atoms: C_4  and  O_5 
REMARK    4  A    between atoms: O_5  and  C_6 
REMARK       I    between atoms: C_6  and  N_8 
REMARK    5  A    between atoms: N_8  and  C_9 
REMARK    6  A    between atoms: C_13  and  N_14 
REMARK       I    between atoms: N_14  and  C_15 
REMARK    7  A    between atoms: C_15  and  C_17 
REMARK    8  A    between atoms: C_17  and  C_18 
REMARK    9  A    between atoms: C_18  and  N_19 
REMARK   10  A    between atoms: N_19  and  C_20 
ROOT
ATOM      1  N   UNL d   1      25.298 -14.664  -2.282  0.00  0.00    -0.327 N 
ATOM      2  C   UNL d   1      25.343 -14.536  -3.670  0.00  0.00     0.223 C 
ATOM      3  O   UNL d   1      25.204 -15.459  -4.471  0.00  0.00    -0.273 OA
ATOM      4  H   UNL d   1      25.354 -13.832  -1.708  0.00  0.00     0.169 HD
ENDROOT
BRANCH   1   5
ATOM      5  C   UNL d   1      25.106 -15.913  -1.616  0.00  0.00     0.036 A 
ATOM      6  C   UNL d   1      26.179 -16.734  -1.270  0.00  0.00     0.029 A 
ATOM      7  C   UNL d   1      25.945 -17.914  -0.534  0.00  0.00     0.004 A 
ATOM      8  C   UNL d   1      24.639 -18.309  -0.178  0.00  0.00     0.030 A 
ATOM      9  C   UNL d   1      23.561 -17.518  -0.550  0.00  0.00     0.039 A 
ATOM     10  C   UNL d   1      23.826 -16.348  -1.254  0.00  0.00     0.059 A 
BRANCH   9  11
ATOM     11  N   UNL d   1      22.218 -17.805  -0.191  0.00  0.00    -0.303 N 
ATOM     12  C   UNL d   1      21.391 -18.632  -0.939  0.00  0.00     0.365 C 
ATOM     13  O   UNL d   1      21.753 -19.319  -1.895  0.00  0.00    -0.238 OA
ATOM     14  H   UNL d   1      21.845 -17.411   0.660  0.00  0.00     0.171 HD
BRANCH  12  15
ATOM     15  O   UNL d   1      20.112 -18.673  -0.456  0.00  0.00    -0.302 OA
BRANCH  15  16
ATOM     16  C   UNL d   1      19.718 -19.993   0.006  0.00  0.00     0.207 C 
BRANCH  16  17
ATOM     17  C   UNL d   1      19.699 -20.049   1.536  0.00  0.00     0.193 C 
BRANCH  17  18
ATOM     18  O   UNL d   1      18.458 -20.579   2.018  0.00  0.00    -0.394 OA
ATOM     19  C   UNL d   1      17.941 -21.569   1.132  0.00  0.00     0.201 C 
ENDBRANCH  17  18
ENDBRANCH  16  17
ENDBRANCH  15  16
ENDBRANCH  12  15
ENDBRANCH   9  11
ENDBRANCH   1   5
BRANCH   2  20
ATOM     20  C   UNL d   1      25.545 -13.151  -4.237  0.00  0.00     0.122 C 
BRANCH  20  21
ATOM     21  C   UNL d   1      26.913 -13.168  -4.947  0.00  0.00     0.129 C 
BRANCH  21  22
ATOM     22  N   UNL d   1      27.147 -14.405  -5.662  0.00  0.00    -0.389 N 
ATOM     23  H   UNL d   1      26.393 -14.838  -6.178  0.00  0.00     0.159 HD
BRANCH  22  24
ATOM     24  C   UNL d   1      28.260 -15.189  -5.392  0.00  0.00     0.028 A 
ATOM     25  C   UNL d   1      28.470 -15.622  -4.079  0.00  0.00     0.036 A 
ATOM     26  C   UNL d   1      29.619 -16.340  -3.723  0.00  0.00    -0.059 A 
ATOM     27  C   UNL d   1      29.973 -16.576  -2.287  0.00  0.00     0.048 C 
ATOM     28  C   UNL d   1      30.516 -16.740  -4.714  0.00  0.00     0.013 A 
ATOM     29  C   UNL d   1      30.326 -16.335  -6.033  0.00  0.00    -0.059 A 
ATOM     30  C   UNL d   1      31.357 -16.636  -7.078  0.00  0.00     0.048 C 
ATOM     31  C   UNL d   1      29.194 -15.571  -6.362  0.00  0.00     0.036 A 
ENDBRANCH  22  24
ENDBRANCH  21  22
ENDBRANCH  20  21
ENDBRANCH   2  20
TORSDOF 10
ENDMDL
MODEL 2
REMARK VINA RESULT:    -8.501      0.686      1.745
REMARK INTER + INTRA:         -13.369
REMARK INTER:                 -11.484
REMARK INTRA:                  -1.885
REMARK CONF_INDEPENDENT:        2.983
REMARK UNBOUND:                -1.885
REMARK  10 active torsions:
REMARK  status: ('A' for Active; 'I' for Inactive)
REMARK    1  A    between atoms: O_2  and  C_3 
REMARK    2  A    between atoms: C_3  and  C_4 
REMARK    3  A    between atoms: C_4  and  O_5 
REMARK    4  A    between atoms: O_5  and  C_6 
REMARK       I    between atoms: C_6  and  N_8 
REMARK    5  A    between atoms: N_8  and  C_9 
REMARK    6  A    between atoms: C_13  and  N_14 
REMARK       I    between atoms: N_14  and  C_15 
REMARK    7  A    between atoms: C_15  and  C_17 
REMARK    8  A    between atoms: C_17  and  C_18 
REMARK    9  A    between atoms: C_18  and  N_19 
REMARK   10  A    between atoms: N_19  and  C_20 
ROOT
ATOM      1  N   UNL d   1      25.813 -14.521  -1.661  0.00  0.00    -0.327 N 
ATOM      2  C   UNL d   1      25.231 -14.079  -2.848  0.00  0.00     0.223 C 
ATOM      3  O   UNL d   1      24.420 -14.715  -3.520  0.00  0.00    -0.273 OA
ATOM      4  H   UNL d   1      26.418 -13.895  -1.144  0.00  0.00     0.169 HD
ENDROOT
BRANCH   1   5
ATOM      5  C   UNL d   1      25.549 -15.804  -1.089  0.00  0.00     0.036 A 
ATOM      6  C   UNL d   1      26.578 -16.644  -0.663  0.00  0.00     0.029 A 
ATOM      7  C   UNL d   1      26.264 -17.862  -0.023  0.00  0.00     0.004 A 
ATOM      8  C   UNL d   1      24.927 -18.272   0.156  0.00  0.00     0.030 A 
ATOM      9  C   UNL d   1      23.897 -17.459  -0.298  0.00  0.00     0.039 A 
ATOM     10  C   UNL d   1      24.238 -16.255  -0.903  0.00  0.00     0.059 A 
BRANCH   9  11
ATOM     11  N   UNL d   1      22.522 -17.763  -0.115  0.00  0.00    -0.303 N 
ATOM     12  C   UNL d   1      21.776 -18.494  -1.030  0.00  0.00     0.365 C 
ATOM     13  O   UNL d   1      22.235 -19.081  -2.010  0.00  0.00    -0.238 OA
ATOM     14  H   UNL d   1      22.063 -17.455   0.729  0.00  0.00     0.171 HD
BRANCH  12  15
ATOM     15  O   UNL d   1      20.453 -18.565  -0.692  0.00  0.00    -0.302 OA
BRANCH  15  16
ATOM     16  C   UNL d   1      20.091 -19.826  -0.066  0.00  0.00     0.207 C 
BRANCH  16  17
ATOM     17  C   UNL d   1      20.115 -19.700   1.460  0.00  0.00     0.193 C 
BRANCH  17  18
ATOM     18  O   UNL d   1      18.903 -20.202   2.038  0.00  0.00    -0.394 OA
ATOM     19  C   UNL d   1      18.328 -21.222   1.226  0.00  0.00     0.201 C 
ENDBRANCH  17  18
ENDBRANCH  16  17
ENDBRANCH  15  16
ENDBRANCH  12  15
ENDBRANCH   9  11
ENDBRANCH   1   5
BRANCH   2  20
ATOM     20  C   UNL d   1      25.597 -12.696  -3.332  0.00  0.00     0.122 C 
BRANCH  20  21
ATOM     21  C   UNL d   1      26.521 -12.893  -4.550  0.00  0.00     0.129 C 
BRANCH  21  22
ATOM     22  N   UNL d   1      26.613 -14.280  -4.953  0.00  0.00    -0.389 N 
ATOM     23  H   UNL d   1      25.770 -14.808  -5.138  0.00  0.00     0.159 HD
BRANCH  22  24
ATOM     24  C   UNL d   1      27.782 -15.004  -4.767  0.00  0.00     0.028 A 
ATOM     25  C   UNL d   1      28.637 -15.185  -5.858  0.00  0.00     0.036 A 
ATOM     26  C   UNL d   1      29.786 -15.980  -5.761  0.00  0.00    -0.059 A 
ATOM     27  C   UNL d   1      30.555 -16.386  -6.980  0.00  0.00     0.048 C 
ATOM     28  C   UNL d   1      30.158 -16.505  -4.522  0.00  0.00     0.013 A 
ATOM     29  C   UNL d   1      29.333 -16.329  -3.413  0.00  0.00    -0.059 A 
ATOM     30  C   UNL d   1      29.648 -17.009  -2.116  0.00  0.00     0.048 C 
ATOM     31  C   UNL d   1      28.157 -15.572  -3.543  0.00  0.00     0.036 A 
ENDBRANCH  22  24
ENDBRANCH  21  22
ENDBRANCH  20  21
ENDBRANCH   2  20
TORSDOF 10
ENDMDL
MODEL 3
REMARK VINA RESULT:    -8.500      1.183      2.007
REMARK INTER + INTRA:         -12.921
REMARK INTER:                 -11.483
REMARK INTRA:                  -1.438
REMARK CONF_INDEPENDENT:        2.983
REMARK UNBOUND:                -1.438
REMARK  10 active torsions:
REMARK  status: ('A' for Active; 'I' for Inactive)
REMARK    1  A    between atoms: O_2  and  C_3 
REMARK    2  A    between atoms: C_3  and  C_4 
REMARK    3  A    between atoms: C_4  and  O_5 
REMARK    4  A    between atoms: O_5  and  C_6 
REMARK       I    between atoms: C_6  and  N_8 
REMARK    5  A    between atoms: N_8  and  C_9 
REMARK    6  A    between atoms: C_13  and  N_14 
REMARK       I    between atoms: N_14  and  C_15 
REMARK    7  A    between atoms: C_15  and  C_17 
REMARK    8  A    between atoms: C_17  and  C_18 
REMARK    9  A    between atoms: C_18  and  N_19 
REMARK   10  A    between atoms: N_19  and  C_20 
ROOT
ATOM      1  N   UNL d   1      25.383 -14.830  -2.426  0.00  0.00    -0.327 N 
ATOM      2  C   UNL d   1      25.561 -14.877  -3.808  0.00  0.00     0.223 C 
ATOM      3  O   UNL d   1      25.531 -15.898  -4.492  0.00  0.00    -0.273 OA
ATOM      4  H   UNL d   1      25.356 -13.931  -1.961  0.00  0.00     0.169 HD
ENDROOT
BRANCH   1   5
ATOM      5  C   UNL d   1      25.168 -15.992  -1.623  0.00  0.00     0.036 A 
ATOM      6  C   UNL d   1      26.230 -16.755  -1.135  0.00  0.00     0.029 A 
ATOM      7  C   UNL d   1      25.969 -17.842  -0.273  0.00  0.00     0.004 A 
ATOM      8  C   UNL d   1      24.650 -18.204   0.070  0.00  0.00     0.030 A 
ATOM      9  C   UNL d   1      23.586 -17.474  -0.441  0.00  0.00     0.039 A 
ATOM     10  C   UNL d   1      23.876 -16.395  -1.268  0.00  0.00     0.059 A 
BRANCH   9  11
ATOM     11  N   UNL d   1      22.229 -17.732  -0.109  0.00  0.00    -0.303 N 
ATOM     12  C   UNL d   1      21.410 -18.569  -0.854  0.00  0.00     0.365 C 
ATOM     13  O   UNL d   1      21.786 -19.290  -1.778  0.00  0.00    -0.238 OA
ATOM     14  H   UNL d   1      21.841 -17.306   0.719  0.00  0.00     0.171 HD
BRANCH  12  15
ATOM     15  O   UNL d   1      20.118 -18.576  -0.404  0.00  0.00    -0.302 OA
BRANCH  15  16
ATOM     16  C   UNL d   1      19.459 -19.858  -0.582  0.00  0.00     0.207 C 
BRANCH  16  17
ATOM     17  C   UNL d   1      19.771 -20.795   0.589  0.00  0.00     0.193 C 
BRANCH  17  18
ATOM     18  O   UNL d   1      18.753 -20.720   1.595  0.00  0.00    -0.394 OA
ATOM     19  C   UNL d   1      17.656 -21.576   1.284  0.00  0.00     0.201 C 
ENDBRANCH  17  18
ENDBRANCH  16  17
ENDBRANCH  15  16
ENDBRANCH  12  15
ENDBRANCH   9  11
ENDBRANCH   1   5
BRANCH   2  20
ATOM     20  C   UNL d   1      25.772 -13.567  -4.529  0.00  0.00     0.122 C 
BRANCH  20  21
ATOM     21  C   UNL d   1      27.255 -13.535  -4.946  0.00  0.00     0.129 C 
BRANCH  21  22
ATOM     22  N   UNL d   1      27.618 -14.664  -5.775  0.00  0.00    -0.389 N 
ATOM     23  H   UNL d   1      27.058 -15.507  -5.752  0.00  0.00     0.159 HD
BRANCH  22  24
ATOM     24  C   UNL d   1      28.883 -14.762  -6.338  0.00  0.00     0.028 A 
ATOM     25  C   UNL d   1      29.423 -13.638  -6.969  0.00  0.00     0.036 A 
ATOM     26  C   UNL d   1      30.654 -13.696  -7.635  0.00  0.00    -0.059 A 
ATOM     27  C   UNL d   1      31.109 -12.581  -8.525  0.00  0.00     0.048 C 
ATOM     28  C   UNL d   1      31.420 -14.861  -7.566  0.00  0.00     0.013 A 
ATOM     29  C   UNL d   1      30.914 -15.993  -6.931  0.00  0.00    -0.059 A 
ATOM     30  C   UNL d   1      31.664 -17.289  -6.978  0.00  0.00     0.048 C 
ATOM     31  C   UNL d   1      29.654 -15.931  -6.315  0.00  0.00     0.036 A 
ENDBRANCH  22  24
ENDBRANCH  21  22
ENDBRANCH  20  21
ENDBRANCH   2  20
TORSDOF 10
ENDMDL
MODEL 4
REMARK VINA RESULT:    -8.258      2.755      4.624
REMARK INTER + INTRA:         -12.019
REMARK INTER:                 -11.241
REMARK INTRA:                  -0.777
REMARK CONF_INDEPENDENT:        2.983
REMARK UNBOUND:                -0.777
REMARK  10 active torsions:
REMARK  status: ('A' for Active; 'I' for Inactive)
REMARK    1  A    between atoms: O_2  and  C_3 
REMARK    2  A    between atoms: C_3  and  C_4 
REMARK    3  A    between atoms: C_4  and  O_5 
REMARK    4  A    between atoms: O_5  and  C_6 
REMARK       I    between atoms: C_6  and  N_8 
REMARK    5  A    between atoms: N_8  and  C_9 
REMARK    6  A    between atoms: C_13  and  N_14 
REMARK       I    between atoms: N_14  and  C_15 
REMARK    7  A    between atoms: C_15  and  C_17 
REMARK    8  A    between atoms: C_17  and  C_18 
REMARK    9  A    between atoms: C_18  and  N_19 
REMARK   10  A    between atoms: N_19  and  C_20 
ROOT
ATOM      1  N   UNL d   1      25.872 -15.751  -2.638  0.00  0.00    -0.327 N 
ATOM      2  C   UNL d   1      25.065 -14.743  -3.163  0.00  0.00     0.223 C 
ATOM      3  O   UNL d   1      23.934 -14.462  -2.768  0.00  0.00    -0.273 OA
ATOM      4  H   UNL d   1      26.817 -15.859  -2.986  0.00  0.00     0.169 HD
ENDROOT
BRANCH   1   5
ATOM      5  C   UNL d   1      25.460 -16.612  -1.574  0.00  0.00     0.036 A 
ATOM      6  C   UNL d   1      26.379 -17.194  -0.701  0.00  0.00     0.029 A 
ATOM      7  C   UNL d   1      25.917 -17.963   0.387  0.00  0.00     0.004 A 
ATOM      8  C   UNL d   1      24.540 -18.198   0.586  0.00  0.00     0.030 A 
ATOM      9  C   UNL d   1      23.620 -17.654  -0.299  0.00  0.00     0.039 A 
ATOM     10  C   UNL d   1      24.105 -16.881  -1.347  0.00  0.00     0.059 A 
BRANCH   9  11
ATOM     11  N   UNL d   1      22.215 -17.791  -0.149  0.00  0.00    -0.303 N 
ATOM     12  C   UNL d   1      21.431 -18.563  -0.996  0.00  0.00     0.365 C 
ATOM     13  O   UNL d   1      21.862 -19.322  -1.864  0.00  0.00    -0.238 OA
ATOM     14  H   UNL d   1      21.759 -17.326   0.621  0.00  0.00     0.171 HD
BRANCH  12  15
ATOM     15  O   UNL d   1      20.095 -18.455  -0.721  0.00  0.00    -0.302 OA
BRANCH  15  16
ATOM     16  C   UNL d   1      19.524 -19.675  -0.178  0.00  0.00     0.207 C 
BRANCH  16  17
ATOM     17  C   UNL d   1      19.807 -19.786   1.323  0.00  0.00     0.193 C 
BRANCH  17  18
ATOM     18  O   UNL d   1      18.985 -20.790   1.930  0.00  0.00    -0.394 OA
ATOM     19  C   UNL d   1      18.101 -21.379   0.979  0.00  0.00     0.201 C 
ENDBRANCH  17  18
ENDBRANCH  16  17
ENDBRANCH  15  16
ENDBRANCH  12  15
ENDBRANCH   9  11
ENDBRANCH   1   5
BRANCH   2  20
ATOM     20  C   UNL d   1      25.635 -13.905  -4.282  0.00  0.00     0.122 C 
BRANCH  20  21
ATOM     21  C   UNL d   1      25.418 -12.434  -3.877  0.00  0.00     0.129 C 
BRANCH  21  22
ATOM     22  N   UNL d   1      26.483 -11.572  -4.341  0.00  0.00    -0.389 N 
ATOM     23  H   UNL d   1      27.390 -11.606  -3.895  0.00  0.00     0.159 HD
BRANCH  22  24
ATOM     24  C   UNL d   1      26.215 -10.470  -5.142  0.00  0.00     0.028 A 
ATOM     25  C   UNL d   1      25.164  -9.622  -4.782  0.00  0.00     0.036 A 
ATOM     26  C   UNL d   1      24.784  -8.545  -5.595  0.00  0.00    -0.059 A 
ATOM     27  C   UNL d   1      23.508  -7.800  -5.351  0.00  0.00     0.048 C 
ATOM     28  C   UNL d   1      25.543  -8.233  -6.723  0.00  0.00     0.013 A 
ATOM     29  C   UNL d   1      26.606  -9.052  -7.099  0.00  0.00    -0.059 A 
ATOM     30  C   UNL d   1      27.334  -8.810  -8.386  0.00  0.00     0.048 C 
ATOM     31  C   UNL d   1      26.938 -10.158  -6.300  0.00  0.00     0.036 A 
ENDBRANCH  22  24
ENDBRANCH  21  22
ENDBRANCH  20  21
ENDBRANCH   2  20
TORSDOF 10
ENDMDL
MODEL 5
REMARK VINA RESULT:    -8.142      2.664      5.006
REMARK INTER + INTRA:         -12.055
REMARK INTER:                 -11.125
REMARK INTRA:                  -0.930
REMARK CONF_INDEPENDENT:        2.983
REMARK UNBOUND:                -0.930
REMARK  10 active torsions:
REMARK  status: ('A' for Active; 'I' for Inactive)
REMARK    1  A    between atoms: O_2  and  C_3 
REMARK    2  A    between atoms: C_3  and  C_4 
REMARK    3  A    between atoms: C_4  and  O_5 
REMARK    4  A    between atoms: O_5  and  C_6 
REMARK       I    between atoms: C_6  and  N_8 
REMARK    5  A    between atoms: N_8  and  C_9 
REMARK    6  A    between atoms: C_13  and  N_14 
REMARK       I    between atoms: N_14  and  C_15 
REMARK    7  A    between atoms: C_15  and  C_17 
REMARK    8  A    between atoms: C_17  and  C_18 
REMARK    9  A    between atoms: C_18  and  N_19 
REMARK   10  A    between atoms: N_19  and  C_20 
ROOT
ATOM      1  N   UNL d   1      26.074 -15.965  -2.947  0.00  0.00    -0.327 N 
ATOM      2  C   UNL d   1      25.333 -14.896  -3.449  0.00  0.00     0.223 C 
ATOM      3  O   UNL d   1      24.306 -14.447  -2.943  0.00  0.00    -0.273 OA
ATOM      4  H   UNL d   1      26.946 -16.216  -3.397  0.00  0.00     0.169 HD
ENDROOT
BRANCH   1   5
ATOM      5  C   UNL d   1      25.703 -16.696  -1.777  0.00  0.00     0.036 A 
ATOM      6  C   UNL d   1      26.657 -17.190  -0.887  0.00  0.00     0.029 A 
ATOM      7  C   UNL d   1      26.238 -17.827   0.301  0.00  0.00     0.004 A 
ATOM      8  C   UNL d   1      24.870 -18.018   0.586  0.00  0.00     0.030 A 
ATOM      9  C   UNL d   1      23.915 -17.563  -0.312  0.00  0.00     0.039 A 
ATOM     10  C   UNL d   1      24.358 -16.918  -1.461  0.00  0.00     0.059 A 
BRANCH   9  11
ATOM     11  N   UNL d   1      22.517 -17.662  -0.084  0.00  0.00    -0.303 N 
ATOM     12  C   UNL d   1      21.672 -18.438  -0.866  0.00  0.00     0.365 C 
ATOM     13  O   UNL d   1      22.039 -19.232  -1.732  0.00  0.00    -0.238 OA
ATOM     14  H   UNL d   1      22.113 -17.164   0.695  0.00  0.00     0.171 HD
BRANCH  12  15
ATOM     15  O   UNL d   1      20.356 -18.290  -0.524  0.00  0.00    -0.302 OA
BRANCH  15  16
ATOM     16  C   UNL d   1      19.535 -19.425  -0.911  0.00  0.00     0.207 C 
BRANCH  16  17
ATOM     17  C   UNL d   1      18.904 -20.083   0.320  0.00  0.00     0.193 C 
BRANCH  17  18
ATOM     18  O   UNL d   1      19.099 -19.280   1.491  0.00  0.00    -0.394 OA
ATOM     19  C   UNL d   1      20.244 -19.707   2.225  0.00  0.00     0.201 C 
ENDBRANCH  17  18
ENDBRANCH  16  17
ENDBRANCH  15  16
ENDBRANCH  12  15
ENDBRANCH   9  11
ENDBRANCH   1   5
BRANCH   2  20
ATOM     20  C   UNL d   1      25.849 -14.211  -4.692  0.00  0.00     0.122 C 
BRANCH  20  21
ATOM     21  C   UNL d   1      26.494 -12.892  -4.225  0.00  0.00     0.129 C 
BRANCH  21  22
ATOM     22  N   UNL d   1      26.297 -11.817  -5.173  0.00  0.00    -0.389 N 
ATOM     23  H   UNL d   1      26.685 -11.890  -6.105  0.00  0.00     0.159 HD
BRANCH  22  24
ATOM     24  C   UNL d   1      25.895 -10.556  -4.755  0.00  0.00     0.028 A 
ATOM     25  C   UNL d   1      25.323  -9.691  -5.691  0.00  0.00     0.036 A 
ATOM     26  C   UNL d   1      24.979  -8.375  -5.355  0.00  0.00    -0.059 A 
ATOM     27  C   UNL d   1      24.613  -7.375  -6.407  0.00  0.00     0.048 C 
ATOM     28  C   UNL d   1      25.094  -7.951  -4.031  0.00  0.00     0.013 A 
ATOM     29  C   UNL d   1      25.647  -8.796  -3.072  0.00  0.00    -0.059 A 
ATOM     30  C   UNL d   1      25.909  -8.300  -1.682  0.00  0.00     0.048 C 
ATOM     31  C   UNL d   1      26.035 -10.094  -3.440  0.00  0.00     0.036 A 
ENDBRANCH  22  24
ENDBRANCH  21  22
ENDBRANCH  20  21
ENDBRANCH   2  20
TORSDOF 10
ENDMDL
MODEL 6
REMARK VINA RESULT:    -7.937      2.470      3.687
REMARK INTER + INTRA:         -12.650
REMARK INTER:                 -10.920
REMARK INTRA:                  -1.730
REMARK CONF_INDEPENDENT:        2.983
REMARK UNBOUND:                -1.730
REMARK  10 active torsions:
REMARK  status: ('A' for Active; 'I' for Inactive)
REMARK    1  A    between atoms: O_2  and  C_3 
REMARK    2  A    between atoms: C_3  and  C_4 
REMARK    3  A    between atoms: C_4  and  O_5 
REMARK    4  A    between atoms: O_5  and  C_6 
REMARK       I    between atoms: C_6  and  N_8 
REMARK    5  A    between atoms: N_8  and  C_9 
REMARK    6  A    between atoms: C_13  and  N_14 
REMARK       I    between atoms: N_14  and  C_15 
REMARK    7  A    between atoms: C_15  and  C_17 
REMARK    8  A    between atoms: C_17  and  C_18 
REMARK    9  A    between atoms: C_18  and  N_19 
REMARK   10  A    between atoms: N_19  and  C_20 
ROOT
ATOM      1  N   UNL d   1      25.465 -14.851  -2.092  0.00  0.00    -0.327 N 
ATOM      2  C   UNL d   1      25.491 -14.667  -3.474  0.00  0.00     0.223 C 
ATOM      3  O   UNL d   1      25.252 -15.538  -4.309  0.00  0.00    -0.273 OA
ATOM      4  H   UNL d   1      25.608 -14.053  -1.485  0.00  0.00     0.169 HD
ENDROOT
BRANCH   1   5
ATOM      5  C   UNL d   1      25.176 -16.106  -1.473  0.00  0.00     0.036 A 
ATOM      6  C   UNL d   1      26.183 -17.014  -1.149  0.00  0.00     0.029 A 
ATOM      7  C   UNL d   1      25.857 -18.201  -0.458  0.00  0.00     0.004 A 
ATOM      8  C   UNL d   1      24.522 -18.512  -0.128  0.00  0.00     0.030 A 
ATOM      9  C   UNL d   1      23.508 -17.631  -0.479  0.00  0.00     0.039 A 
ATOM     10  C   UNL d   1      23.864 -16.460  -1.137  0.00  0.00     0.059 A 
BRANCH   9  11
ATOM     11  N   UNL d   1      22.144 -17.834  -0.141  0.00  0.00    -0.303 N 
ATOM     12  C   UNL d   1      21.279 -18.609  -0.901  0.00  0.00     0.365 C 
ATOM     13  O   UNL d   1      21.613 -19.320  -1.850  0.00  0.00    -0.238 OA
ATOM     14  H   UNL d   1      21.783 -17.414   0.703  0.00  0.00     0.171 HD
BRANCH  12  15
ATOM     15  O   UNL d   1      19.992 -18.568  -0.440  0.00  0.00    -0.302 OA
BRANCH  15  16
ATOM     16  C   UNL d   1      19.193 -19.701  -0.875  0.00  0.00     0.207 C 
BRANCH  16  17
ATOM     17  C   UNL d   1      19.119 -20.766   0.223  0.00  0.00     0.193 C 
BRANCH  17  18
ATOM     18  O   UNL d   1      20.214 -20.640   1.139  0.00  0.00    -0.394 OA
ATOM     19  C   UNL d   1      19.913 -19.715   2.181  0.00  0.00     0.201 C 
ENDBRANCH  17  18
ENDBRANCH  16  17
ENDBRANCH  15  16
ENDBRANCH  12  15
ENDBRANCH   9  11
ENDBRANCH   1   5
BRANCH   2  20
ATOM     20  C   UNL d   1      25.805 -13.283  -3.988  0.00  0.00     0.122 C 
BRANCH  20  21
ATOM     21  C   UNL d   1      27.219 -12.941  -3.479  0.00  0.00     0.129 C 
BRANCH  21  22
ATOM     22  N   UNL d   1      27.202 -12.370  -2.149  0.00  0.00    -0.389 N 
ATOM     23  H   UNL d   1      27.155 -11.366  -2.032  0.00  0.00     0.159 HD
BRANCH  22  24
ATOM     24  C   UNL d   1      27.588 -13.116  -1.045  0.00  0.00     0.028 A 
ATOM     25  C   UNL d   1      28.421 -14.221  -1.242  0.00  0.00     0.036 A 
ATOM     26  C   UNL d   1      28.773 -15.068  -0.183  0.00  0.00    -0.059 A 
ATOM     27  C   UNL d   1      29.442 -16.384  -0.430  0.00  0.00     0.048 C 
ATOM     28  C   UNL d   1      28.390 -14.739   1.118  0.00  0.00     0.013 A 
ATOM     29  C   UNL d   1      27.571 -13.636   1.348  0.00  0.00    -0.059 A 
ATOM     30  C   UNL d   1      27.035 -13.359   2.719  0.00  0.00     0.048 C 
ATOM     31  C   UNL d   1      27.185 -12.829   0.265  0.00  0.00     0.036 A 
ENDBRANCH  22  24
ENDBRANCH  21  22
ENDBRANCH  20  21
ENDBRANCH   2  20
TORSDOF 10
ENDMDL
MODEL 7
REMARK VINA RESULT:    -7.877      1.324      1.897
REMARK INTER + INTRA:         -12.143
REMARK INTER:                 -10.860
REMARK INTRA:                  -1.282
REMARK CONF_INDEPENDENT:        2.983
REMARK UNBOUND:                -1.282
REMARK  10 active torsions:
REMARK  status: ('A' for Active; 'I' for Inactive)
REMARK    1  A    between atoms: O_2  and  C_3 
REMARK    2  A    between atoms: C_3  and  C_4 
REMARK    3  A    between atoms: C_4  and  O_5 
REMARK    4  A    between atoms: O_5  and  C_6 
REMARK       I    between atoms: C_6  and  N_8 
REMARK    5  A    between atoms: N_8  and  C_9 
REMARK    6  A    between atoms: C_13  and  N_14 
REMARK       I    between atoms: N_14  and  C_15 
REMARK    7  A    between atoms: C_15  and  C_17 
REMARK    8  A    between atoms: C_17  and  C_18 
REMARK    9  A    between atoms: C_18  and  N_19 
REMARK   10  A    between atoms: N_19  and  C_20 
ROOT
ATOM      1  N   UNL d   1      25.053 -14.650  -2.257  0.00  0.00    -0.327 N 
ATOM      2  C   UNL d   1      25.264 -14.540  -3.630  0.00  0.00     0.223 C 
ATOM      3  O   UNL d   1      25.510 -15.478  -4.387  0.00  0.00    -0.273 OA
ATOM      4  H   UNL d   1      24.788 -13.827  -1.730  0.00  0.00     0.169 HD
ENDROOT
BRANCH   1   5
ATOM      5  C   UNL d   1      25.124 -15.890  -1.550  0.00  0.00     0.036 A 
ATOM      6  C   UNL d   1      26.142 -16.155  -0.632  0.00  0.00     0.029 A 
ATOM      7  C   UNL d   1      26.118 -17.357   0.106  0.00  0.00     0.004 A 
ATOM      8  C   UNL d   1      25.111 -18.322  -0.097  0.00  0.00     0.030 A 
ATOM      9  C   UNL d   1      24.116 -18.084  -1.034  0.00  0.00     0.039 A 
ATOM     10  C   UNL d   1      24.152 -16.880  -1.729  0.00  0.00     0.059 A 
BRANCH   9  11
ATOM     11  N   UNL d   1      23.032 -18.971  -1.269  0.00  0.00    -0.303 N 
ATOM     12  C   UNL d   1      21.702 -18.607  -1.108  0.00  0.00     0.365 C 
ATOM     13  O   UNL d   1      21.301 -17.463  -0.896  0.00  0.00    -0.238 OA
ATOM     14  H   UNL d   1      23.229 -19.907  -1.590  0.00  0.00     0.171 HD
BRANCH  12  15
ATOM     15  O   UNL d   1      20.844 -19.658  -1.286  0.00  0.00    -0.302 OA
BRANCH  15  16
ATOM     16  C   UNL d   1      19.471 -19.339  -0.935  0.00  0.00     0.207 C 
BRANCH  16  17
ATOM     17  C   UNL d   1      19.113 -19.919   0.437  0.00  0.00     0.193 C 
BRANCH  17  18
ATOM     18  O   UNL d   1      20.279 -20.410   1.109  0.00  0.00    -0.394 OA
ATOM     19  C   UNL d   1      20.264 -20.062   2.491  0.00  0.00     0.201 C 
ENDBRANCH  17  18
ENDBRANCH  16  17
ENDBRANCH  15  16
ENDBRANCH  12  15
ENDBRANCH   9  11
ENDBRANCH   1   5
BRANCH   2  20
ATOM     20  C   UNL d   1      25.150 -13.166  -4.246  0.00  0.00     0.122 C 
BRANCH  20  21
ATOM     21  C   UNL d   1      26.397 -12.382  -3.792  0.00  0.00     0.129 C 
BRANCH  21  22
ATOM     22  N   UNL d   1      27.556 -13.234  -3.637  0.00  0.00    -0.389 N 
ATOM     23  H   UNL d   1      28.067 -13.237  -2.764  0.00  0.00     0.159 HD
BRANCH  22  24
ATOM     24  C   UNL d   1      28.192 -13.786  -4.740  0.00  0.00     0.028 A 
ATOM     25  C   UNL d   1      28.651 -15.104  -4.657  0.00  0.00     0.036 A 
ATOM     26  C   UNL d   1      29.379 -15.690  -5.701  0.00  0.00    -0.059 A 
ATOM     27  C   UNL d   1      30.090 -16.994  -5.515  0.00  0.00     0.048 C 
ATOM     28  C   UNL d   1      29.547 -14.994  -6.899  0.00  0.00     0.013 A 
ATOM     29  C   UNL d   1      29.088 -13.685  -7.017  0.00  0.00    -0.059 A 
ATOM     30  C   UNL d   1      29.390 -12.880  -8.244  0.00  0.00     0.048 C 
ATOM     31  C   UNL d   1      28.406 -13.095  -5.940  0.00  0.00     0.036 A 
ENDBRANCH  22  24
ENDBRANCH  21  22
ENDBRANCH  20  21
ENDBRANCH   2  20
TORSDOF 10
ENDMDL
MODEL 8
REMARK VINA RESULT:    -7.679      2.013      3.312
REMARK INTER + INTRA:         -12.408
REMARK INTER:                 -10.662
REMARK INTRA:                  -1.746
REMARK CONF_INDEPENDENT:        2.983
REMARK UNBOUND:                -1.746
REMARK  10 active torsions:
REMARK  status: ('A' for Active; 'I' for Inactive)
REMARK    1  A    between atoms: O_2  and  C_3 
REMARK    2  A    between atoms: C_3  and  C_4 
REMARK    3  A    between atoms: C_4  and  O_5 
REMARK    4  A    between atoms: O_5  and  C_6 
REMARK       I    between atoms: C_6  and  N_8 
REMARK    5  A    between atoms: N_8  and  C_9 
REMARK    6  A    between atoms: C_13  and  N_14 
REMARK       I    between atoms: N_14  and  C_15 
REMARK    7  A    between atoms: C_15  and  C_17 
REMARK    8  A    between atoms: C_17  and  C_18 
REMARK    9  A    between atoms: C_18  and  N_19 
REMARK   10  A    between atoms: N_19  and  C_20 
ROOT
ATOM      1  N   UNL d   1      26.036 -17.928  -0.461  0.00  0.00    -0.327 N 
ATOM      2  C   UNL d   1      26.984 -16.932  -0.226  0.00  0.00     0.223 C 
ATOM      3  O   UNL d   1      26.728 -15.755   0.021  0.00  0.00    -0.273 OA
ATOM      4  H   UNL d   1      26.345 -18.884  -0.587  0.00  0.00     0.169 HD
ENDROOT
BRANCH   1   5
ATOM      5  C   UNL d   1      24.628 -17.684  -0.467  0.00  0.00     0.036 A 
ATOM      6  C   UNL d   1      24.098 -16.450  -0.845  0.00  0.00     0.029 A 
ATOM      7  C   UNL d   1      22.698 -16.286  -0.921  0.00  0.00     0.004 A 
ATOM      8  C   UNL d   1      21.819 -17.333  -0.577  0.00  0.00     0.030 A 
ATOM      9  C   UNL d   1      22.337 -18.552  -0.164  0.00  0.00     0.039 A 
ATOM     10  C   UNL d   1      23.720 -18.691  -0.122  0.00  0.00     0.059 A 
BRANCH   9  11
ATOM     11  N   UNL d   1      21.531 -19.679   0.150  0.00  0.00    -0.303 N 
ATOM     12  C   UNL d   1      20.458 -20.088  -0.629  0.00  0.00     0.365 C 
ATOM     13  O   UNL d   1      20.171 -19.631  -1.735  0.00  0.00    -0.238 OA
ATOM     14  H   UNL d   1      21.758 -20.228   0.966  0.00  0.00     0.171 HD
BRANCH  12  15
ATOM     15  O   UNL d   1      19.768 -21.129  -0.070  0.00  0.00    -0.302 OA
BRANCH  15  16
ATOM     16  C   UNL d   1      18.788 -20.701   0.914  0.00  0.00     0.207 C 
BRANCH  16  17
ATOM     17  C   UNL d   1      19.170 -19.341   1.505  0.00  0.00     0.193 C 
BRANCH  17  18
ATOM     18  O   UNL d   1      20.287 -19.461   2.395  0.00  0.00    -0.394 OA
ATOM     19  C   UNL d   1      20.047 -20.447   3.396  0.00  0.00     0.201 C 
ENDBRANCH  17  18
ENDBRANCH  16  17
ENDBRANCH  15  16
ENDBRANCH  12  15
ENDBRANCH   9  11
ENDBRANCH   1   5
BRANCH   2  20
ATOM     20  C   UNL d   1      28.438 -17.337  -0.242  0.00  0.00     0.122 C 
BRANCH  20  21
ATOM     21  C   UNL d   1      29.248 -16.036  -0.411  0.00  0.00     0.129 C 
BRANCH  21  22
ATOM     22  N   UNL d   1      29.875 -15.942  -1.712  0.00  0.00    -0.389 N 
ATOM     23  H   UNL d   1      30.884 -15.922  -1.785  0.00  0.00     0.159 HD
BRANCH  22  24
ATOM     24  C   UNL d   1      29.153 -15.541  -2.827  0.00  0.00     0.028 A 
ATOM     25  C   UNL d   1      27.835 -15.108  -2.651  0.00  0.00     0.036 A 
ATOM     26  C   UNL d   1      27.024 -14.776  -3.744  0.00  0.00    -0.059 A 
ATOM     27  C   UNL d   1      25.551 -14.566  -3.582  0.00  0.00     0.048 C 
ATOM     28  C   UNL d   1      27.572 -14.755  -5.027  0.00  0.00     0.013 A 
ATOM     29  C   UNL d   1      28.887 -15.168  -5.232  0.00  0.00    -0.059 A 
ATOM     30  C   UNL d   1      29.438 -15.288  -6.620  0.00  0.00     0.048 C 
ATOM     31  C   UNL d   1      29.669 -15.548  -4.129  0.00  0.00     0.036 A 
ENDBRANCH  22  24
ENDBRANCH  21  22
ENDBRANCH  20  21
ENDBRANCH   2  20
TORSDOF 10
ENDMDL
MODEL 9
REMARK VINA RESULT:    -7.485      2.697      3.947
REMARK INTER + INTRA:         -11.994
REMARK INTER:                 -10.468
REMARK INTRA:                  -1.526
REMARK CONF_INDEPENDENT:        2.983
REMARK UNBOUND:                -1.526
REMARK  10 active torsions:
REMARK  status: ('A' for Active; 'I' for Inactive)
REMARK    1  A    between atoms: O_2  and  C_3 
REMARK    2  A    between atoms: C_3  and  C_4 
REMARK    3  A    between atoms: C_4  and  O_5 
REMARK    4  A    between atoms: O_5  and  C_6 
REMARK       I    between atoms: C_6  and  N_8 
REMARK    5  A    between atoms: N_8  and  C_9 
REMARK    6  A    between atoms: C_13  and  N_14 
REMARK       I    between atoms: N_14  and  C_15 
REMARK    7  A    between atoms: C_15  and  C_17 
REMARK    8  A    between atoms: C_17  and  C_18 
REMARK    9  A    between atoms: C_18  and  N_19 
REMARK   10  A    between atoms: N_19  and  C_20 
ROOT
ATOM      1  N   UNL d   1      26.008 -15.813  -2.837  0.00  0.00    -0.327 N 
ATOM      2  C   UNL d   1      25.166 -14.833  -3.361  0.00  0.00     0.223 C 
ATOM      3  O   UNL d   1      24.053 -14.548  -2.923  0.00  0.00    -0.273 OA
ATOM      4  H   UNL d   1      26.937 -15.925  -3.225  0.00  0.00     0.169 HD
ENDROOT
BRANCH   1   5
ATOM      5  C   UNL d   1      25.656 -16.636  -1.723  0.00  0.00     0.036 A 
ATOM      6  C   UNL d   1      26.622 -17.167  -0.868  0.00  0.00     0.029 A 
ATOM      7  C   UNL d   1      26.219 -17.899   0.269  0.00  0.00     0.004 A 
ATOM      8  C   UNL d   1      24.857 -18.147   0.536  0.00  0.00     0.030 A 
ATOM      9  C   UNL d   1      23.891 -17.654  -0.329  0.00  0.00     0.039 A 
ATOM     10  C   UNL d   1      24.317 -16.916  -1.428  0.00  0.00     0.059 A 
BRANCH   9  11
ATOM     11  N   UNL d   1      22.495 -17.806  -0.114  0.00  0.00    -0.303 N 
ATOM     12  C   UNL d   1      21.676 -18.561  -0.942  0.00  0.00     0.365 C 
ATOM     13  O   UNL d   1      22.068 -19.293  -1.850  0.00  0.00    -0.238 OA
ATOM     14  H   UNL d   1      22.075 -17.366   0.691  0.00  0.00     0.171 HD
BRANCH  12  15
ATOM     15  O   UNL d   1      20.355 -18.471  -0.597  0.00  0.00    -0.302 OA
BRANCH  15  16
ATOM     16  C   UNL d   1      19.618 -19.700  -0.839  0.00  0.00     0.207 C 
BRANCH  16  17
ATOM     17  C   UNL d   1      18.780 -20.079   0.386  0.00  0.00     0.193 C 
BRANCH  17  18
ATOM     18  O   UNL d   1      19.100 -19.247   1.508  0.00  0.00    -0.394 OA
ATOM     19  C   UNL d   1      20.281 -19.698   2.166  0.00  0.00     0.201 C 
ENDBRANCH  17  18
ENDBRANCH  16  17
ENDBRANCH  15  16
ENDBRANCH  12  15
ENDBRANCH   9  11
ENDBRANCH   1   5
BRANCH   2  20
ATOM     20  C   UNL d   1      25.673 -14.033  -4.537  0.00  0.00     0.122 C 
BRANCH  20  21
ATOM     21  C   UNL d   1      26.651 -12.989  -3.963  0.00  0.00     0.129 C 
BRANCH  21  22
ATOM     22  N   UNL d   1      26.100 -12.288  -2.823  0.00  0.00    -0.389 N 
ATOM     23  H   UNL d   1      25.412 -11.558  -2.964  0.00  0.00     0.159 HD
BRANCH  22  24
ATOM     24  C   UNL d   1      26.719 -12.339  -1.582  0.00  0.00     0.028 A 
ATOM     25  C   UNL d   1      27.407 -11.209  -1.131  0.00  0.00     0.036 A 
ATOM     26  C   UNL d   1      28.129 -11.226   0.070  0.00  0.00    -0.059 A 
ATOM     27  C   UNL d   1      29.071 -10.118   0.425  0.00  0.00     0.048 C 
ATOM     28  C   UNL d   1      28.064 -12.348   0.897  0.00  0.00     0.013 A 
ATOM     29  C   UNL d   1      27.373 -13.484   0.481  0.00  0.00    -0.059 A 
ATOM     30  C   UNL d   1      27.418 -14.742   1.294  0.00  0.00     0.048 C 
ATOM     31  C   UNL d   1      26.700 -13.467  -0.752  0.00  0.00     0.036 A 
ENDBRANCH  22  24
ENDBRANCH  21  22
ENDBRANCH  20  21
ENDBRANCH   2  20
TORSDOF 10
ENDMDL
