MODEL 1
REMARK VINA RESULT:    -8.828      0.000      0.000
REMARK INTER + INTRA:         -11.885
REMARK INTER:                 -10.319
REMARK INTRA:                  -1.565
REMARK CONF_INDEPENDENT:        1.492
REMARK UNBOUND:                -1.565
REMARK  5 active torsions:
REMARK  status: ('A' for Active; 'I' for Inactive)
REMARK    1  A    between atoms: C_5  and  N_6 
REMARK       I    between atoms: N_6  and  C_7 
REMARK    2  A    between atoms: C_9  and  C_7 
REMARK    3  A    between atoms: C_9  and  C_21 
REMARK    4  A    between atoms: C_9  and  N_10 
REMARK    5  A    between atoms: N_10  and  C_11 
ROOT
ATOM      1  C   UNL d   1      24.496 -16.285  -1.875  0.00  0.00     0.208 C 
ENDROOT
BRANCH   1   2
ATOM      2  C   UNL d   1      25.686 -16.397  -0.932  0.00  0.00    -0.026 A 
ATOM      3  C   UNL d   1      26.148 -17.681  -0.577  0.00  0.00     0.010 A 
ATOM      4  C   UNL d   1      27.166 -17.834   0.361  0.00  0.00     0.001 A 
ATOM      5  C   UNL d   1      27.760 -16.712   0.932  0.00  0.00     0.000 A 
ATOM      6  C   UNL d   1      27.346 -15.440   0.562  0.00  0.00     0.001 A 
ATOM      7  C   UNL d   1      26.316 -15.285  -0.358  0.00  0.00     0.010 A 
ENDBRANCH   1   2
BRANCH   1   8
ATOM      8  N   UNL d   1      24.330 -14.938  -2.449  0.00  0.00    -0.373 N 
ATOM      9  H   UNL d   1      23.544 -14.380  -2.161  0.00  0.00     0.161 HD
BRANCH   8  10
ATOM     10  C   UNL d   1      25.131 -14.340  -3.401  0.00  0.00     0.029 A 
ATOM     11  C   UNL d   1      24.921 -13.038  -3.894  0.00  0.00     0.030 A 
ATOM     12  C   UNL d   1      25.817 -12.374  -4.733  0.00  0.00     0.012 A 
ATOM     13  C   UNL d   1      26.883 -13.094  -5.202  0.00  0.00    -0.025 A 
ATOM     14  C   UNL d   1      27.055 -14.411  -4.791  0.00  0.00     0.042 A 
ATOM     15  C   UNL d   1      27.926 -12.720  -6.191  0.00  0.00     0.162 A 
ATOM     16  C   UNL d   1      26.226 -15.050  -3.892  0.00  0.00     0.046 A 
ATOM     17  C   UNL d   1      28.215 -14.957  -5.488  0.00  0.00     0.252 A 
ATOM     18  O   UNL d   1      28.631 -16.085  -5.387  0.00  0.00    -0.268 OA
ATOM     19  N   UNL d   1      28.708 -13.936  -6.276  0.00  0.00    -0.353 N 
ATOM     20  H   UNL d   1      29.509 -14.103  -6.870  0.00  0.00     0.163 HD
ENDBRANCH   8  10
ENDBRANCH   1   8
BRANCH   1  21
ATOM     21  C   UNL d   1      23.184 -16.824  -1.232  0.00  0.00     0.249 C 
ATOM     22  N   UNL d   1      22.810 -18.149  -1.419  0.00  0.00    -0.325 N 
ATOM     23  H   UNL d   1      23.246 -18.681  -2.163  0.00  0.00     0.169 HD
ATOM     24  O   UNL d   1      22.483 -16.034  -0.593  0.00  0.00    -0.270 OA
BRANCH  22  25
ATOM     25  C   UNL d   1      21.745 -18.759  -0.703  0.00  0.00     0.034 A 
ATOM     26  C   UNL d   1      21.755 -18.774   0.692  0.00  0.00     0.030 A 
ATOM     27  C   UNL d   1      20.667 -19.325   1.395  0.00  0.00     0.009 A 
ATOM     28  C   UNL d   1      19.569 -19.867   0.713  0.00  0.00    -0.062 A 
ATOM     29  C   UNL d   1      18.374 -20.434   1.409  0.00  0.00     0.048 C 
ATOM     30  C   UNL d   1      19.571 -19.866  -0.673  0.00  0.00     0.009 A 
ATOM     31  C   UNL d   1      20.640 -19.316  -1.359  0.00  0.00     0.030 A 
ENDBRANCH  22  25
ENDBRANCH   1  21
TORSDOF 5
ENDMDL
MODEL 2
REMARK VINA RESULT:    -8.495      2.271      3.484
REMARK INTER + INTRA:         -11.527
REMARK INTER:                  -9.987
REMARK INTRA:                  -1.540
REMARK CONF_INDEPENDENT:        1.492
REMARK UNBOUND:                -1.540
REMARK  5 active torsions:
REMARK  status: ('A' for Active; 'I' for Inactive)
REMARK    1  A    between atoms: C_5  and  N_6 
REMARK       I    between atoms: N_6  and  C_7 
REMARK    2  A    between atoms: C_9  and  C_7 
REMARK    3  A    between atoms: C_9  and  C_21 
REMARK    4  A    between atoms: C_9  and  N_10 
REMARK    5  A    between atoms: N_10  and  C_11 
ROOT
ATOM      1  C   UNL d   1      27.950 -16.581   0.017  0.00  0.00     0.208 C 
ENDROOT
BRANCH   1   2
ATOM      2  C   UNL d   1      28.032 -15.227   0.706  0.00  0.00    -0.026 A 
ATOM      3  C   UNL d   1      29.264 -14.825   1.263  0.00  0.00     0.010 A 
ATOM      4  C   UNL d   1      29.361 -13.642   1.993  0.00  0.00     0.001 A 
ATOM      5  C   UNL d   1      28.243 -12.828   2.148  0.00  0.00     0.000 A 
ATOM      6  C   UNL d   1      27.032 -13.188   1.571  0.00  0.00     0.001 A 
ATOM      7  C   UNL d   1      26.928 -14.378   0.860  0.00  0.00     0.010 A 
ENDBRANCH   1   2
BRANCH   1   8
ATOM      8  N   UNL d   1      28.411 -16.554  -1.383  0.00  0.00    -0.373 N 
ATOM      9  H   UNL d   1      29.011 -17.291  -1.713  0.00  0.00     0.161 HD
BRANCH   8  10
ATOM     10  C   UNL d   1      28.140 -15.580  -2.323  0.00  0.00     0.029 A 
ATOM     11  C   UNL d   1      29.134 -14.898  -3.051  0.00  0.00     0.030 A 
ATOM     12  C   UNL d   1      28.861 -14.033  -4.112  0.00  0.00     0.012 A 
ATOM     13  C   UNL d   1      27.546 -13.737  -4.352  0.00  0.00    -0.025 A 
ATOM     14  C   UNL d   1      26.556 -14.337  -3.581  0.00  0.00     0.042 A 
ATOM     15  C   UNL d   1      26.944 -12.772  -5.308  0.00  0.00     0.162 A 
ATOM     16  C   UNL d   1      26.809 -15.262  -2.591  0.00  0.00     0.046 A 
ATOM     17  C   UNL d   1      25.265 -13.797  -3.998  0.00  0.00     0.252 A 
ATOM     18  O   UNL d   1      24.196 -14.080  -3.518  0.00  0.00    -0.268 OA
ATOM     19  N   UNL d   1      25.531 -12.907  -5.019  0.00  0.00    -0.353 N 
ATOM     20  H   UNL d   1      24.773 -12.394  -5.447  0.00  0.00     0.163 HD
ENDBRANCH   8  10
ENDBRANCH   1   8
BRANCH   1  21
ATOM     21  C   UNL d   1      26.544 -17.234   0.167  0.00  0.00     0.249 C 
ATOM     22  N   UNL d   1      25.438 -16.652  -0.438  0.00  0.00    -0.325 N 
ATOM     23  H   UNL d   1      25.500 -15.691  -0.755  0.00  0.00     0.169 HD
ATOM     24  O   UNL d   1      26.447 -18.249   0.863  0.00  0.00    -0.270 OA
BRANCH  22  25
ATOM     25  C   UNL d   1      24.173 -17.294  -0.514  0.00  0.00     0.034 A 
ATOM     26  C   UNL d   1      23.020 -16.546  -0.759  0.00  0.00     0.030 A 
ATOM     27  C   UNL d   1      21.779 -17.195  -0.895  0.00  0.00     0.009 A 
ATOM     28  C   UNL d   1      21.678 -18.588  -0.782  0.00  0.00    -0.062 A 
ATOM     29  C   UNL d   1      20.392 -19.331  -0.950  0.00  0.00     0.048 C 
ATOM     30  C   UNL d   1      22.822 -19.326  -0.520  0.00  0.00     0.009 A 
ATOM     31  C   UNL d   1      24.041 -18.683  -0.396  0.00  0.00     0.030 A 
ENDBRANCH  22  25
ENDBRANCH   1  21
TORSDOF 5
ENDMDL
MODEL 3
REMARK VINA RESULT:    -8.068      2.299      8.363
REMARK INTER + INTRA:         -10.978
REMARK INTER:                  -9.559
REMARK INTRA:                  -1.418
REMARK CONF_INDEPENDENT:        1.492
REMARK UNBOUND:                -1.418
REMARK  5 active torsions:
REMARK  status: ('A' for Active; 'I' for Inactive)
REMARK    1  A    between atoms: C_5  and  N_6 
REMARK       I    between atoms: N_6  and  C_7 
REMARK    2  A    between atoms: C_9  and  C_7 
REMARK    3  A    between atoms: C_9  and  C_21 
REMARK    4  A    between atoms: C_9  and  N_10 
REMARK    5  A    between atoms: N_10  and  C_11 
ROOT
ATOM      1  C   UNL d   1      25.558 -13.612  -4.237  0.00  0.00     0.208 C 
ENDROOT
BRANCH   1   2
ATOM      2  C   UNL d   1      25.830 -12.171  -4.648  0.00  0.00    -0.026 A 
ATOM      3  C   UNL d   1      25.586 -11.144  -3.714  0.00  0.00     0.010 A 
ATOM      4  C   UNL d   1      25.722  -9.806  -4.078  0.00  0.00     0.001 A 
ATOM      5  C   UNL d   1      26.135  -9.475  -5.365  0.00  0.00     0.000 A 
ATOM      6  C   UNL d   1      26.420 -10.475  -6.285  0.00  0.00     0.001 A 
ATOM      7  C   UNL d   1      26.265 -11.810  -5.931  0.00  0.00     0.010 A 
ENDBRANCH   1   2
BRANCH   1   8
ATOM      8  N   UNL d   1      25.446 -13.793  -2.779  0.00  0.00    -0.373 N 
ATOM      9  H   UNL d   1      25.392 -12.979  -2.190  0.00  0.00     0.161 HD
BRANCH   8  10
ATOM     10  C   UNL d   1      25.445 -14.990  -2.093  0.00  0.00     0.029 A 
ATOM     11  C   UNL d   1      26.616 -15.652  -1.673  0.00  0.00     0.030 A 
ATOM     12  C   UNL d   1      26.615 -16.775  -0.844  0.00  0.00     0.012 A 
ATOM     13  C   UNL d   1      25.400 -17.329  -0.545  0.00  0.00    -0.025 A 
ATOM     14  C   UNL d   1      24.238 -16.735  -1.026  0.00  0.00     0.042 A 
ATOM     15  C   UNL d   1      25.075 -18.575   0.195  0.00  0.00     0.162 A 
ATOM     16  C   UNL d   1      24.221 -15.575  -1.771  0.00  0.00     0.046 A 
ATOM     17  C   UNL d   1      23.104 -17.560  -0.621  0.00  0.00     0.252 A 
ATOM     18  O   UNL d   1      21.949 -17.351  -0.895  0.00  0.00    -0.268 OA
ATOM     19  N   UNL d   1      23.630 -18.609   0.106  0.00  0.00    -0.353 N 
ATOM     20  H   UNL d   1      23.016 -19.325   0.469  0.00  0.00     0.163 HD
ENDBRANCH   8  10
ENDBRANCH   1   8
BRANCH   1  21
ATOM     21  C   UNL d   1      26.565 -14.608  -4.884  0.00  0.00     0.249 C 
ATOM     22  N   UNL d   1      27.930 -14.357  -4.824  0.00  0.00    -0.325 N 
ATOM     23  H   UNL d   1      28.247 -13.423  -4.589  0.00  0.00     0.169 HD
ATOM     24  O   UNL d   1      26.110 -15.593  -5.474  0.00  0.00    -0.270 OA
BRANCH  22  25
ATOM     25  C   UNL d   1      28.909 -15.312  -5.208  0.00  0.00     0.034 A 
ATOM     26  C   UNL d   1      29.288 -16.324  -4.324  0.00  0.00     0.030 A 
ATOM     27  C   UNL d   1      30.212 -17.302  -4.734  0.00  0.00     0.009 A 
ATOM     28  C   UNL d   1      30.767 -17.276  -6.021  0.00  0.00    -0.062 A 
ATOM     29  C   UNL d   1      31.727 -18.308  -6.518  0.00  0.00     0.048 C 
ATOM     30  C   UNL d   1      30.403 -16.259  -6.889  0.00  0.00     0.009 A 
ATOM     31  C   UNL d   1      29.487 -15.304  -6.484  0.00  0.00     0.030 A 
ENDBRANCH  22  25
ENDBRANCH   1  21
TORSDOF 5
ENDMDL
MODEL 4
REMARK VINA RESULT:    -8.022      1.866      2.738
REMARK INTER + INTRA:         -10.746
REMARK INTER:                  -9.513
REMARK INTRA:                  -1.233
REMARK CONF_INDEPENDENT:        1.492
REMARK UNBOUND:                -1.233
REMARK  5 active torsions:
REMARK  status: ('A' for Active; 'I' for Inactive)
REMARK    1  A    between atoms: C_5  and  N_6 
REMARK       I    between atoms: N_6  and  C_7 
REMARK    2  A    between atoms: C_9  and  C_7 
REMARK    3  A    between atoms: C_9  and  C_21 
REMARK    4  A    between atoms: C_9  and  N_10 
REMARK    5  A    between atoms: N_10  and  C_11 
ROOT
ATOM      1  C   UNL d   1      26.694 -14.320  -1.743  0.00  0.00     0.208 C 
ENDROOT
BRANCH   1   2
ATOM      2  C   UNL d   1      27.178 -14.122  -0.313  0.00  0.00    -0.026 A 
ATOM      3  C   UNL d   1      28.402 -14.706   0.073  0.00  0.00     0.010 A 
ATOM      4  C   UNL d   1      28.833 -14.639   1.396  0.00  0.00     0.001 A 
ATOM      5  C   UNL d   1      28.070 -13.961   2.342  0.00  0.00     0.000 A 
ATOM      6  C   UNL d   1      26.883 -13.345   1.970  0.00  0.00     0.001 A 
ATOM      7  C   UNL d   1      26.440 -13.428   0.655  0.00  0.00     0.010 A 
ENDBRANCH   1   2
BRANCH   1   8
ATOM      8  N   UNL d   1      26.394 -13.057  -2.440  0.00  0.00    -0.373 N 
ATOM      9  H   UNL d   1      25.893 -12.336  -1.948  0.00  0.00     0.161 HD
BRANCH   8  10
ATOM     10  C   UNL d   1      26.694 -12.744  -3.750  0.00  0.00     0.029 A 
ATOM     11  C   UNL d   1      26.357 -11.519  -4.359  0.00  0.00     0.030 A 
ATOM     12  C   UNL d   1      26.797 -11.138  -5.628  0.00  0.00     0.012 A 
ATOM     13  C   UNL d   1      27.478 -12.074  -6.359  0.00  0.00    -0.025 A 
ATOM     14  C   UNL d   1      27.743 -13.321  -5.801  0.00  0.00     0.042 A 
ATOM     15  C   UNL d   1      27.961 -12.022  -7.762  0.00  0.00     0.162 A 
ATOM     16  C   UNL d   1      27.391 -13.677  -4.517  0.00  0.00     0.046 A 
ATOM     17  C   UNL d   1      28.411 -14.137  -6.810  0.00  0.00     0.252 A 
ATOM     18  O   UNL d   1      28.758 -15.283  -6.670  0.00  0.00    -0.268 OA
ATOM     19  N   UNL d   1      28.540 -13.339  -7.929  0.00  0.00    -0.353 N 
ATOM     20  H   UNL d   1      28.961 -13.715  -8.767  0.00  0.00     0.163 HD
ENDBRANCH   8  10
ENDBRANCH   1   8
BRANCH   1  21
ATOM     21  C   UNL d   1      25.521 -15.341  -1.831  0.00  0.00     0.249 C 
ATOM     22  N   UNL d   1      25.341 -16.284  -0.827  0.00  0.00    -0.325 N 
ATOM     23  H   UNL d   1      26.104 -16.467  -0.184  0.00  0.00     0.169 HD
ATOM     24  O   UNL d   1      24.793 -15.304  -2.828  0.00  0.00    -0.270 OA
BRANCH  22  25
ATOM     25  C   UNL d   1      24.186 -17.106  -0.737  0.00  0.00     0.034 A 
ATOM     26  C   UNL d   1      22.916 -16.551  -0.897  0.00  0.00     0.030 A 
ATOM     27  C   UNL d   1      21.780 -17.381  -0.868  0.00  0.00     0.009 A 
ATOM     28  C   UNL d   1      21.903 -18.764  -0.676  0.00  0.00    -0.062 A 
ATOM     29  C   UNL d   1      20.733 -19.695  -0.670  0.00  0.00     0.048 C 
ATOM     30  C   UNL d   1      23.164 -19.309  -0.499  0.00  0.00     0.009 A 
ATOM     31  C   UNL d   1      24.279 -18.489  -0.537  0.00  0.00     0.030 A 
ENDBRANCH  22  25
ENDBRANCH   1  21
TORSDOF 5
ENDMDL
MODEL 5
REMARK VINA RESULT:    -7.991      3.947      7.088
REMARK INTER + INTRA:         -10.732
REMARK INTER:                  -9.483
REMARK INTRA:                  -1.249
REMARK CONF_INDEPENDENT:        1.492
REMARK UNBOUND:                -1.249
REMARK  5 active torsions:
REMARK  status: ('A' for Active; 'I' for Inactive)
REMARK    1  A    between atoms: C_5  and  N_6 
REMARK       I    between atoms: N_6  and  C_7 
REMARK    2  A    between atoms: C_9  and  C_7 
REMARK    3  A    between atoms: C_9  and  C_21 
REMARK    4  A    between atoms: C_9  and  N_10 
REMARK    5  A    between atoms: N_10  and  C_11 
ROOT
ATOM      1  C   UNL d   1      27.558 -15.334   0.166  0.00  0.00     0.208 C 
ENDROOT
BRANCH   1   2
ATOM      2  C   UNL d   1      26.319 -16.145  -0.185  0.00  0.00    -0.026 A 
ATOM      3  C   UNL d   1      26.229 -17.475   0.275  0.00  0.00     0.010 A 
ATOM      4  C   UNL d   1      25.163 -18.287  -0.107  0.00  0.00     0.001 A 
ATOM      5  C   UNL d   1      24.157 -17.775  -0.922  0.00  0.00     0.000 A 
ATOM      6  C   UNL d   1      24.209 -16.455  -1.349  0.00  0.00     0.001 A 
ATOM      7  C   UNL d   1      25.281 -15.650  -0.986  0.00  0.00     0.010 A 
ENDBRANCH   1   2
BRANCH   1   8
ATOM      8  N   UNL d   1      28.805 -16.116   0.106  0.00  0.00    -0.373 N 
ATOM      9  H   UNL d   1      29.290 -16.328   0.962  0.00  0.00     0.161 HD
BRANCH   8  10
ATOM     10  C   UNL d   1      29.436 -16.580  -1.031  0.00  0.00     0.029 A 
ATOM     11  C   UNL d   1      30.529 -17.469  -1.012  0.00  0.00     0.030 A 
ATOM     12  C   UNL d   1      31.064 -18.062  -2.156  0.00  0.00     0.012 A 
ATOM     13  C   UNL d   1      30.577 -17.639  -3.364  0.00  0.00    -0.025 A 
ATOM     14  C   UNL d   1      29.557 -16.694  -3.399  0.00  0.00     0.042 A 
ATOM     15  C   UNL d   1      31.017 -17.977  -4.742  0.00  0.00     0.162 A 
ATOM     16  C   UNL d   1      28.959 -16.168  -2.274  0.00  0.00     0.046 A 
ATOM     17  C   UNL d   1      29.281 -16.375  -4.797  0.00  0.00     0.252 A 
ATOM     18  O   UNL d   1      28.472 -15.572  -5.189  0.00  0.00    -0.268 OA
ATOM     19  N   UNL d   1      30.135 -17.158  -5.547  0.00  0.00    -0.353 N 
ATOM     20  H   UNL d   1      30.131 -17.081  -6.555  0.00  0.00     0.163 HD
ENDBRANCH   8  10
ENDBRANCH   1   8
BRANCH   1  21
ATOM     21  C   UNL d   1      27.400 -14.571   1.515  0.00  0.00     0.249 C 
ATOM     22  N   UNL d   1      28.113 -14.979   2.635  0.00  0.00    -0.325 N 
ATOM     23  H   UNL d   1      28.530 -15.904   2.641  0.00  0.00     0.169 HD
ATOM     24  O   UNL d   1      26.603 -13.629   1.559  0.00  0.00    -0.270 OA
BRANCH  22  25
ATOM     25  C   UNL d   1      28.175 -14.217   3.832  0.00  0.00     0.034 A 
ATOM     26  C   UNL d   1      28.415 -14.847   5.054  0.00  0.00     0.030 A 
ATOM     27  C   UNL d   1      28.536 -14.079   6.226  0.00  0.00     0.009 A 
ATOM     28  C   UNL d   1      28.414 -12.683   6.190  0.00  0.00    -0.062 A 
ATOM     29  C   UNL d   1      28.567 -11.818   7.399  0.00  0.00     0.048 C 
ATOM     30  C   UNL d   1      28.158 -12.063   4.978  0.00  0.00     0.009 A 
ATOM     31  C   UNL d   1      28.048 -12.822   3.826  0.00  0.00     0.030 A 
ENDBRANCH  22  25
ENDBRANCH   1  21
TORSDOF 5
ENDMDL
MODEL 6
REMARK VINA RESULT:    -7.803      2.198      3.412
REMARK INTER + INTRA:         -10.650
REMARK INTER:                  -9.294
REMARK INTRA:                  -1.356
REMARK CONF_INDEPENDENT:        1.492
REMARK UNBOUND:                -1.356
REMARK  5 active torsions:
REMARK  status: ('A' for Active; 'I' for Inactive)
REMARK    1  A    between atoms: C_5  and  N_6 
REMARK       I    between atoms: N_6  and  C_7 
REMARK    2  A    between atoms: C_9  and  C_7 
REMARK    3  A    between atoms: C_9  and  C_21 
REMARK    4  A    between atoms: C_9  and  N_10 
REMARK    5  A    between atoms: N_10  and  C_11 
ROOT
ATOM      1  C   UNL d   1      28.201 -16.695  -0.034  0.00  0.00     0.208 C 
ENDROOT
BRANCH   1   2
ATOM      2  C   UNL d   1      28.211 -15.231   0.383  0.00  0.00    -0.026 A 
ATOM      3  C   UNL d   1      29.240 -14.398  -0.101  0.00  0.00     0.010 A 
ATOM      4  C   UNL d   1      29.350 -13.079   0.334  0.00  0.00     0.001 A 
ATOM      5  C   UNL d   1      28.417 -12.563   1.230  0.00  0.00     0.000 A 
ATOM      6  C   UNL d   1      27.373 -13.358   1.684  0.00  0.00     0.001 A 
ATOM      7  C   UNL d   1      27.274 -14.680   1.267  0.00  0.00     0.010 A 
ENDBRANCH   1   2
BRANCH   1   8
ATOM      8  N   UNL d   1      28.791 -16.929  -1.364  0.00  0.00    -0.373 N 
ATOM      9  H   UNL d   1      29.548 -17.585  -1.452  0.00  0.00     0.161 HD
BRANCH   8  10
ATOM     10  C   UNL d   1      28.444 -16.302  -2.544  0.00  0.00     0.029 A 
ATOM     11  C   UNL d   1      27.285 -15.517  -2.701  0.00  0.00     0.030 A 
ATOM     12  C   UNL d   1      27.014 -14.755  -3.839  0.00  0.00     0.012 A 
ATOM     13  C   UNL d   1      27.864 -14.900  -4.903  0.00  0.00    -0.025 A 
ATOM     14  C   UNL d   1      28.965 -15.742  -4.791  0.00  0.00     0.042 A 
ATOM     15  C   UNL d   1      27.780 -14.336  -6.274  0.00  0.00     0.162 A 
ATOM     16  C   UNL d   1      29.293 -16.430  -3.643  0.00  0.00     0.046 A 
ATOM     17  C   UNL d   1      29.653 -15.763  -6.079  0.00  0.00     0.252 A 
ATOM     18  O   UNL d   1      30.634 -16.413  -6.342  0.00  0.00    -0.268 OA
ATOM     19  N   UNL d   1      28.946 -14.916  -6.908  0.00  0.00    -0.353 N 
ATOM     20  H   UNL d   1      29.237 -14.796  -7.869  0.00  0.00     0.163 HD
ENDBRANCH   8  10
ENDBRANCH   1   8
BRANCH   1  21
ATOM     21  C   UNL d   1      26.790 -17.338   0.111  0.00  0.00     0.249 C 
ATOM     22  N   UNL d   1      25.675 -16.700  -0.419  0.00  0.00    -0.325 N 
ATOM     23  H   UNL d   1      25.744 -15.720  -0.669  0.00  0.00     0.169 HD
ATOM     24  O   UNL d   1      26.697 -18.399   0.736  0.00  0.00    -0.270 OA
BRANCH  22  25
ATOM     25  C   UNL d   1      24.399 -17.318  -0.503  0.00  0.00     0.034 A 
ATOM     26  C   UNL d   1      23.262 -16.548  -0.752  0.00  0.00     0.030 A 
ATOM     27  C   UNL d   1      22.010 -17.174  -0.895  0.00  0.00     0.009 A 
ATOM     28  C   UNL d   1      21.883 -18.566  -0.786  0.00  0.00    -0.062 A 
ATOM     29  C   UNL d   1      20.583 -19.284  -0.962  0.00  0.00     0.048 C 
ATOM     30  C   UNL d   1      23.011 -19.325  -0.520  0.00  0.00     0.009 A 
ATOM     31  C   UNL d   1      24.241 -18.705  -0.388  0.00  0.00     0.030 A 
ENDBRANCH  22  25
ENDBRANCH   1  21
TORSDOF 5
ENDMDL
MODEL 7
REMARK VINA RESULT:    -7.662      2.755      3.939
REMARK INTER + INTRA:         -10.495
REMARK INTER:                  -9.153
REMARK INTRA:                  -1.342
REMARK CONF_INDEPENDENT:        1.492
REMARK UNBOUND:                -1.342
REMARK  5 active torsions:
REMARK  status: ('A' for Active; 'I' for Inactive)
REMARK    1  A    between atoms: C_5  and  N_6 
REMARK       I    between atoms: N_6  and  C_7 
REMARK    2  A    between atoms: C_9  and  C_7 
REMARK    3  A    between atoms: C_9  and  C_21 
REMARK    4  A    between atoms: C_9  and  N_10 
REMARK    5  A    between atoms: N_10  and  C_11 
ROOT
ATOM      1  C   UNL d   1      27.987 -14.858   0.645  0.00  0.00     0.208 C 
ENDROOT
BRANCH   1   2
ATOM      2  C   UNL d   1      28.087 -14.093   1.957  0.00  0.00    -0.026 A 
ATOM      3  C   UNL d   1      28.151 -14.823   3.162  0.00  0.00     0.010 A 
ATOM      4  C   UNL d   1      28.140 -14.166   4.391  0.00  0.00     0.001 A 
ATOM      5  C   UNL d   1      28.098 -12.776   4.435  0.00  0.00     0.000 A 
ATOM      6  C   UNL d   1      28.076 -12.040   3.258  0.00  0.00     0.001 A 
ATOM      7  C   UNL d   1      28.067 -12.693   2.031  0.00  0.00     0.010 A 
ENDBRANCH   1   2
BRANCH   1   8
ATOM      8  N   UNL d   1      28.603 -14.152  -0.492  0.00  0.00    -0.373 N 
ATOM      9  H   UNL d   1      29.603 -14.179  -0.598  0.00  0.00     0.161 HD
BRANCH   8  10
ATOM     10  C   UNL d   1      27.952 -13.396  -1.447  0.00  0.00     0.029 A 
ATOM     11  C   UNL d   1      28.175 -12.019  -1.639  0.00  0.00     0.030 A 
ATOM     12  C   UNL d   1      27.641 -11.289  -2.702  0.00  0.00     0.012 A 
ATOM     13  C   UNL d   1      26.744 -11.933  -3.512  0.00  0.00    -0.025 A 
ATOM     14  C   UNL d   1      26.448 -13.272  -3.280  0.00  0.00     0.042 A 
ATOM     15  C   UNL d   1      25.921 -11.407  -4.631  0.00  0.00     0.162 A 
ATOM     16  C   UNL d   1      27.037 -14.027  -2.288  0.00  0.00     0.046 A 
ATOM     17  C   UNL d   1      25.424 -13.683  -4.235  0.00  0.00     0.252 A 
ATOM     18  O   UNL d   1      24.916 -14.775  -4.295  0.00  0.00    -0.268 OA
ATOM     19  N   UNL d   1      25.160 -12.577  -5.018  0.00  0.00    -0.353 N 
ATOM     20  H   UNL d   1      24.455 -12.631  -5.740  0.00  0.00     0.163 HD
ENDBRANCH   8  10
ENDBRANCH   1   8
BRANCH   1  21
ATOM     21  C   UNL d   1      26.529 -15.317   0.341  0.00  0.00     0.249 C 
ATOM     22  N   UNL d   1      26.296 -16.561  -0.229  0.00  0.00    -0.325 N 
ATOM     23  H   UNL d   1      27.066 -17.051  -0.671  0.00  0.00     0.169 HD
ATOM     24  O   UNL d   1      25.610 -14.531   0.589  0.00  0.00    -0.270 OA
BRANCH  22  25
ATOM     25  C   UNL d   1      24.997 -17.126  -0.346  0.00  0.00     0.034 A 
ATOM     26  C   UNL d   1      23.915 -16.326  -0.716  0.00  0.00     0.030 A 
ATOM     27  C   UNL d   1      22.644 -16.904  -0.890  0.00  0.00     0.009 A 
ATOM     28  C   UNL d   1      22.443 -18.277  -0.692  0.00  0.00    -0.062 A 
ATOM     29  C   UNL d   1      21.122 -18.947  -0.894  0.00  0.00     0.048 C 
ATOM     30  C   UNL d   1      23.516 -19.064  -0.306  0.00  0.00     0.009 A 
ATOM     31  C   UNL d   1      24.766 -18.492  -0.145  0.00  0.00     0.030 A 
ENDBRANCH  22  25
ENDBRANCH   1  21
TORSDOF 5
ENDMDL
MODEL 8
REMARK VINA RESULT:    -7.607      3.536      6.608
REMARK INTER + INTRA:         -10.321
REMARK INTER:                  -9.098
REMARK INTRA:                  -1.223
REMARK CONF_INDEPENDENT:        1.492
REMARK UNBOUND:                -1.223
REMARK  5 active torsions:
REMARK  status: ('A' for Active; 'I' for Inactive)
REMARK    1  A    between atoms: C_5  and  N_6 
REMARK       I    between atoms: N_6  and  C_7 
REMARK    2  A    between atoms: C_9  and  C_7 
REMARK    3  A    between atoms: C_9  and  C_21 
REMARK    4  A    between atoms: C_9  and  N_10 
REMARK    5  A    between atoms: N_10  and  C_11 
ROOT
ATOM      1  C   UNL d   1      27.284 -14.831  -0.216  0.00  0.00     0.208 C 
ENDROOT
BRANCH   1   2
ATOM      2  C   UNL d   1      26.311 -15.981  -0.441  0.00  0.00    -0.026 A 
ATOM      3  C   UNL d   1      25.233 -15.789  -1.329  0.00  0.00     0.010 A 
ATOM      4  C   UNL d   1      24.261 -16.775  -1.488  0.00  0.00     0.001 A 
ATOM      5  C   UNL d   1      24.369 -17.975  -0.792  0.00  0.00     0.000 A 
ATOM      6  C   UNL d   1      25.447 -18.196   0.055  0.00  0.00     0.001 A 
ATOM      7  C   UNL d   1      26.406 -17.207   0.230  0.00  0.00     0.010 A 
ENDBRANCH   1   2
BRANCH   1   8
ATOM      8  N   UNL d   1      28.639 -15.103  -0.728  0.00  0.00    -0.373 N 
ATOM      9  H   UNL d   1      29.331 -15.475  -0.100  0.00  0.00     0.161 HD
BRANCH   8  10
ATOM     10  C   UNL d   1      29.103 -14.862  -2.005  0.00  0.00     0.029 A 
ATOM     11  C   UNL d   1      30.376 -14.329  -2.287  0.00  0.00     0.030 A 
ATOM     12  C   UNL d   1      30.909 -14.234  -3.574  0.00  0.00     0.012 A 
ATOM     13  C   UNL d   1      30.081 -14.554  -4.616  0.00  0.00    -0.025 A 
ATOM     14  C   UNL d   1      28.789 -14.999  -4.355  0.00  0.00     0.042 A 
ATOM     15  C   UNL d   1      30.302 -14.440  -6.080  0.00  0.00     0.162 A 
ATOM     16  C   UNL d   1      28.282 -15.182  -3.086  0.00  0.00     0.046 A 
ATOM     17  C   UNL d   1      28.111 -15.200  -5.632  0.00  0.00     0.252 A 
ATOM     18  O   UNL d   1      26.967 -15.556  -5.772  0.00  0.00    -0.268 OA
ATOM     19  N   UNL d   1      29.031 -14.885  -6.611  0.00  0.00    -0.353 N 
ATOM     20  H   UNL d   1      28.763 -14.933  -7.585  0.00  0.00     0.163 HD
ENDBRANCH   8  10
ENDBRANCH   1   8
BRANCH   1  21
ATOM     21  C   UNL d   1      27.293 -14.350   1.265  0.00  0.00     0.249 C 
ATOM     22  N   UNL d   1      28.128 -14.963   2.192  0.00  0.00    -0.325 N 
ATOM     23  H   UNL d   1      28.531 -15.866   1.967  0.00  0.00     0.169 HD
ATOM     24  O   UNL d   1      26.518 -13.445   1.587  0.00  0.00    -0.270 OA
BRANCH  22  25
ATOM     25  C   UNL d   1      28.338 -14.450   3.499  0.00  0.00     0.034 A 
ATOM     26  C   UNL d   1      29.619 -14.441   4.052  0.00  0.00     0.030 A 
ATOM     27  C   UNL d   1      29.830 -13.875   5.323  0.00  0.00     0.009 A 
ATOM     28  C   UNL d   1      28.768 -13.322   6.051  0.00  0.00    -0.062 A 
ATOM     29  C   UNL d   1      28.942 -12.679   7.389  0.00  0.00     0.048 C 
ATOM     30  C   UNL d   1      27.494 -13.349   5.507  0.00  0.00     0.009 A 
ATOM     31  C   UNL d   1      27.293 -13.899   4.253  0.00  0.00     0.030 A 
ENDBRANCH  22  25
ENDBRANCH   1  21
TORSDOF 5
ENDMDL
MODEL 9
REMARK VINA RESULT:    -7.516      3.166      7.757
REMARK INTER + INTRA:         -10.750
REMARK INTER:                  -9.008
REMARK INTRA:                  -1.743
REMARK CONF_INDEPENDENT:        1.492
REMARK UNBOUND:                -1.743
REMARK  5 active torsions:
REMARK  status: ('A' for Active; 'I' for Inactive)
REMARK    1  A    between atoms: C_5  and  N_6 
REMARK       I    between atoms: N_6  and  C_7 
REMARK    2  A    between atoms: C_9  and  C_7 
REMARK    3  A    between atoms: C_9  and  C_21 
REMARK    4  A    between atoms: C_9  and  N_10 
REMARK    5  A    between atoms: N_10  and  C_11 
ROOT
ATOM      1  C   UNL d   1      25.163 -13.916  -4.344  0.00  0.00     0.208 C 
ENDROOT
BRANCH   1   2
ATOM      2  C   UNL d   1      25.682 -12.496  -4.164  0.00  0.00    -0.026 A 
ATOM      3  C   UNL d   1      25.905 -11.708  -5.312  0.00  0.00     0.010 A 
ATOM      4  C   UNL d   1      26.476 -10.442  -5.203  0.00  0.00     0.001 A 
ATOM      5  C   UNL d   1      26.798  -9.930  -3.949  0.00  0.00     0.000 A 
ATOM      6  C   UNL d   1      26.546 -10.677  -2.806  0.00  0.00     0.001 A 
ATOM      7  C   UNL d   1      25.997 -11.948  -2.913  0.00  0.00     0.010 A 
ENDBRANCH   1   2
BRANCH   1   8
ATOM      8  N   UNL d   1      24.479 -14.444  -3.151  0.00  0.00    -0.373 N 
ATOM      9  H   UNL d   1      23.572 -14.082  -2.909  0.00  0.00     0.161 HD
BRANCH   8  10
ATOM     10  C   UNL d   1      24.967 -15.385  -2.267  0.00  0.00     0.029 A 
ATOM     11  C   UNL d   1      24.167 -16.364  -1.645  0.00  0.00     0.030 A 
ATOM     12  C   UNL d   1      24.681 -17.411  -0.879  0.00  0.00     0.012 A 
ATOM     13  C   UNL d   1      26.024 -17.391  -0.615  0.00  0.00    -0.025 A 
ATOM     14  C   UNL d   1      26.813 -16.379  -1.152  0.00  0.00     0.042 A 
ATOM     15  C   UNL d   1      26.839 -18.276   0.256  0.00  0.00     0.162 A 
ATOM     16  C   UNL d   1      26.332 -15.390  -1.983  0.00  0.00     0.046 A 
ATOM     17  C   UNL d   1      28.176 -16.557  -0.661  0.00  0.00     0.252 A 
ATOM     18  O   UNL d   1      29.112 -15.838  -0.908  0.00  0.00    -0.268 OA
ATOM     19  N   UNL d   1      28.155 -17.683   0.137  0.00  0.00    -0.353 N 
ATOM     20  H   UNL d   1      29.000 -17.982   0.605  0.00  0.00     0.163 HD
ENDBRANCH   8  10
ENDBRANCH   1   8
BRANCH   1  21
ATOM     21  C   UNL d   1      26.264 -14.882  -4.874  0.00  0.00     0.249 C 
ATOM     22  N   UNL d   1      27.603 -14.522  -4.795  0.00  0.00    -0.325 N 
ATOM     23  H   UNL d   1      27.841 -13.550  -4.630  0.00  0.00     0.169 HD
ATOM     24  O   UNL d   1      25.905 -15.943  -5.392  0.00  0.00    -0.270 OA
BRANCH  22  25
ATOM     25  C   UNL d   1      28.664 -15.426  -5.068  0.00  0.00     0.034 A 
ATOM     26  C   UNL d   1      29.089 -16.325  -4.089  0.00  0.00     0.030 A 
ATOM     27  C   UNL d   1      30.098 -17.260  -4.386  0.00  0.00     0.009 A 
ATOM     28  C   UNL d   1      30.691 -17.301  -5.656  0.00  0.00    -0.062 A 
ATOM     29  C   UNL d   1      31.742 -18.294  -6.035  0.00  0.00     0.048 C 
ATOM     30  C   UNL d   1      30.279 -16.395  -6.620  0.00  0.00     0.009 A 
ATOM     31  C   UNL d   1      29.280 -15.483  -6.324  0.00  0.00     0.030 A 
ENDBRANCH  22  25
ENDBRANCH   1  21
TORSDOF 5
ENDMDL
