MODEL 1
REMARK VINA RESULT:    -8.729      0.000      0.000
REMARK INTER + INTRA:         -12.134
REMARK INTER:                 -10.817
REMARK INTRA:                  -1.317
REMARK CONF_INDEPENDENT:        2.088
REMARK UNBOUND:                -1.317
REMARK  7 active torsions:
REMARK  status: ('A' for Active; 'I' for Inactive)
REMARK       I    between atoms: C_2  and  N_3 
REMARK    1  A    between atoms: C_2  and  C_19 
REMARK    2  A    between atoms: N_3  and  N_4 
REMARK    3  A    between atoms: C_5  and  C_6 
REMARK    4  A    between atoms: C_10  and  O_11 
REMARK    5  A    between atoms: O_11  and  C_12 
REMARK    6  A    between atoms: N_22  and  C_23 
REMARK    7  A    between atoms: C_29  and  C_30 
ROOT
ATOM      1  O   UNL d   1      24.851 -14.728  -4.472  0.00  0.00    -0.266 OA
ATOM      2  C   UNL d   1      25.786 -14.283  -3.800  0.00  0.00     0.275 C 
ATOM      3  N   UNL d   1      26.210 -14.822  -2.586  0.00  0.00    -0.243 N 
ATOM      4  H   UNL d   1      27.001 -14.436  -2.083  0.00  0.00     0.192 HD
ENDROOT
BRANCH   2   5
ATOM      5  C   UNL d   1      26.487 -13.082  -4.241  0.00  0.00     0.086 C 
ATOM      6  C   UNL d   1      26.269 -11.755  -3.806  0.00  0.00     0.158 C 
ATOM      7  N   UNL d   1      27.161 -10.897  -4.310  0.00  0.00    -0.178 NA
ATOM      8  N   UNL d   1      27.858 -11.624  -5.217  0.00  0.00    -0.228 N 
ATOM      9  C   UNL d   1      27.467 -12.946  -5.214  0.00  0.00     0.159 C 
BRANCH   8  10
ATOM     10  C   UNL d   1      28.824 -10.992  -6.041  0.00  0.00     0.059 A 
ATOM     11  C   UNL d   1      28.482 -10.551  -7.324  0.00  0.00     0.031 A 
ATOM     12  C   UNL d   1      29.461  -9.957  -8.132  0.00  0.00     0.002 A 
ATOM     13  C   UNL d   1      30.756  -9.766  -7.646  0.00  0.00     0.000 A 
ATOM     14  C   UNL d   1      31.091 -10.204  -6.368  0.00  0.00     0.002 A 
ATOM     15  C   UNL d   1      30.133 -10.829  -5.573  0.00  0.00     0.031 A 
ENDBRANCH   8  10
BRANCH   9  16
ATOM     16  C   UNL d   1      28.115 -13.940  -6.070  0.00  0.00     0.435 C 
ATOM     17  F   UNL d   1      27.502 -15.143  -6.073  0.00  0.00    -0.165 F 
ATOM     18  F   UNL d   1      28.199 -13.504  -7.348  0.00  0.00    -0.165 F 
ATOM     19  F   UNL d   1      29.392 -14.182  -5.681  0.00  0.00    -0.165 F 
ENDBRANCH   9  16
ENDBRANCH   2   5
BRANCH   3  20
ATOM     20  N   UNL d   1      25.616 -15.955  -2.102  0.00  0.00    -0.183 NA
ATOM     21  C   UNL d   1      24.395 -15.880  -1.676  0.00  0.00     0.150 C 
BRANCH  21  22
ATOM     22  C   UNL d   1      23.745 -17.090  -1.123  0.00  0.00    -0.014 A 
ATOM     23  C   UNL d   1      24.457 -18.207  -0.686  0.00  0.00     0.013 A 
ATOM     24  C   UNL d   1      23.758 -19.330  -0.218  0.00  0.00     0.004 A 
ATOM     25  C   UNL d   1      22.359 -19.319  -0.163  0.00  0.00     0.037 A 
ATOM     26  C   UNL d   1      21.653 -18.199  -0.607  0.00  0.00     0.076 A 
ATOM     27  C   UNL d   1      22.356 -17.085  -1.062  0.00  0.00     0.050 A 
BRANCH  26  28
ATOM     28  O   UNL d   1      20.279 -18.254  -0.530  0.00  0.00    -0.311 OA
BRANCH  28  29
ATOM     29  C   UNL d   1      19.686 -19.261   0.202  0.00  0.00     0.076 A 
ATOM     30  C   UNL d   1      18.780 -20.077  -0.471  0.00  0.00     0.037 A 
ATOM     31  C   UNL d   1      18.055 -21.038   0.234  0.00  0.00     0.003 A 
ATOM     32  C   UNL d   1      18.300 -21.246   1.592  0.00  0.00     0.000 A 
ATOM     33  C   UNL d   1      19.232 -20.456   2.261  0.00  0.00     0.003 A 
ATOM     34  C   UNL d   1      19.894 -19.436   1.577  0.00  0.00     0.037 A 
ENDBRANCH  28  29
ENDBRANCH  26  28
ENDBRANCH  21  22
ENDBRANCH   3  20
TORSDOF 7
ENDMDL
MODEL 2
REMARK VINA RESULT:    -7.903      2.681      3.175
REMARK INTER + INTRA:         -11.057
REMARK INTER:                  -9.992
REMARK INTRA:                  -1.066
REMARK CONF_INDEPENDENT:        2.088
REMARK UNBOUND:                -1.066
REMARK  7 active torsions:
REMARK  status: ('A' for Active; 'I' for Inactive)
REMARK       I    between atoms: C_2  and  N_3 
REMARK    1  A    between atoms: C_2  and  C_19 
REMARK    2  A    between atoms: N_3  and  N_4 
REMARK    3  A    between atoms: C_5  and  C_6 
REMARK    4  A    between atoms: C_10  and  O_11 
REMARK    5  A    between atoms: O_11  and  C_12 
REMARK    6  A    between atoms: N_22  and  C_23 
REMARK    7  A    between atoms: C_29  and  C_30 
ROOT
ATOM      1  O   UNL d   1      24.346 -13.559  -4.016  0.00  0.00    -0.266 OA
ATOM      2  C   UNL d   1      25.545 -13.277  -3.935  0.00  0.00     0.275 C 
ATOM      3  N   UNL d   1      26.502 -14.072  -3.303  0.00  0.00    -0.243 N 
ATOM      4  H   UNL d   1      27.480 -13.809  -3.286  0.00  0.00     0.192 HD
ENDROOT
BRANCH   2   5
ATOM      5  C   UNL d   1      26.029 -12.010  -4.474  0.00  0.00     0.086 C 
ATOM      6  C   UNL d   1      26.016 -11.593  -5.823  0.00  0.00     0.158 C 
ATOM      7  N   UNL d   1      26.416 -10.326  -5.973  0.00  0.00    -0.178 NA
ATOM      8  N   UNL d   1      26.864  -9.965  -4.746  0.00  0.00    -0.228 N 
ATOM      9  C   UNL d   1      26.660 -10.962  -3.817  0.00  0.00     0.159 C 
BRANCH   8  10
ATOM     10  C   UNL d   1      27.482  -8.701  -4.561  0.00  0.00     0.059 A 
ATOM     11  C   UNL d   1      26.704  -7.550  -4.390  0.00  0.00     0.031 A 
ATOM     12  C   UNL d   1      27.335  -6.309  -4.240  0.00  0.00     0.002 A 
ATOM     13  C   UNL d   1      28.728  -6.224  -4.216  0.00  0.00     0.000 A 
ATOM     14  C   UNL d   1      29.499  -7.370  -4.384  0.00  0.00     0.002 A 
ATOM     15  C   UNL d   1      28.878  -8.604  -4.572  0.00  0.00     0.031 A 
ENDBRANCH   8  10
BRANCH   9  16
ATOM     16  C   UNL d   1      27.011 -10.783  -2.408  0.00  0.00     0.435 C 
ATOM     17  F   UNL d   1      26.511 -11.737  -1.594  0.00  0.00    -0.165 F 
ATOM     18  F   UNL d   1      28.353 -10.744  -2.241  0.00  0.00    -0.165 F 
ATOM     19  F   UNL d   1      26.546  -9.607  -1.921  0.00  0.00    -0.165 F 
ENDBRANCH   9  16
ENDBRANCH   2   5
BRANCH   3  20
ATOM     20  N   UNL d   1      26.138 -15.281  -2.778  0.00  0.00    -0.183 NA
ATOM     21  C   UNL d   1      25.259 -15.304  -1.827  0.00  0.00     0.150 C 
BRANCH  21  22
ATOM     22  C   UNL d   1      24.874 -16.603  -1.228  0.00  0.00    -0.014 A 
ATOM     23  C   UNL d   1      25.645 -17.260  -0.269  0.00  0.00     0.013 A 
ATOM     24  C   UNL d   1      25.227 -18.510   0.212  0.00  0.00     0.004 A 
ATOM     25  C   UNL d   1      24.032 -19.079  -0.244  0.00  0.00     0.037 A 
ATOM     26  C   UNL d   1      23.268 -18.417  -1.207  0.00  0.00     0.076 A 
ATOM     27  C   UNL d   1      23.685 -17.172  -1.673  0.00  0.00     0.050 A 
BRANCH  26  28
ATOM     28  O   UNL d   1      22.105 -19.033  -1.615  0.00  0.00    -0.311 OA
BRANCH  28  29
ATOM     29  C   UNL d   1      21.091 -19.231  -0.702  0.00  0.00     0.076 A 
ATOM     30  C   UNL d   1      21.404 -19.022   0.639  0.00  0.00     0.037 A 
ATOM     31  C   UNL d   1      20.463 -19.318   1.625  0.00  0.00     0.003 A 
ATOM     32  C   UNL d   1      19.180 -19.736   1.269  0.00  0.00     0.000 A 
ATOM     33  C   UNL d   1      18.852 -19.911  -0.074  0.00  0.00     0.003 A 
ATOM     34  C   UNL d   1      19.819 -19.699  -1.057  0.00  0.00     0.037 A 
ENDBRANCH  28  29
ENDBRANCH  26  28
ENDBRANCH  21  22
ENDBRANCH   3  20
TORSDOF 7
ENDMDL
MODEL 3
REMARK VINA RESULT:    -7.648      7.983     10.529
REMARK INTER + INTRA:         -11.151
REMARK INTER:                  -9.736
REMARK INTRA:                  -1.414
REMARK CONF_INDEPENDENT:        2.088
REMARK UNBOUND:                -1.414
REMARK  7 active torsions:
REMARK  status: ('A' for Active; 'I' for Inactive)
REMARK       I    between atoms: C_2  and  N_3 
REMARK    1  A    between atoms: C_2  and  C_19 
REMARK    2  A    between atoms: N_3  and  N_4 
REMARK    3  A    between atoms: C_5  and  C_6 
REMARK    4  A    between atoms: C_10  and  O_11 
REMARK    5  A    between atoms: O_11  and  C_12 
REMARK    6  A    between atoms: N_22  and  C_23 
REMARK    7  A    between atoms: C_29  and  C_30 
ROOT
ATOM      1  O   UNL d   1      28.045 -11.137   3.252  0.00  0.00    -0.266 OA
ATOM      2  C   UNL d   1      27.770 -12.145   3.909  0.00  0.00     0.275 C 
ATOM      3  N   UNL d   1      27.023 -13.220   3.428  0.00  0.00    -0.243 N 
ATOM      4  H   UNL d   1      26.846 -14.039   3.999  0.00  0.00     0.192 HD
ENDROOT
BRANCH   2   5
ATOM      5  C   UNL d   1      28.184 -12.234   5.305  0.00  0.00     0.086 C 
ATOM      6  C   UNL d   1      28.216 -11.192   6.258  0.00  0.00     0.158 C 
ATOM      7  N   UNL d   1      28.526 -11.626   7.484  0.00  0.00    -0.178 NA
ATOM      8  N   UNL d   1      28.874 -12.924   7.306  0.00  0.00    -0.228 N 
ATOM      9  C   UNL d   1      28.695 -13.323   5.999  0.00  0.00     0.159 C 
BRANCH   8  10
ATOM     10  C   UNL d   1      29.382 -13.677   8.396  0.00  0.00     0.059 A 
ATOM     11  C   UNL d   1      30.718 -14.093   8.408  0.00  0.00     0.031 A 
ATOM     12  C   UNL d   1      31.189 -14.862   9.480  0.00  0.00     0.002 A 
ATOM     13  C   UNL d   1      30.347 -15.174  10.550  0.00  0.00     0.000 A 
ATOM     14  C   UNL d   1      29.020 -14.756  10.535  0.00  0.00     0.002 A 
ATOM     15  C   UNL d   1      28.533 -14.022   9.454  0.00  0.00     0.031 A 
ENDBRANCH   8  10
BRANCH   9  16
ATOM     16  C   UNL d   1      28.950 -14.699   5.575  0.00  0.00     0.435 C 
ATOM     17  F   UNL d   1      28.729 -14.917   4.261  0.00  0.00    -0.165 F 
ATOM     18  F   UNL d   1      30.220 -15.070   5.858  0.00  0.00    -0.165 F 
ATOM     19  F   UNL d   1      28.156 -15.582   6.229  0.00  0.00    -0.165 F 
ENDBRANCH   9  16
ENDBRANCH   2   5
BRANCH   3  20
ATOM     20  N   UNL d   1      26.602 -13.225   2.127  0.00  0.00    -0.183 NA
ATOM     21  C   UNL d   1      27.468 -13.478   1.197  0.00  0.00     0.150 C 
BRANCH  21  22
ATOM     22  C   UNL d   1      27.036 -13.460  -0.220  0.00  0.00    -0.014 A 
ATOM     23  C   UNL d   1      27.343 -12.421  -1.098  0.00  0.00     0.013 A 
ATOM     24  C   UNL d   1      26.854 -12.464  -2.413  0.00  0.00     0.004 A 
ATOM     25  C   UNL d   1      26.090 -13.553  -2.848  0.00  0.00     0.037 A 
ATOM     26  C   UNL d   1      25.783 -14.588  -1.961  0.00  0.00     0.076 A 
ATOM     27  C   UNL d   1      26.280 -14.542  -0.660  0.00  0.00     0.050 A 
BRANCH  26  28
ATOM     28  O   UNL d   1      25.025 -15.628  -2.450  0.00  0.00    -0.311 OA
BRANCH  28  29
ATOM     29  C   UNL d   1      24.427 -16.501  -1.566  0.00  0.00     0.076 A 
ATOM     30  C   UNL d   1      25.209 -17.554  -1.097  0.00  0.00     0.037 A 
ATOM     31  C   UNL d   1      24.635 -18.539  -0.294  0.00  0.00     0.003 A 
ATOM     32  C   UNL d   1      23.305 -18.426   0.115  0.00  0.00     0.000 A 
ATOM     33  C   UNL d   1      22.530 -17.355  -0.323  0.00  0.00     0.003 A 
ATOM     34  C   UNL d   1      23.078 -16.414  -1.196  0.00  0.00     0.037 A 
ENDBRANCH  28  29
ENDBRANCH  26  28
ENDBRANCH  21  22
ENDBRANCH   3  20
TORSDOF 7
ENDMDL
MODEL 4
REMARK VINA RESULT:    -7.591      8.091     10.370
REMARK INTER + INTRA:         -11.028
REMARK INTER:                  -9.679
REMARK INTRA:                  -1.348
REMARK CONF_INDEPENDENT:        2.088
REMARK UNBOUND:                -1.348
REMARK  7 active torsions:
REMARK  status: ('A' for Active; 'I' for Inactive)
REMARK       I    between atoms: C_2  and  N_3 
REMARK    1  A    between atoms: C_2  and  C_19 
REMARK    2  A    between atoms: N_3  and  N_4 
REMARK    3  A    between atoms: C_5  and  C_6 
REMARK    4  A    between atoms: C_10  and  O_11 
REMARK    5  A    between atoms: O_11  and  C_12 
REMARK    6  A    between atoms: N_22  and  C_23 
REMARK    7  A    between atoms: C_29  and  C_30 
ROOT
ATOM      1  O   UNL d   1      26.837 -12.926   3.322  0.00  0.00    -0.266 OA
ATOM      2  C   UNL d   1      27.673 -13.778   3.636  0.00  0.00     0.275 C 
ATOM      3  N   UNL d   1      28.155 -14.765   2.777  0.00  0.00    -0.243 N 
ATOM      4  H   UNL d   1      28.862 -15.427   3.075  0.00  0.00     0.192 HD
ENDROOT
BRANCH   2   5
ATOM      5  C   UNL d   1      28.178 -13.826   5.004  0.00  0.00     0.086 C 
ATOM      6  C   UNL d   1      28.436 -14.977   5.782  0.00  0.00     0.158 C 
ATOM      7  N   UNL d   1      29.011 -14.688   6.953  0.00  0.00    -0.178 NA
ATOM      8  N   UNL d   1      28.970 -13.335   7.026  0.00  0.00    -0.228 N 
ATOM      9  C   UNL d   1      28.458 -12.780   5.873  0.00  0.00     0.159 C 
BRANCH   8  10
ATOM     10  C   UNL d   1      29.395 -12.675   8.208  0.00  0.00     0.059 A 
ATOM     11  C   UNL d   1      30.542 -11.872   8.197  0.00  0.00     0.031 A 
ATOM     12  C   UNL d   1      30.961 -11.256   9.383  0.00  0.00     0.002 A 
ATOM     13  C   UNL d   1      30.218 -11.403  10.556  0.00  0.00     0.000 A 
ATOM     14  C   UNL d   1      29.077 -12.200  10.562  0.00  0.00     0.002 A 
ATOM     15  C   UNL d   1      28.675 -12.848   9.395  0.00  0.00     0.031 A 
ENDBRANCH   8  10
BRANCH   9  16
ATOM     16  C   UNL d   1      28.367 -11.331   5.693  0.00  0.00     0.435 C 
ATOM     17  F   UNL d   1      27.399 -10.946   4.832  0.00  0.00    -0.165 F 
ATOM     18  F   UNL d   1      28.157 -10.704   6.873  0.00  0.00    -0.165 F 
ATOM     19  F   UNL d   1      29.519 -10.812   5.202  0.00  0.00    -0.165 F 
ENDBRANCH   9  16
ENDBRANCH   2   5
BRANCH   3  20
ATOM     20  N   UNL d   1      27.744 -14.789   1.473  0.00  0.00    -0.183 NA
ATOM     21  C   UNL d   1      27.744 -13.679   0.804  0.00  0.00     0.150 C 
BRANCH  21  22
ATOM     22  C   UNL d   1      27.276 -13.680  -0.601  0.00  0.00    -0.014 A 
ATOM     23  C   UNL d   1      27.752 -12.791  -1.565  0.00  0.00     0.013 A 
ATOM     24  C   UNL d   1      27.220 -12.832  -2.862  0.00  0.00     0.004 A 
ATOM     25  C   UNL d   1      26.242 -13.776  -3.196  0.00  0.00     0.037 A 
ATOM     26  C   UNL d   1      25.767 -14.661  -2.224  0.00  0.00     0.076 A 
ATOM     27  C   UNL d   1      26.307 -14.619  -0.940  0.00  0.00     0.050 A 
BRANCH  26  28
ATOM     28  O   UNL d   1      24.802 -15.562  -2.616  0.00  0.00    -0.311 OA
BRANCH  28  29
ATOM     29  C   UNL d   1      24.355 -16.505  -1.714  0.00  0.00     0.076 A 
ATOM     30  C   UNL d   1      23.074 -16.322  -1.198  0.00  0.00     0.037 A 
ATOM     31  C   UNL d   1      22.603 -17.169  -0.195  0.00  0.00     0.003 A 
ATOM     32  C   UNL d   1      23.375 -18.251   0.230  0.00  0.00     0.000 A 
ATOM     33  C   UNL d   1      24.642 -18.458  -0.310  0.00  0.00     0.003 A 
ATOM     34  C   UNL d   1      25.149 -17.561  -1.251  0.00  0.00     0.037 A 
ENDBRANCH  28  29
ENDBRANCH  26  28
ENDBRANCH  21  22
ENDBRANCH   3  20
TORSDOF 7
ENDMDL
MODEL 5
REMARK VINA RESULT:    -7.571      1.932      2.238
REMARK INTER + INTRA:         -10.887
REMARK INTER:                  -9.659
REMARK INTRA:                  -1.228
REMARK CONF_INDEPENDENT:        2.088
REMARK UNBOUND:                -1.228
REMARK  7 active torsions:
REMARK  status: ('A' for Active; 'I' for Inactive)
REMARK       I    between atoms: C_2  and  N_3 
REMARK    1  A    between atoms: C_2  and  C_19 
REMARK    2  A    between atoms: N_3  and  N_4 
REMARK    3  A    between atoms: C_5  and  C_6 
REMARK    4  A    between atoms: C_10  and  O_11 
REMARK    5  A    between atoms: O_11  and  C_12 
REMARK    6  A    between atoms: N_22  and  C_23 
REMARK    7  A    between atoms: C_29  and  C_30 
ROOT
ATOM      1  O   UNL d   1      27.726 -15.788  -3.855  0.00  0.00    -0.266 OA
ATOM      2  C   UNL d   1      27.196 -14.742  -3.471  0.00  0.00     0.275 C 
ATOM      3  N   UNL d   1      26.010 -14.681  -2.739  0.00  0.00    -0.243 N 
ATOM      4  H   UNL d   1      25.628 -13.797  -2.423  0.00  0.00     0.192 HD
ENDROOT
BRANCH   2   5
ATOM      5  C   UNL d   1      27.786 -13.457  -3.830  0.00  0.00     0.086 C 
ATOM      6  C   UNL d   1      29.144 -13.080  -3.731  0.00  0.00     0.158 C 
ATOM      7  N   UNL d   1      29.383 -11.876  -4.259  0.00  0.00    -0.178 NA
ATOM      8  N   UNL d   1      28.154 -11.381  -4.546  0.00  0.00    -0.228 N 
ATOM      9  C   UNL d   1      27.163 -12.303  -4.286  0.00  0.00     0.159 C 
BRANCH   8  10
ATOM     10  C   UNL d   1      28.018 -10.051  -5.020  0.00  0.00     0.059 A 
ATOM     11  C   UNL d   1      28.075  -9.779  -6.392  0.00  0.00     0.031 A 
ATOM     12  C   UNL d   1      27.969  -8.454  -6.835  0.00  0.00     0.002 A 
ATOM     13  C   UNL d   1      27.764  -7.418  -5.922  0.00  0.00     0.000 A 
ATOM     14  C   UNL d   1      27.706  -7.694  -4.559  0.00  0.00     0.002 A 
ATOM     15  C   UNL d   1      27.848  -9.004  -4.107  0.00  0.00     0.031 A 
ENDBRANCH   8  10
BRANCH   9  16
ATOM     16  C   UNL d   1      25.756 -12.019  -4.570  0.00  0.00     0.435 C 
ATOM     17  F   UNL d   1      24.918 -13.025  -4.241  0.00  0.00    -0.165 F 
ATOM     18  F   UNL d   1      25.346 -10.899  -3.931  0.00  0.00    -0.165 F 
ATOM     19  F   UNL d   1      25.547 -11.787  -5.889  0.00  0.00    -0.165 F 
ENDBRANCH   9  16
ENDBRANCH   2   5
BRANCH   3  20
ATOM     20  N   UNL d   1      25.394 -15.838  -2.349  0.00  0.00    -0.183 NA
ATOM     21  C   UNL d   1      24.519 -15.782  -1.396  0.00  0.00     0.150 C 
BRANCH  21  22
ATOM     22  C   UNL d   1      23.862 -17.030  -0.942  0.00  0.00    -0.014 A 
ATOM     23  C   UNL d   1      24.569 -18.165  -0.546  0.00  0.00     0.013 A 
ATOM     24  C   UNL d   1      23.865 -19.320  -0.173  0.00  0.00     0.004 A 
ATOM     25  C   UNL d   1      22.466 -19.324  -0.170  0.00  0.00     0.037 A 
ATOM     26  C   UNL d   1      21.764 -18.185  -0.572  0.00  0.00     0.076 A 
ATOM     27  C   UNL d   1      22.471 -17.040  -0.932  0.00  0.00     0.050 A 
BRANCH  26  28
ATOM     28  O   UNL d   1      20.389 -18.256  -0.549  0.00  0.00    -0.311 OA
BRANCH  28  29
ATOM     29  C   UNL d   1      19.778 -19.249   0.188  0.00  0.00     0.076 A 
ATOM     30  C   UNL d   1      18.849 -20.044  -0.478  0.00  0.00     0.037 A 
ATOM     31  C   UNL d   1      18.107 -20.988   0.233  0.00  0.00     0.003 A 
ATOM     32  C   UNL d   1      18.357 -21.200   1.590  0.00  0.00     0.000 A 
ATOM     33  C   UNL d   1      19.312 -20.431   2.251  0.00  0.00     0.003 A 
ATOM     34  C   UNL d   1      19.993 -19.428   1.561  0.00  0.00     0.037 A 
ENDBRANCH  28  29
ENDBRANCH  26  28
ENDBRANCH  21  22
ENDBRANCH   3  20
TORSDOF 7
ENDMDL
MODEL 6
REMARK VINA RESULT:    -7.529      7.702     10.200
REMARK INTER + INTRA:         -10.936
REMARK INTER:                  -9.617
REMARK INTRA:                  -1.319
REMARK CONF_INDEPENDENT:        2.088
REMARK UNBOUND:                -1.319
REMARK  7 active torsions:
REMARK  status: ('A' for Active; 'I' for Inactive)
REMARK       I    between atoms: C_2  and  N_3 
REMARK    1  A    between atoms: C_2  and  C_19 
REMARK    2  A    between atoms: N_3  and  N_4 
REMARK    3  A    between atoms: C_5  and  C_6 
REMARK    4  A    between atoms: C_10  and  O_11 
REMARK    5  A    between atoms: O_11  and  C_12 
REMARK    6  A    between atoms: N_22  and  C_23 
REMARK    7  A    between atoms: C_29  and  C_30 
ROOT
ATOM      1  O   UNL d   1      26.686 -11.259   2.806  0.00  0.00    -0.266 OA
ATOM      2  C   UNL d   1      27.398 -12.164   3.250  0.00  0.00     0.275 C 
ATOM      3  N   UNL d   1      27.658 -13.362   2.582  0.00  0.00    -0.243 N 
ATOM      4  H   UNL d   1      28.272 -14.065   2.977  0.00  0.00     0.192 HD
ENDROOT
BRANCH   2   5
ATOM      5  C   UNL d   1      27.982 -12.040   4.581  0.00  0.00     0.086 C 
ATOM      6  C   UNL d   1      28.364 -10.852   5.242  0.00  0.00     0.158 C 
ATOM      7  N   UNL d   1      28.751 -11.066   6.503  0.00  0.00    -0.178 NA
ATOM      8  N   UNL d   1      28.797 -12.416   6.618  0.00  0.00    -0.228 N 
ATOM      9  C   UNL d   1      28.354 -13.039   5.472  0.00  0.00     0.159 C 
BRANCH   8  10
ATOM     10  C   UNL d   1      29.291 -13.009   7.809  0.00  0.00     0.059 A 
ATOM     11  C   UNL d   1      28.530 -12.979   8.984  0.00  0.00     0.031 A 
ATOM     12  C   UNL d   1      29.051 -13.544  10.155  0.00  0.00     0.002 A 
ATOM     13  C   UNL d   1      30.298 -14.171  10.142  0.00  0.00     0.000 A 
ATOM     14  C   UNL d   1      31.050 -14.201   8.972  0.00  0.00     0.002 A 
ATOM     15  C   UNL d   1      30.556 -13.608   7.811  0.00  0.00     0.031 A 
ENDBRANCH   8  10
BRANCH   9  16
ATOM     16  C   UNL d   1      28.258 -14.495   5.377  0.00  0.00     0.435 C 
ATOM     17  F   UNL d   1      28.529 -15.138   6.532  0.00  0.00    -0.165 F 
ATOM     18  F   UNL d   1      27.029 -14.878   4.958  0.00  0.00    -0.165 F 
ATOM     19  F   UNL d   1      29.128 -14.998   4.466  0.00  0.00    -0.165 F 
ENDBRANCH   9  16
ENDBRANCH   2   5
BRANCH   3  20
ATOM     20  N   UNL d   1      27.159 -13.559   1.325  0.00  0.00    -0.183 NA
ATOM     21  C   UNL d   1      27.554 -12.775   0.372  0.00  0.00     0.150 C 
BRANCH  21  22
ATOM     22  C   UNL d   1      27.003 -12.956  -0.991  0.00  0.00    -0.014 A 
ATOM     23  C   UNL d   1      27.170 -12.020  -2.012  0.00  0.00     0.013 A 
ATOM     24  C   UNL d   1      26.576 -12.251  -3.261  0.00  0.00     0.004 A 
ATOM     25  C   UNL d   1      25.846 -13.423  -3.491  0.00  0.00     0.037 A 
ATOM     26  C   UNL d   1      25.680 -14.354  -2.462  0.00  0.00     0.076 A 
ATOM     27  C   UNL d   1      26.282 -14.121  -1.227  0.00  0.00     0.050 A 
BRANCH  26  28
ATOM     28  O   UNL d   1      24.949 -15.484  -2.753  0.00  0.00    -0.311 OA
BRANCH  28  29
ATOM     29  C   UNL d   1      24.612 -16.349  -1.733  0.00  0.00     0.076 A 
ATOM     30  C   UNL d   1      25.633 -17.150  -1.225  0.00  0.00     0.037 A 
ATOM     31  C   UNL d   1      25.339 -18.130  -0.276  0.00  0.00     0.003 A 
ATOM     32  C   UNL d   1      24.045 -18.249   0.232  0.00  0.00     0.000 A 
ATOM     33  C   UNL d   1      23.029 -17.426  -0.248  0.00  0.00     0.003 A 
ATOM     34  C   UNL d   1      23.303 -16.504  -1.259  0.00  0.00     0.037 A 
ENDBRANCH  28  29
ENDBRANCH  26  28
ENDBRANCH  21  22
ENDBRANCH   3  20
TORSDOF 7
ENDMDL
MODEL 7
REMARK VINA RESULT:    -7.484      5.304     10.895
REMARK INTER + INTRA:         -10.933
REMARK INTER:                  -9.572
REMARK INTRA:                  -1.360
REMARK CONF_INDEPENDENT:        2.088
REMARK UNBOUND:                -1.360
REMARK  7 active torsions:
REMARK  status: ('A' for Active; 'I' for Inactive)
REMARK       I    between atoms: C_2  and  N_3 
REMARK    1  A    between atoms: C_2  and  C_19 
REMARK    2  A    between atoms: N_3  and  N_4 
REMARK    3  A    between atoms: C_5  and  C_6 
REMARK    4  A    between atoms: C_10  and  O_11 
REMARK    5  A    between atoms: O_11  and  C_12 
REMARK    6  A    between atoms: N_22  and  C_23 
REMARK    7  A    between atoms: C_29  and  C_30 
ROOT
ATOM      1  O   UNL d   1      27.369 -11.379  -3.850  0.00  0.00    -0.266 OA
ATOM      2  C   UNL d   1      26.417 -11.995  -4.338  0.00  0.00     0.275 C 
ATOM      3  N   UNL d   1      25.531 -11.463  -5.276  0.00  0.00    -0.243 N 
ATOM      4  H   UNL d   1      24.780 -12.018  -5.667  0.00  0.00     0.192 HD
ENDROOT
BRANCH   2   5
ATOM      5  C   UNL d   1      26.129 -13.354  -3.893  0.00  0.00     0.086 C 
ATOM      6  C   UNL d   1      25.546 -14.397  -4.646  0.00  0.00     0.158 C 
ATOM      7  N   UNL d   1      25.530 -15.560  -3.988  0.00  0.00    -0.178 NA
ATOM      8  N   UNL d   1      25.940 -15.246  -2.734  0.00  0.00    -0.228 N 
ATOM      9  C   UNL d   1      26.296 -13.918  -2.635  0.00  0.00     0.159 C 
BRANCH   8  10
ATOM     10  C   UNL d   1      25.931 -16.234  -1.717  0.00  0.00     0.059 A 
ATOM     11  C   UNL d   1      27.131 -16.676  -1.148  0.00  0.00     0.031 A 
ATOM     12  C   UNL d   1      27.100 -17.675  -0.167  0.00  0.00     0.002 A 
ATOM     13  C   UNL d   1      25.881 -18.195   0.273  0.00  0.00     0.000 A 
ATOM     14  C   UNL d   1      24.690 -17.751  -0.293  0.00  0.00     0.002 A 
ATOM     15  C   UNL d   1      24.715 -16.785  -1.297  0.00  0.00     0.031 A 
ENDBRANCH   8  10
BRANCH   9  16
ATOM     16  C   UNL d   1      26.824 -13.355  -1.392  0.00  0.00     0.435 C 
ATOM     17  F   UNL d   1      26.224 -13.828  -0.279  0.00  0.00    -0.165 F 
ATOM     18  F   UNL d   1      28.154 -13.576  -1.283  0.00  0.00    -0.165 F 
ATOM     19  F   UNL d   1      26.671 -12.009  -1.346  0.00  0.00    -0.165 F 
ENDBRANCH   9  16
ENDBRANCH   2   5
BRANCH   3  20
ATOM     20  N   UNL d   1      25.732 -10.199  -5.757  0.00  0.00    -0.183 NA
ATOM     21  C   UNL d   1      24.777  -9.332  -5.638  0.00  0.00     0.150 C 
BRANCH  21  22
ATOM     22  C   UNL d   1      24.966  -7.966  -6.178  0.00  0.00    -0.014 A 
ATOM     23  C   UNL d   1      26.221  -7.415  -6.436  0.00  0.00     0.013 A 
ATOM     24  C   UNL d   1      26.310  -6.096  -6.905  0.00  0.00     0.004 A 
ATOM     25  C   UNL d   1      25.150  -5.349  -7.141  0.00  0.00     0.037 A 
ATOM     26  C   UNL d   1      23.897  -5.907  -6.876  0.00  0.00     0.076 A 
ATOM     27  C   UNL d   1      23.817  -7.221  -6.419  0.00  0.00     0.050 A 
BRANCH  26  28
ATOM     28  O   UNL d   1      22.795  -5.119  -7.126  0.00  0.00    -0.311 OA
BRANCH  28  29
ATOM     29  C   UNL d   1      21.593  -5.720  -7.437  0.00  0.00     0.076 A 
ATOM     30  C   UNL d   1      21.393  -6.074  -8.769  0.00  0.00     0.037 A 
ATOM     31  C   UNL d   1      20.157  -6.576  -9.175  0.00  0.00     0.003 A 
ATOM     32  C   UNL d   1      19.151  -6.810  -8.236  0.00  0.00     0.000 A 
ATOM     33  C   UNL d   1      19.361  -6.491  -6.896  0.00  0.00     0.003 A 
ATOM     34  C   UNL d   1      20.566  -5.908  -6.503  0.00  0.00     0.037 A 
ENDBRANCH  28  29
ENDBRANCH  26  28
ENDBRANCH  21  22
ENDBRANCH   3  20
TORSDOF 7
ENDMDL
MODEL 8
REMARK VINA RESULT:    -7.475      5.183     10.641
REMARK INTER + INTRA:         -10.924
REMARK INTER:                  -9.563
REMARK INTRA:                  -1.360
REMARK CONF_INDEPENDENT:        2.088
REMARK UNBOUND:                -1.360
REMARK  7 active torsions:
REMARK  status: ('A' for Active; 'I' for Inactive)
REMARK       I    between atoms: C_2  and  N_3 
REMARK    1  A    between atoms: C_2  and  C_19 
REMARK    2  A    between atoms: N_3  and  N_4 
REMARK    3  A    between atoms: C_5  and  C_6 
REMARK    4  A    between atoms: C_10  and  O_11 
REMARK    5  A    between atoms: O_11  and  C_12 
REMARK    6  A    between atoms: N_22  and  C_23 
REMARK    7  A    between atoms: C_29  and  C_30 
ROOT
ATOM      1  O   UNL d   1      27.781 -10.815  -3.651  0.00  0.00    -0.266 OA
ATOM      2  C   UNL d   1      26.736 -11.454  -3.504  0.00  0.00     0.275 C 
ATOM      3  N   UNL d   1      25.555 -11.206  -4.205  0.00  0.00    -0.243 N 
ATOM      4  H   UNL d   1      24.729 -11.777  -4.068  0.00  0.00     0.192 HD
ENDROOT
BRANCH   2   5
ATOM      5  C   UNL d   1      26.668 -12.512  -2.502  0.00  0.00     0.086 C 
ATOM      6  C   UNL d   1      27.249 -12.510  -1.214  0.00  0.00     0.158 C 
ATOM      7  N   UNL d   1      26.899 -13.578  -0.491  0.00  0.00    -0.178 NA
ATOM      8  N   UNL d   1      26.232 -14.374  -1.362  0.00  0.00    -0.228 N 
ATOM      9  C   UNL d   1      26.086 -13.769  -2.592  0.00  0.00     0.159 C 
BRANCH   8  10
ATOM     10  C   UNL d   1      25.810 -15.667  -0.960  0.00  0.00     0.059 A 
ATOM     11  C   UNL d   1      24.465 -16.041  -1.074  0.00  0.00     0.031 A 
ATOM     12  C   UNL d   1      24.066 -17.312  -0.643  0.00  0.00     0.002 A 
ATOM     13  C   UNL d   1      25.006 -18.216  -0.145  0.00  0.00     0.000 A 
ATOM     14  C   UNL d   1      26.342 -17.842  -0.035  0.00  0.00     0.002 A 
ATOM     15  C   UNL d   1      26.741 -16.565  -0.427  0.00  0.00     0.031 A 
ENDBRANCH   8  10
BRANCH   9  16
ATOM     16  C   UNL d   1      25.350 -14.411  -3.681  0.00  0.00     0.435 C 
ATOM     17  F   UNL d   1      25.530 -15.748  -3.751  0.00  0.00    -0.165 F 
ATOM     18  F   UNL d   1      24.023 -14.168  -3.584  0.00  0.00    -0.165 F 
ATOM     19  F   UNL d   1      25.723 -13.929  -4.892  0.00  0.00    -0.165 F 
ENDBRANCH   9  16
ENDBRANCH   2   5
BRANCH   3  20
ATOM     20  N   UNL d   1      25.530 -10.239  -5.171  0.00  0.00    -0.183 NA
ATOM     21  C   UNL d   1      24.780  -9.200  -4.988  0.00  0.00     0.150 C 
BRANCH  21  22
ATOM     22  C   UNL d   1      24.719  -8.155  -6.036  0.00  0.00    -0.014 A 
ATOM     23  C   UNL d   1      25.751  -7.927  -6.947  0.00  0.00     0.013 A 
ATOM     24  C   UNL d   1      25.629  -6.886  -7.879  0.00  0.00     0.004 A 
ATOM     25  C   UNL d   1      24.471  -6.101  -7.915  0.00  0.00     0.037 A 
ATOM     26  C   UNL d   1      23.443  -6.333  -6.997  0.00  0.00     0.076 A 
ATOM     27  C   UNL d   1      23.569  -7.375  -6.081  0.00  0.00     0.050 A 
BRANCH  26  28
ATOM     28  O   UNL d   1      22.333  -5.524  -7.083  0.00  0.00    -0.311 OA
BRANCH  28  29
ATOM     29  C   UNL d   1      21.117  -6.082  -7.421  0.00  0.00     0.076 A 
ATOM     30  C   UNL d   1      20.948  -6.464  -8.750  0.00  0.00     0.037 A 
ATOM     31  C   UNL d   1      19.706  -6.924  -9.186  0.00  0.00     0.003 A 
ATOM     32  C   UNL d   1      18.659  -7.089  -8.278  0.00  0.00     0.000 A 
ATOM     33  C   UNL d   1      18.836  -6.743  -6.941  0.00  0.00     0.003 A 
ATOM     34  C   UNL d   1      20.051  -6.200  -6.520  0.00  0.00     0.037 A 
ENDBRANCH  28  29
ENDBRANCH  26  28
ENDBRANCH  21  22
ENDBRANCH   3  20
TORSDOF 7
ENDMDL
MODEL 9
REMARK VINA RESULT:    -7.423      5.477     10.640
REMARK INTER + INTRA:         -10.951
REMARK INTER:                  -9.511
REMARK INTRA:                  -1.439
REMARK CONF_INDEPENDENT:        2.088
REMARK UNBOUND:                -1.439
REMARK  7 active torsions:
REMARK  status: ('A' for Active; 'I' for Inactive)
REMARK       I    between atoms: C_2  and  N_3 
REMARK    1  A    between atoms: C_2  and  C_19 
REMARK    2  A    between atoms: N_3  and  N_4 
REMARK    3  A    between atoms: C_5  and  C_6 
REMARK    4  A    between atoms: C_10  and  O_11 
REMARK    5  A    between atoms: O_11  and  C_12 
REMARK    6  A    between atoms: N_22  and  C_23 
REMARK    7  A    between atoms: C_29  and  C_30 
ROOT
ATOM      1  O   UNL d   1      27.820 -11.590  -6.355  0.00  0.00    -0.266 OA
ATOM      2  C   UNL d   1      26.804 -12.074  -5.847  0.00  0.00     0.275 C 
ATOM      3  N   UNL d   1      25.569 -11.428  -5.784  0.00  0.00    -0.243 N 
ATOM      4  H   UNL d   1      24.757 -11.879  -5.379  0.00  0.00     0.192 HD
ENDROOT
BRANCH   2   5
ATOM      5  C   UNL d   1      26.869 -13.384  -5.208  0.00  0.00     0.086 C 
ATOM      6  C   UNL d   1      27.405 -14.574  -5.747  0.00  0.00     0.158 C 
ATOM      7  N   UNL d   1      27.427 -15.575  -4.861  0.00  0.00    -0.178 NA
ATOM      8  N   UNL d   1      26.741 -15.099  -3.794  0.00  0.00    -0.228 N 
ATOM      9  C   UNL d   1      26.374 -13.782  -3.973  0.00  0.00     0.159 C 
BRANCH   8  10
ATOM     10  C   UNL d   1      26.460 -15.950  -2.694  0.00  0.00     0.059 A 
ATOM     11  C   UNL d   1      25.154 -16.395  -2.458  0.00  0.00     0.031 A 
ATOM     12  C   UNL d   1      24.896 -17.210  -1.348  0.00  0.00     0.002 A 
ATOM     13  C   UNL d   1      25.937 -17.611  -0.509  0.00  0.00     0.000 A 
ATOM     14  C   UNL d   1      27.234 -17.168  -0.748  0.00  0.00     0.002 A 
ATOM     15  C   UNL d   1      27.494 -16.326  -1.829  0.00  0.00     0.031 A 
ENDBRANCH   8  10
BRANCH   9  16
ATOM     16  C   UNL d   1      25.671 -13.032  -2.932  0.00  0.00     0.435 C 
ATOM     17  F   UNL d   1      25.622 -11.701  -3.155  0.00  0.00    -0.165 F 
ATOM     18  F   UNL d   1      24.405 -13.482  -2.776  0.00  0.00    -0.165 F 
ATOM     19  F   UNL d   1      26.264 -13.177  -1.722  0.00  0.00    -0.165 F 
ENDBRANCH   9  16
ENDBRANCH   2   5
BRANCH   3  20
ATOM     20  N   UNL d   1      25.415 -10.201  -6.367  0.00  0.00    -0.183 NA
ATOM     21  C   UNL d   1      24.868  -9.252  -5.676  0.00  0.00     0.150 C 
BRANCH  21  22
ATOM     22  C   UNL d   1      24.668  -7.924  -6.300  0.00  0.00    -0.014 A 
ATOM     23  C   UNL d   1      25.678  -7.238  -6.976  0.00  0.00     0.013 A 
ATOM     24  C   UNL d   1      25.414  -5.964  -7.498  0.00  0.00     0.004 A 
ATOM     25  C   UNL d   1      24.141  -5.396  -7.368  0.00  0.00     0.037 A 
ATOM     26  C   UNL d   1      23.136  -6.086  -6.686  0.00  0.00     0.076 A 
ATOM     27  C   UNL d   1      23.404  -7.356  -6.179  0.00  0.00     0.050 A 
BRANCH  26  28
ATOM     28  O   UNL d   1      21.908  -5.471  -6.591  0.00  0.00    -0.311 OA
BRANCH  28  29
ATOM     29  C   UNL d   1      20.831  -6.008  -7.264  0.00  0.00     0.076 A 
ATOM     30  C   UNL d   1      20.974  -6.186  -8.638  0.00  0.00     0.037 A 
ATOM     31  C   UNL d   1      19.886  -6.612  -9.400  0.00  0.00     0.003 A 
ATOM     32  C   UNL d   1      18.683  -6.948  -8.778  0.00  0.00     0.000 A 
ATOM     33  C   UNL d   1      18.547  -6.807  -7.398  0.00  0.00     0.003 A 
ATOM     34  C   UNL d   1      19.607  -6.297  -6.647  0.00  0.00     0.037 A 
ENDBRANCH  28  29
ENDBRANCH  26  28
ENDBRANCH  21  22
ENDBRANCH   3  20
TORSDOF 7
ENDMDL
