MODEL 1
REMARK VINA RESULT:   -31.267      0.000      0.000
REMARK INTER + INTRA:         -34.209
REMARK INTER:                 -33.355
REMARK INTRA:                  -0.853
REMARK CONF_INDEPENDENT:        2.088
REMARK UNBOUND:                -0.853
REMARK  7 active torsions:
REMARK  status: ('A' for Active; 'I' for Inactive)
REMARK    1  A    between atoms: C_2  and  C_3 
REMARK    2  A    between atoms: C_3  and  C_4 
REMARK    3  A    between atoms: C_4  and  N_5 
REMARK       I    between atoms: N_5  and  C_6 
REMARK    4  A    between atoms: C_6  and  C_8 
REMARK    5  A    between atoms: C_11  and  C_12 
REMARK    6  A    between atoms: C_12  and  N_13 
REMARK       I    between atoms: N_13  and  C_14 
REMARK    7  A    between atoms: C_14  and  C_16 
ROOT
ATOM      1  C   UNL d   1      25.369 -15.229  -2.592  0.00  0.00     0.032 A 
ATOM      2  C   UNL d   1      26.334 -16.088  -2.052  0.00  0.00     0.017 A 
ATOM      3  C   UNL d   1      25.969 -17.077  -1.123  0.00  0.00     0.010 A 
ATOM      4  C   UNL d   1      24.645 -17.180  -0.655  0.00  0.00    -0.040 A 
ATOM      5  C   UNL d   1      23.701 -16.294  -1.200  0.00  0.00     0.010 A 
ATOM      6  C   UNL d   1      24.053 -15.326  -2.147  0.00  0.00     0.017 A 
ENDROOT
BRANCH   4   7
ATOM      7  C   UNL d   1      24.306 -18.196   0.430  0.00  0.00     0.161 C 
BRANCH   7   8
ATOM      8  N   UNL d   1      22.919 -18.636   0.449  0.00  0.00    -0.351 N 
ATOM      9  C   UNL d   1      22.292 -19.188  -0.649  0.00  0.00     0.272 C 
ATOM     10  O   UNL d   1      22.861 -19.322  -1.734  0.00  0.00    -0.266 OA
ATOM     11  H   UNL d   1      22.431 -18.725   1.324  0.00  0.00     0.163 HD
BRANCH   9  12
ATOM     12  C   UNL d   1      20.886 -19.593  -0.409  0.00  0.00     0.145 A 
ATOM     13  C   UNL d   1      20.370 -20.292   0.724  0.00  0.00     0.058 A 
ATOM     14  C   UNL d   1      19.014 -20.390   0.520  0.00  0.00     0.112 A 
ATOM     15  N   UNL d   1      18.779 -19.794  -0.683  0.00  0.00    -0.289 N 
ATOM     16  N   UNL d   1      19.889 -19.314  -1.270  0.00  0.00    -0.170 NA
ATOM     17  H   UNL d   1      17.889 -19.673  -1.157  0.00  0.00     0.188 HD
ENDBRANCH   9  12
ENDBRANCH   7   8
ENDBRANCH   4   7
BRANCH   1  18
ATOM     18  C   UNL d   1      25.714 -14.379  -3.763  0.00  0.00     0.251 C 
ATOM     19  N   UNL d   1      27.002 -13.882  -3.844  0.00  0.00    -0.357 N 
ATOM     20  H   UNL d   1      27.711 -14.185  -3.190  0.00  0.00     0.162 HD
ATOM     21  O   UNL d   1      24.844 -14.122  -4.590  0.00  0.00    -0.268 OA
BRANCH  19  22
ATOM     22  C   UNL d   1      27.373 -13.003  -4.939  0.00  0.00     0.123 C 
BRANCH  22  23
ATOM     23  C   UNL d   1      28.414 -13.628  -5.863  0.00  0.00     0.019 C 
BRANCH  23  24
ATOM     24  C   UNL d   1      28.229 -15.143  -5.969  0.00  0.00    -0.003 C 
ATOM     25  C   UNL d   1      29.314 -15.880  -5.201  0.00  0.00     0.005 C 
ENDBRANCH  23  24
ENDBRANCH  22  23
ENDBRANCH  19  22
ENDBRANCH   1  18
TORSDOF 7
ENDMDL
MODEL 2
REMARK VINA RESULT:   -31.228      1.101      1.793
REMARK INTER + INTRA:         -34.026
REMARK INTER:                 -33.316
REMARK INTRA:                  -0.709
REMARK CONF_INDEPENDENT:        2.088
REMARK UNBOUND:                -0.709
REMARK  7 active torsions:
REMARK  status: ('A' for Active; 'I' for Inactive)
REMARK    1  A    between atoms: C_2  and  C_3 
REMARK    2  A    between atoms: C_3  and  C_4 
REMARK    3  A    between atoms: C_4  and  N_5 
REMARK       I    between atoms: N_5  and  C_6 
REMARK    4  A    between atoms: C_6  and  C_8 
REMARK    5  A    between atoms: C_11  and  C_12 
REMARK    6  A    between atoms: C_12  and  N_13 
REMARK       I    between atoms: N_13  and  C_14 
REMARK    7  A    between atoms: C_14  and  C_16 
ROOT
ATOM      1  C   UNL d   1      25.399 -15.232  -2.570  0.00  0.00     0.032 A 
ATOM      2  C   UNL d   1      26.349 -16.125  -2.062  0.00  0.00     0.017 A 
ATOM      3  C   UNL d   1      25.976 -17.111  -1.131  0.00  0.00     0.010 A 
ATOM      4  C   UNL d   1      24.662 -17.176  -0.630  0.00  0.00    -0.040 A 
ATOM      5  C   UNL d   1      23.733 -16.256  -1.143  0.00  0.00     0.010 A 
ATOM      6  C   UNL d   1      24.092 -15.290  -2.092  0.00  0.00     0.017 A 
ENDROOT
BRANCH   4   7
ATOM      7  C   UNL d   1      24.319 -18.190   0.454  0.00  0.00     0.161 C 
BRANCH   7   8
ATOM      8  N   UNL d   1      22.924 -18.604   0.491  0.00  0.00    -0.351 N 
ATOM      9  C   UNL d   1      22.255 -19.084  -0.616  0.00  0.00     0.272 C 
ATOM     10  O   UNL d   1      22.791 -19.171  -1.723  0.00  0.00    -0.266 OA
ATOM     11  H   UNL d   1      22.459 -18.731   1.374  0.00  0.00     0.163 HD
BRANCH   9  12
ATOM     12  C   UNL d   1      20.848 -19.475  -0.357  0.00  0.00     0.145 A 
ATOM     13  C   UNL d   1      20.313 -20.027   0.845  0.00  0.00     0.058 A 
ATOM     14  C   UNL d   1      18.964 -20.171   0.625  0.00  0.00     0.112 A 
ATOM     15  N   UNL d   1      18.751 -19.740  -0.650  0.00  0.00    -0.289 N 
ATOM     16  N   UNL d   1      19.869 -19.325  -1.270  0.00  0.00    -0.170 NA
ATOM     17  H   UNL d   1      17.872 -19.695  -1.156  0.00  0.00     0.188 HD
ENDBRANCH   9  12
ENDBRANCH   7   8
ENDBRANCH   4   7
BRANCH   1  18
ATOM     18  C   UNL d   1      25.741 -14.383  -3.742  0.00  0.00     0.251 C 
ATOM     19  N   UNL d   1      26.889 -13.614  -3.671  0.00  0.00    -0.357 N 
ATOM     20  H   UNL d   1      27.529 -13.720  -2.896  0.00  0.00     0.162 HD
ATOM     21  O   UNL d   1      24.982 -14.366  -4.707  0.00  0.00    -0.268 OA
BRANCH  19  22
ATOM     22  C   UNL d   1      27.237 -12.728  -4.768  0.00  0.00     0.123 C 
BRANCH  22  23
ATOM     23  C   UNL d   1      26.565 -11.364  -4.652  0.00  0.00     0.019 C 
BRANCH  23  24
ATOM     24  C   UNL d   1      25.784 -11.016  -5.922  0.00  0.00    -0.003 C 
ATOM     25  C   UNL d   1      26.725 -10.690  -7.069  0.00  0.00     0.005 C 
ENDBRANCH  23  24
ENDBRANCH  22  23
ENDBRANCH  19  22
ENDBRANCH   1  18
TORSDOF 7
ENDMDL
MODEL 3
REMARK VINA RESULT:   -30.849      0.954      1.818
REMARK INTER + INTRA:         -33.720
REMARK INTER:                 -32.937
REMARK INTRA:                  -0.783
REMARK CONF_INDEPENDENT:        2.088
REMARK UNBOUND:                -0.783
REMARK  7 active torsions:
REMARK  status: ('A' for Active; 'I' for Inactive)
REMARK    1  A    between atoms: C_2  and  C_3 
REMARK    2  A    between atoms: C_3  and  C_4 
REMARK    3  A    between atoms: C_4  and  N_5 
REMARK       I    between atoms: N_5  and  C_6 
REMARK    4  A    between atoms: C_6  and  C_8 
REMARK    5  A    between atoms: C_11  and  C_12 
REMARK    6  A    between atoms: C_12  and  N_13 
REMARK       I    between atoms: N_13  and  C_14 
REMARK    7  A    between atoms: C_14  and  C_16 
ROOT
ATOM      1  C   UNL d   1      25.210 -15.416  -2.572  0.00  0.00     0.032 A 
ATOM      2  C   UNL d   1      23.920 -15.466  -2.030  0.00  0.00     0.017 A 
ATOM      3  C   UNL d   1      23.624 -16.344  -0.973  0.00  0.00     0.010 A 
ATOM      4  C   UNL d   1      24.589 -17.246  -0.486  0.00  0.00    -0.040 A 
ATOM      5  C   UNL d   1      25.870 -17.186  -1.061  0.00  0.00     0.010 A 
ATOM      6  C   UNL d   1      26.179 -16.294  -2.094  0.00  0.00     0.017 A 
ENDROOT
BRANCH   4   7
ATOM      7  C   UNL d   1      24.203 -18.254   0.589  0.00  0.00     0.161 C 
BRANCH   7   8
ATOM      8  N   UNL d   1      22.812 -18.682   0.560  0.00  0.00    -0.351 N 
ATOM      9  C   UNL d   1      22.213 -19.209  -0.566  0.00  0.00     0.272 C 
ATOM     10  O   UNL d   1      22.812 -19.329  -1.636  0.00  0.00    -0.266 OA
ATOM     11  H   UNL d   1      22.298 -18.783   1.419  0.00  0.00     0.163 HD
BRANCH   9  12
ATOM     12  C   UNL d   1      20.797 -19.606  -0.373  0.00  0.00     0.145 A 
ATOM     13  C   UNL d   1      20.238 -20.298   0.743  0.00  0.00     0.058 A 
ATOM     14  C   UNL d   1      18.890 -20.390   0.491  0.00  0.00     0.112 A 
ATOM     15  N   UNL d   1      18.700 -19.797  -0.720  0.00  0.00    -0.289 N 
ATOM     16  N   UNL d   1      19.832 -19.325  -1.270  0.00  0.00    -0.170 NA
ATOM     17  H   UNL d   1      17.828 -19.672  -1.226  0.00  0.00     0.188 HD
ENDBRANCH   9  12
ENDBRANCH   7   8
ENDBRANCH   4   7
BRANCH   1  18
ATOM     18  C   UNL d   1      25.579 -14.305  -3.491  0.00  0.00     0.251 C 
ATOM     19  N   UNL d   1      26.741 -13.605  -3.225  0.00  0.00    -0.357 N 
ATOM     20  H   UNL d   1      27.374 -13.917  -2.500  0.00  0.00     0.162 HD
ATOM     21  O   UNL d   1      24.828 -14.029  -4.423  0.00  0.00    -0.268 OA
BRANCH  19  22
ATOM     22  C   UNL d   1      27.116 -12.478  -4.061  0.00  0.00     0.123 C 
BRANCH  22  23
ATOM     23  C   UNL d   1      27.637 -12.912  -5.428  0.00  0.00     0.019 C 
BRANCH  23  24
ATOM     24  C   UNL d   1      27.025 -12.072  -6.551  0.00  0.00    -0.003 C 
ATOM     25  C   UNL d   1      26.223 -10.909  -5.989  0.00  0.00     0.005 C 
ENDBRANCH  23  24
ENDBRANCH  22  23
ENDBRANCH  19  22
ENDBRANCH   1  18
TORSDOF 7
ENDMDL
MODEL 4
REMARK VINA RESULT:   -30.551      1.363      2.076
REMARK INTER + INTRA:         -33.364
REMARK INTER:                 -32.639
REMARK INTRA:                  -0.725
REMARK CONF_INDEPENDENT:        2.088
REMARK UNBOUND:                -0.725
REMARK  7 active torsions:
REMARK  status: ('A' for Active; 'I' for Inactive)
REMARK    1  A    between atoms: C_2  and  C_3 
REMARK    2  A    between atoms: C_3  and  C_4 
REMARK    3  A    between atoms: C_4  and  N_5 
REMARK       I    between atoms: N_5  and  C_6 
REMARK    4  A    between atoms: C_6  and  C_8 
REMARK    5  A    between atoms: C_11  and  C_12 
REMARK    6  A    between atoms: C_12  and  N_13 
REMARK       I    between atoms: N_13  and  C_14 
REMARK    7  A    between atoms: C_14  and  C_16 
ROOT
ATOM      1  C   UNL d   1      25.493 -15.078  -2.624  0.00  0.00     0.032 A 
ATOM      2  C   UNL d   1      26.462 -15.983  -2.172  0.00  0.00     0.017 A 
ATOM      3  C   UNL d   1      26.108 -17.036  -1.310  0.00  0.00     0.010 A 
ATOM      4  C   UNL d   1      24.795 -17.163  -0.821  0.00  0.00    -0.040 A 
ATOM      5  C   UNL d   1      23.847 -16.231  -1.276  0.00  0.00     0.010 A 
ATOM      6  C   UNL d   1      24.187 -15.197  -2.157  0.00  0.00     0.017 A 
ENDROOT
BRANCH   4   7
ATOM      7  C   UNL d   1      24.471 -18.254   0.193  0.00  0.00     0.161 C 
BRANCH   7   8
ATOM      8  N   UNL d   1      23.058 -18.579   0.316  0.00  0.00    -0.351 N 
ATOM      9  C   UNL d   1      22.322 -19.129  -0.714  0.00  0.00     0.272 C 
ATOM     10  O   UNL d   1      22.810 -19.358  -1.822  0.00  0.00    -0.266 OA
ATOM     11  H   UNL d   1      22.620 -18.589   1.222  0.00  0.00     0.163 HD
BRANCH   9  12
ATOM     12  C   UNL d   1      20.907 -19.408  -0.371  0.00  0.00     0.145 A 
ATOM     13  C   UNL d   1      20.386 -19.793   0.902  0.00  0.00     0.058 A 
ATOM     14  C   UNL d   1      19.024 -19.884   0.738  0.00  0.00     0.112 A 
ATOM     15  N   UNL d   1      18.790 -19.587  -0.570  0.00  0.00    -0.289 N 
ATOM     16  N   UNL d   1      19.905 -19.307  -1.266  0.00  0.00    -0.170 NA
ATOM     17  H   UNL d   1      17.897 -19.548  -1.052  0.00  0.00     0.188 HD
ENDBRANCH   9  12
ENDBRANCH   7   8
ENDBRANCH   4   7
BRANCH   1  18
ATOM     18  C   UNL d   1      25.820 -14.146  -3.736  0.00  0.00     0.251 C 
ATOM     19  N   UNL d   1      26.488 -12.976  -3.424  0.00  0.00    -0.357 N 
ATOM     20  H   UNL d   1      26.843 -12.821  -2.490  0.00  0.00     0.162 HD
ATOM     21  O   UNL d   1      25.458 -14.427  -4.875  0.00  0.00    -0.268 OA
BRANCH  19  22
ATOM     22  C   UNL d   1      26.782 -12.008  -4.467  0.00  0.00     0.123 C 
BRANCH  22  23
ATOM     23  C   UNL d   1      27.194 -10.651  -3.905  0.00  0.00     0.019 C 
BRANCH  23  24
ATOM     24  C   UNL d   1      26.955 -10.576  -2.395  0.00  0.00    -0.003 C 
ATOM     25  C   UNL d   1      28.263 -10.687  -1.629  0.00  0.00     0.005 C 
ENDBRANCH  23  24
ENDBRANCH  22  23
ENDBRANCH  19  22
ENDBRANCH   1  18
TORSDOF 7
ENDMDL
MODEL 5
REMARK VINA RESULT:   -29.667      3.742      4.971
REMARK INTER + INTRA:         -32.425
REMARK INTER:                 -31.755
REMARK INTRA:                  -0.670
REMARK CONF_INDEPENDENT:        2.088
REMARK UNBOUND:                -0.670
REMARK  7 active torsions:
REMARK  status: ('A' for Active; 'I' for Inactive)
REMARK    1  A    between atoms: C_2  and  C_3 
REMARK    2  A    between atoms: C_3  and  C_4 
REMARK    3  A    between atoms: C_4  and  N_5 
REMARK       I    between atoms: N_5  and  C_6 
REMARK    4  A    between atoms: C_6  and  C_8 
REMARK    5  A    between atoms: C_11  and  C_12 
REMARK    6  A    between atoms: C_12  and  N_13 
REMARK       I    between atoms: N_13  and  C_14 
REMARK    7  A    between atoms: C_14  and  C_16 
ROOT
ATOM      1  C   UNL d   1      26.846 -15.267   0.542  0.00  0.00     0.032 A 
ATOM      2  C   UNL d   1      25.696 -15.250  -0.256  0.00  0.00     0.017 A 
ATOM      3  C   UNL d   1      25.009 -16.442  -0.546  0.00  0.00     0.010 A 
ATOM      4  C   UNL d   1      25.501 -17.687  -0.108  0.00  0.00    -0.040 A 
ATOM      5  C   UNL d   1      26.667 -17.677   0.676  0.00  0.00     0.010 A 
ATOM      6  C   UNL d   1      27.338 -16.490   0.991  0.00  0.00     0.017 A 
ENDROOT
BRANCH   4   7
ATOM      7  C   UNL d   1      24.789 -18.967  -0.528  0.00  0.00     0.161 C 
BRANCH   7   8
ATOM      8  N   UNL d   1      23.381 -19.035  -0.167  0.00  0.00    -0.351 N 
ATOM      9  C   UNL d   1      22.378 -19.234  -1.094  0.00  0.00     0.272 C 
ATOM     10  O   UNL d   1      22.608 -19.341  -2.300  0.00  0.00    -0.266 OA
ATOM     11  H   UNL d   1      23.111 -19.130   0.798  0.00  0.00     0.163 HD
BRANCH   9  12
ATOM     12  C   UNL d   1      21.015 -19.297  -0.514  0.00  0.00     0.145 A 
ATOM     13  C   UNL d   1      20.666 -19.325   0.870  0.00  0.00     0.058 A 
ATOM     14  C   UNL d   1      19.292 -19.330   0.911  0.00  0.00     0.112 A 
ATOM     15  N   UNL d   1      18.885 -19.328  -0.389  0.00  0.00    -0.289 N 
ATOM     16  N   UNL d   1      19.900 -19.319  -1.269  0.00  0.00    -0.170 NA
ATOM     17  H   UNL d   1      17.934 -19.323  -0.746  0.00  0.00     0.188 HD
ENDBRANCH   9  12
ENDBRANCH   7   8
ENDBRANCH   4   7
BRANCH   1  18
ATOM     18  C   UNL d   1      27.400 -13.988   1.061  0.00  0.00     0.251 C 
ATOM     19  N   UNL d   1      28.255 -14.047   2.147  0.00  0.00    -0.357 N 
ATOM     20  H   UNL d   1      28.581 -14.939   2.495  0.00  0.00     0.162 HD
ATOM     21  O   UNL d   1      27.054 -12.933   0.537  0.00  0.00    -0.268 OA
BRANCH  19  22
ATOM     22  C   UNL d   1      28.779 -12.822   2.725  0.00  0.00     0.123 C 
BRANCH  22  23
ATOM     23  C   UNL d   1      29.533 -13.067   4.028  0.00  0.00     0.019 C 
BRANCH  23  24
ATOM     24  C   UNL d   1      29.089 -14.372   4.694  0.00  0.00    -0.003 C 
ATOM     25  C   UNL d   1      27.617 -14.320   5.068  0.00  0.00     0.005 C 
ENDBRANCH  23  24
ENDBRANCH  22  23
ENDBRANCH  19  22
ENDBRANCH   1  18
TORSDOF 7
ENDMDL
MODEL 6
REMARK VINA RESULT:   -29.181      3.024      3.696
REMARK INTER + INTRA:         -31.968
REMARK INTER:                 -31.270
REMARK INTRA:                  -0.699
REMARK CONF_INDEPENDENT:        2.088
REMARK UNBOUND:                -0.699
REMARK  7 active torsions:
REMARK  status: ('A' for Active; 'I' for Inactive)
REMARK    1  A    between atoms: C_2  and  C_3 
REMARK    2  A    between atoms: C_3  and  C_4 
REMARK    3  A    between atoms: C_4  and  N_5 
REMARK       I    between atoms: N_5  and  C_6 
REMARK    4  A    between atoms: C_6  and  C_8 
REMARK    5  A    between atoms: C_11  and  C_12 
REMARK    6  A    between atoms: C_12  and  N_13 
REMARK       I    between atoms: N_13  and  C_14 
REMARK    7  A    between atoms: C_14  and  C_16 
ROOT
ATOM      1  C   UNL d   1      26.200 -14.920  -0.780  0.00  0.00     0.032 A 
ATOM      2  C   UNL d   1      26.867 -15.803   0.078  0.00  0.00     0.017 A 
ATOM      3  C   UNL d   1      26.416 -17.125   0.234  0.00  0.00     0.010 A 
ATOM      4  C   UNL d   1      25.243 -17.572  -0.405  0.00  0.00    -0.040 A 
ATOM      5  C   UNL d   1      24.584 -16.660  -1.246  0.00  0.00     0.010 A 
ATOM      6  C   UNL d   1      25.045 -15.350  -1.428  0.00  0.00     0.017 A 
ENDROOT
BRANCH   4   7
ATOM      7  C   UNL d   1      24.726 -18.979  -0.132  0.00  0.00     0.161 C 
BRANCH   7   8
ATOM      8  N   UNL d   1      23.294 -19.070   0.116  0.00  0.00    -0.351 N 
ATOM      9  C   UNL d   1      22.358 -19.102  -0.898  0.00  0.00     0.272 C 
ATOM     10  O   UNL d   1      22.673 -19.028  -2.088  0.00  0.00    -0.266 OA
ATOM     11  H   UNL d   1      22.956 -19.306   1.033  0.00  0.00     0.163 HD
BRANCH   9  12
ATOM     12  C   UNL d   1      20.956 -19.224  -0.430  0.00  0.00     0.145 A 
ATOM     13  C   UNL d   1      20.504 -19.335   0.919  0.00  0.00     0.058 A 
ATOM     14  C   UNL d   1      19.131 -19.369   0.853  0.00  0.00     0.112 A 
ATOM     15  N   UNL d   1      18.825 -19.303  -0.473  0.00  0.00    -0.289 N 
ATOM     16  N   UNL d   1      19.904 -19.226  -1.270  0.00  0.00    -0.170 NA
ATOM     17  H   UNL d   1      17.904 -19.297  -0.902  0.00  0.00     0.188 HD
ENDBRANCH   9  12
ENDBRANCH   7   8
ENDBRANCH   4   7
BRANCH   1  18
ATOM     18  C   UNL d   1      26.837 -13.625  -1.143  0.00  0.00     0.251 C 
ATOM     19  N   UNL d   1      27.626 -13.004  -0.192  0.00  0.00    -0.357 N 
ATOM     20  H   UNL d   1      27.853 -13.475   0.674  0.00  0.00     0.162 HD
ATOM     21  O   UNL d   1      26.614 -13.142  -2.249  0.00  0.00    -0.268 OA
BRANCH  19  22
ATOM     22  C   UNL d   1      28.226 -11.713  -0.479  0.00  0.00     0.123 C 
BRANCH  22  23
ATOM     23  C   UNL d   1      28.499 -10.902   0.784  0.00  0.00     0.019 C 
BRANCH  23  24
ATOM     24  C   UNL d   1      27.621 -11.368   1.948  0.00  0.00    -0.003 C 
ATOM     25  C   UNL d   1      26.828 -10.209   2.531  0.00  0.00     0.005 C 
ENDBRANCH  23  24
ENDBRANCH  22  23
ENDBRANCH  19  22
ENDBRANCH   1  18
TORSDOF 7
ENDMDL
