MODEL 1
REMARK VINA RESULT:    -9.218      0.000      0.000
REMARK INTER + INTRA:         -11.885
REMARK INTER:                 -11.306
REMARK INTRA:                  -0.579
REMARK CONF_INDEPENDENT:        2.088
REMARK UNBOUND:                -0.579
REMARK  7 active torsions:
REMARK  status: ('A' for Active; 'I' for Inactive)
REMARK    1  A    between atoms: C_2  and  O_3 
REMARK    2  A    between atoms: O_3  and  C_4 
REMARK       I    between atoms: C_4  and  N_6 
REMARK       I    between atoms: N_9  and  C_10 
REMARK    3  A    between atoms: C_10  and  C_12 
REMARK    4  A    between atoms: C_21  and  C_22 
REMARK    5  A    between atoms: C_22  and  S_23 
REMARK    6  A    between atoms: S_23  and  C_24 
REMARK    7  A    between atoms: C_24  and  C_25 
ROOT
ATOM      1  C   UNL d   1      26.697 -14.685  -4.125  0.00  0.00     0.034 A 
ATOM      2  C   UNL d   1      25.514 -14.045  -3.719  0.00  0.00     0.019 A 
ATOM      3  C   UNL d   1      24.907 -14.376  -2.498  0.00  0.00     0.032 A 
ATOM      4  C   UNL d   1      25.480 -15.337  -1.669  0.00  0.00     0.056 A 
ATOM      5  C   UNL d   1      26.665 -15.979  -2.092  0.00  0.00     0.062 A 
ATOM      6  C   UNL d   1      27.292 -15.634  -3.288  0.00  0.00     0.049 A 
ATOM      7  N   UNL d   1      27.210 -16.990  -1.282  0.00  0.00    -0.323 N 
ATOM      8  C   UNL d   1      26.471 -17.600  -0.284  0.00  0.00     0.245 C 
ATOM      9  O   UNL d   1      26.961 -18.485   0.417  0.00  0.00    -0.271 OA
ATOM     10  C   UNL d   1      24.964 -17.203  -0.230  0.00  0.00     0.183 C 
ATOM     11  N   UNL d   1      24.823 -15.767  -0.519  0.00  0.00    -0.374 N 
ATOM     12  H   UNL d   1      28.125 -17.376  -1.466  0.00  0.00     0.169 HD
ATOM     13  H   UNL d   1      24.367 -15.133   0.122  0.00  0.00     0.160 HD
ENDROOT
BRANCH   1  14
ATOM     14  C   UNL d   1      27.351 -14.291  -5.407  0.00  0.00     0.254 C 
ATOM     15  N   UNL d   1      27.405 -12.946  -5.782  0.00  0.00    -0.345 N 
ATOM     16  C   UNL d   1      28.013 -12.547  -7.073  0.00  0.00     0.146 C 
ATOM     17  C   UNL d   1      26.977 -11.799  -4.964  0.00  0.00     0.146 C 
ATOM     18  C   UNL d   1      27.056 -11.621  -7.873  0.00  0.00     0.148 C 
ATOM     19  N   UNL d   1      26.637 -10.490  -7.028  0.00  0.00    -0.325 N 
ATOM     20  C   UNL d   1      26.673  -9.177  -7.463  0.00  0.00     0.362 C 
ATOM     21  C   UNL d   1      26.027 -10.897  -5.763  0.00  0.00     0.148 C 
ATOM     22  O   UNL d   1      26.579  -8.855  -8.651  0.00  0.00    -0.238 OA
ATOM     23  O   UNL d   1      27.809 -15.200  -6.096  0.00  0.00    -0.267 OA
BRANCH  20  24
ATOM     24  O   UNL d   1      26.916  -8.276  -6.458  0.00  0.00    -0.304 OA
BRANCH  24  25
ATOM     25  C   UNL d   1      25.838  -7.355  -6.157  0.00  0.00     0.176 C 
ATOM     26  C   UNL d   1      24.639  -8.097  -5.569  0.00  0.00     0.034 C 
ENDBRANCH  24  25
ENDBRANCH  20  24
ENDBRANCH   1  14
BRANCH  10  27
ATOM     27  C   UNL d   1      24.054 -17.976  -1.260  0.00  0.00     0.109 C 
BRANCH  27  28
ATOM     28  S   UNL d   1      23.118 -19.340  -0.495  0.00  0.00    -0.162 SA
BRANCH  28  29
ATOM     29  C   UNL d   1      21.897 -18.612   0.602  0.00  0.00     0.112 C 
BRANCH  29  30
ATOM     30  C   UNL d   1      20.609 -19.414   0.825  0.00  0.00    -0.043 A 
ATOM     31  C   UNL d   1      20.280 -19.703   2.172  0.00  0.00     0.008 A 
ATOM     32  C   UNL d   1      19.141 -20.443   2.511  0.00  0.00     0.001 A 
ATOM     33  C   UNL d   1      18.297 -20.918   1.516  0.00  0.00     0.001 A 
ATOM     34  C   UNL d   1      18.588 -20.645   0.187  0.00  0.00     0.007 A 
ATOM     35  C   UNL d   1      19.733 -19.910  -0.175  0.00  0.00    -0.055 A 
ATOM     36  C   UNL d   1      19.916 -19.700  -1.654  0.00  0.00     0.049 C 
ENDBRANCH  29  30
ENDBRANCH  28  29
ENDBRANCH  27  28
ENDBRANCH  10  27
TORSDOF 7
ENDMDL
MODEL 2
REMARK VINA RESULT:    -8.896      5.408      8.503
REMARK INTER + INTRA:         -10.989
REMARK INTER:                 -10.984
REMARK INTRA:                  -0.006
REMARK CONF_INDEPENDENT:        2.088
REMARK UNBOUND:                -0.006
REMARK  7 active torsions:
REMARK  status: ('A' for Active; 'I' for Inactive)
REMARK    1  A    between atoms: C_2  and  O_3 
REMARK    2  A    between atoms: O_3  and  C_4 
REMARK       I    between atoms: C_4  and  N_6 
REMARK       I    between atoms: N_9  and  C_10 
REMARK    3  A    between atoms: C_10  and  C_12 
REMARK    4  A    between atoms: C_21  and  C_22 
REMARK    5  A    between atoms: C_22  and  S_23 
REMARK    6  A    between atoms: S_23  and  C_24 
REMARK    7  A    between atoms: C_24  and  C_25 
ROOT
ATOM      1  C   UNL d   1      27.827 -13.554   1.361  0.00  0.00     0.034 A 
ATOM      2  C   UNL d   1      28.120 -14.871   1.754  0.00  0.00     0.019 A 
ATOM      3  C   UNL d   1      27.751 -15.956   0.944  0.00  0.00     0.032 A 
ATOM      4  C   UNL d   1      27.100 -15.736  -0.267  0.00  0.00     0.056 A 
ATOM      5  C   UNL d   1      26.803 -14.409  -0.647  0.00  0.00     0.062 A 
ATOM      6  C   UNL d   1      27.194 -13.323   0.135  0.00  0.00     0.049 A 
ATOM      7  N   UNL d   1      26.094 -14.191  -1.841  0.00  0.00    -0.323 N 
ATOM      8  C   UNL d   1      25.398 -15.209  -2.468  0.00  0.00     0.245 C 
ATOM      9  O   UNL d   1      24.780 -15.003  -3.513  0.00  0.00    -0.271 OA
ATOM     10  C   UNL d   1      25.326 -16.554  -1.683  0.00  0.00     0.183 C 
ATOM     11  N   UNL d   1      26.614 -16.804  -1.017  0.00  0.00    -0.374 N 
ATOM     12  H   UNL d   1      25.985 -13.265  -2.227  0.00  0.00     0.169 HD
ATOM     13  H   UNL d   1      27.145 -17.649  -1.176  0.00  0.00     0.160 HD
ENDROOT
BRANCH   1  14
ATOM     14  C   UNL d   1      28.264 -12.411   2.214  0.00  0.00     0.254 C 
ATOM     15  N   UNL d   1      28.561 -12.616   3.563  0.00  0.00    -0.345 N 
ATOM     16  C   UNL d   1      28.953 -11.480   4.431  0.00  0.00     0.146 C 
ATOM     17  C   UNL d   1      28.614 -13.916   4.253  0.00  0.00     0.146 C 
ATOM     18  C   UNL d   1      28.101 -11.455   5.729  0.00  0.00     0.148 C 
ATOM     19  N   UNL d   1      28.164 -12.769   6.391  0.00  0.00    -0.325 N 
ATOM     20  C   UNL d   1      28.422 -12.914   7.742  0.00  0.00     0.362 C 
ATOM     21  C   UNL d   1      27.761 -13.879   5.529  0.00  0.00     0.148 C 
ATOM     22  O   UNL d   1      28.155 -12.049   8.580  0.00  0.00    -0.238 OA
ATOM     23  O   UNL d   1      28.326 -11.309   1.671  0.00  0.00    -0.267 OA
BRANCH  20  24
ATOM     24  O   UNL d   1      29.090 -14.073   8.047  0.00  0.00    -0.304 OA
BRANCH  24  25
ATOM     25  C   UNL d   1      30.515 -14.074   7.776  0.00  0.00     0.176 C 
ATOM     26  C   UNL d   1      31.044 -12.646   7.652  0.00  0.00     0.034 C 
ENDBRANCH  24  25
ENDBRANCH  20  24
ENDBRANCH   1  14
BRANCH  10  27
ATOM     27  C   UNL d   1      24.212 -16.593  -0.568  0.00  0.00     0.109 C 
BRANCH  27  28
ATOM     28  S   UNL d   1      22.879 -17.780  -0.938  0.00  0.00    -0.162 SA
BRANCH  28  29
ATOM     29  C   UNL d   1      22.416 -18.574   0.606  0.00  0.00     0.112 C 
BRANCH  29  30
ATOM     30  C   UNL d   1      21.027 -19.220   0.656  0.00  0.00    -0.043 A 
ATOM     31  C   UNL d   1      20.498 -19.461   1.947  0.00  0.00     0.008 A 
ATOM     32  C   UNL d   1      19.247 -20.063   2.132  0.00  0.00     0.001 A 
ATOM     33  C   UNL d   1      18.488 -20.443   1.034  0.00  0.00     0.001 A 
ATOM     34  C   UNL d   1      18.975 -20.213  -0.245  0.00  0.00     0.007 A 
ATOM     35  C   UNL d   1      20.234 -19.617  -0.452  0.00  0.00    -0.055 A 
ATOM     36  C   UNL d   1      20.626 -19.439  -1.894  0.00  0.00     0.049 C 
ENDBRANCH  29  30
ENDBRANCH  28  29
ENDBRANCH  27  28
ENDBRANCH  10  27
TORSDOF 7
ENDMDL
MODEL 3
REMARK VINA RESULT:    -7.706      7.656     11.559
REMARK INTER + INTRA:         -10.932
REMARK INTER:                  -9.794
REMARK INTRA:                  -1.137
REMARK CONF_INDEPENDENT:        2.088
REMARK UNBOUND:                -1.137
REMARK  7 active torsions:
REMARK  status: ('A' for Active; 'I' for Inactive)
REMARK    1  A    between atoms: C_2  and  O_3 
REMARK    2  A    between atoms: O_3  and  C_4 
REMARK       I    between atoms: C_4  and  N_6 
REMARK       I    between atoms: N_9  and  C_10 
REMARK    3  A    between atoms: C_10  and  C_12 
REMARK    4  A    between atoms: C_21  and  C_22 
REMARK    5  A    between atoms: C_22  and  S_23 
REMARK    6  A    between atoms: S_23  and  C_24 
REMARK    7  A    between atoms: C_24  and  C_25 
ROOT
ATOM      1  C   UNL d   1      28.536 -12.723   4.927  0.00  0.00     0.034 A 
ATOM      2  C   UNL d   1      27.942 -13.996   4.943  0.00  0.00     0.019 A 
ATOM      3  C   UNL d   1      28.004 -14.826   3.813  0.00  0.00     0.032 A 
ATOM      4  C   UNL d   1      28.667 -14.399   2.666  0.00  0.00     0.056 A 
ATOM      5  C   UNL d   1      29.253 -13.113   2.659  0.00  0.00     0.062 A 
ATOM      6  C   UNL d   1      29.225 -12.295   3.788  0.00  0.00     0.049 A 
ATOM      7  N   UNL d   1      29.871 -12.659   1.482  0.00  0.00    -0.323 N 
ATOM      8  C   UNL d   1      29.639 -13.265   0.260  0.00  0.00     0.245 C 
ATOM      9  O   UNL d   1      30.186 -12.856  -0.764  0.00  0.00    -0.271 OA
ATOM     10  C   UNL d   1      28.537 -14.368   0.257  0.00  0.00     0.183 C 
ATOM     11  N   UNL d   1      28.626 -15.155   1.498  0.00  0.00    -0.374 N 
ATOM     12  H   UNL d   1      30.425 -11.816   1.469  0.00  0.00     0.169 HD
ATOM     13  H   UNL d   1      28.747 -16.158   1.489  0.00  0.00     0.160 HD
ENDROOT
BRANCH   1  14
ATOM     14  C   UNL d   1      28.497 -11.871   6.152  0.00  0.00     0.254 C 
ATOM     15  N   UNL d   1      28.944 -12.379   7.374  0.00  0.00    -0.345 N 
ATOM     16  C   UNL d   1      28.869 -11.557   8.605  0.00  0.00     0.146 C 
ATOM     17  C   UNL d   1      29.595 -13.682   7.586  0.00  0.00     0.146 C 
ATOM     18  C   UNL d   1      28.178 -12.342   9.753  0.00  0.00     0.148 C 
ATOM     19  N   UNL d   1      28.842 -13.644   9.936  0.00  0.00    -0.325 N 
ATOM     20  C   UNL d   1      29.229 -14.119  11.177  0.00  0.00     0.362 C 
ATOM     21  C   UNL d   1      28.897 -14.450   8.718  0.00  0.00     0.148 C 
ATOM     22  O   UNL d   1      28.673 -13.794  12.229  0.00  0.00    -0.238 OA
ATOM     23  O   UNL d   1      28.044 -10.735   6.020  0.00  0.00    -0.267 OA
BRANCH  20  24
ATOM     24  O   UNL d   1      30.348 -14.911  11.132  0.00  0.00    -0.304 OA
BRANCH  24  25
ATOM     25  C   UNL d   1      31.569 -14.261  10.697  0.00  0.00     0.176 C 
ATOM     26  C   UNL d   1      32.212 -15.029   9.544  0.00  0.00     0.034 C 
ENDBRANCH  24  25
ENDBRANCH  20  24
ENDBRANCH   1  14
BRANCH  10  27
ATOM     27  C   UNL d   1      27.065 -13.811   0.166  0.00  0.00     0.109 C 
BRANCH  27  28
ATOM     28  S   UNL d   1      26.352 -13.962  -1.505  0.00  0.00    -0.162 SA
BRANCH  28  29
ATOM     29  C   UNL d   1      26.371 -15.703  -1.948  0.00  0.00     0.112 C 
BRANCH  29  30
ATOM     30  C   UNL d   1      25.402 -16.616  -1.188  0.00  0.00    -0.043 A 
ATOM     31  C   UNL d   1      24.032 -16.486  -1.520  0.00  0.00     0.008 A 
ATOM     32  C   UNL d   1      23.043 -17.247  -0.886  0.00  0.00     0.001 A 
ATOM     33  C   UNL d   1      23.391 -18.161   0.099  0.00  0.00     0.001 A 
ATOM     34  C   UNL d   1      24.727 -18.317   0.442  0.00  0.00     0.007 A 
ATOM     35  C   UNL d   1      25.736 -17.555  -0.177  0.00  0.00    -0.055 A 
ATOM     36  C   UNL d   1      27.134 -17.834   0.305  0.00  0.00     0.049 C 
ENDBRANCH  29  30
ENDBRANCH  28  29
ENDBRANCH  27  28
ENDBRANCH  10  27
TORSDOF 7
ENDMDL
MODEL 4
REMARK VINA RESULT:    -7.585      4.399      6.927
REMARK INTER + INTRA:         -10.877
REMARK INTER:                  -9.674
REMARK INTRA:                  -1.203
REMARK CONF_INDEPENDENT:        2.088
REMARK UNBOUND:                -1.203
REMARK  7 active torsions:
REMARK  status: ('A' for Active; 'I' for Inactive)
REMARK    1  A    between atoms: C_2  and  O_3 
REMARK    2  A    between atoms: O_3  and  C_4 
REMARK       I    between atoms: C_4  and  N_6 
REMARK       I    between atoms: N_9  and  C_10 
REMARK    3  A    between atoms: C_10  and  C_12 
REMARK    4  A    between atoms: C_21  and  C_22 
REMARK    5  A    between atoms: C_22  and  S_23 
REMARK    6  A    between atoms: S_23  and  C_24 
REMARK    7  A    between atoms: C_24  and  C_25 
ROOT
ATOM      1  C   UNL d   1      26.287 -10.215  -3.987  0.00  0.00     0.034 A 
ATOM      2  C   UNL d   1      27.521 -10.114  -4.652  0.00  0.00     0.019 A 
ATOM      3  C   UNL d   1      28.061 -11.223  -5.323  0.00  0.00     0.032 A 
ATOM      4  C   UNL d   1      27.372 -12.432  -5.345  0.00  0.00     0.056 A 
ATOM      5  C   UNL d   1      26.137 -12.523  -4.665  0.00  0.00     0.062 A 
ATOM      6  C   UNL d   1      25.577 -11.419  -4.024  0.00  0.00     0.049 A 
ATOM      7  N   UNL d   1      25.471 -13.760  -4.638  0.00  0.00    -0.323 N 
ATOM      8  C   UNL d   1      26.119 -14.941  -4.952  0.00  0.00     0.245 C 
ATOM      9  O   UNL d   1      25.523 -16.018  -4.923  0.00  0.00    -0.271 OA
ATOM     10  C   UNL d   1      27.657 -14.822  -5.176  0.00  0.00     0.183 C 
ATOM     11  N   UNL d   1      27.953 -13.572  -5.894  0.00  0.00    -0.374 N 
ATOM     12  H   UNL d   1      24.525 -13.841  -4.294  0.00  0.00     0.169 HD
ATOM     13  H   UNL d   1      28.458 -13.563  -6.770  0.00  0.00     0.160 HD
ENDROOT
BRANCH   1  14
ATOM     14  C   UNL d   1      25.707  -9.015  -3.315  0.00  0.00     0.254 C 
ATOM     15  N   UNL d   1      26.202  -8.596  -2.078  0.00  0.00    -0.345 N 
ATOM     16  C   UNL d   1      25.604  -7.433  -1.381  0.00  0.00     0.146 C 
ATOM     17  C   UNL d   1      27.371  -9.154  -1.376  0.00  0.00     0.146 C 
ATOM     18  C   UNL d   1      25.251  -7.791   0.089  0.00  0.00     0.148 C 
ATOM     19  N   UNL d   1      26.434  -8.355   0.762  0.00  0.00    -0.325 N 
ATOM     20  C   UNL d   1      26.859  -7.931   2.009  0.00  0.00     0.362 C 
ATOM     21  C   UNL d   1      27.005  -9.510   0.072  0.00  0.00     0.148 C 
ATOM     22  O   UNL d   1      26.101  -7.448   2.854  0.00  0.00    -0.238 OA
ATOM     23  O   UNL d   1      24.783  -8.450  -3.896  0.00  0.00    -0.267 OA
BRANCH  20  24
ATOM     24  O   UNL d   1      28.218  -8.013   2.177  0.00  0.00    -0.304 OA
BRANCH  24  25
ATOM     25  C   UNL d   1      28.678  -8.983   3.153  0.00  0.00     0.176 C 
ATOM     26  C   UNL d   1      27.509  -9.804   3.695  0.00  0.00     0.034 C 
ENDBRANCH  24  25
ENDBRANCH  20  24
ENDBRANCH   1  14
BRANCH  10  27
ATOM     27  C   UNL d   1      28.506 -14.806  -3.847  0.00  0.00     0.109 C 
BRANCH  27  28
ATOM     28  S   UNL d   1      27.472 -14.755  -2.347  0.00  0.00    -0.162 SA
BRANCH  28  29
ATOM     29  C   UNL d   1      27.346 -16.434  -1.718  0.00  0.00     0.112 C 
BRANCH  29  30
ATOM     30  C   UNL d   1      25.985 -16.855  -1.153  0.00  0.00    -0.043 A 
ATOM     31  C   UNL d   1      24.852 -16.215  -1.712  0.00  0.00     0.008 A 
ATOM     32  C   UNL d   1      23.553 -16.496  -1.271  0.00  0.00     0.001 A 
ATOM     33  C   UNL d   1      23.346 -17.424  -0.260  0.00  0.00     0.001 A 
ATOM     34  C   UNL d   1      24.435 -18.074   0.302  0.00  0.00     0.007 A 
ATOM     35  C   UNL d   1      25.750 -17.800  -0.120  0.00  0.00    -0.055 A 
ATOM     36  C   UNL d   1      26.824 -18.581   0.588  0.00  0.00     0.049 C 
ENDBRANCH  29  30
ENDBRANCH  28  29
ENDBRANCH  27  28
ENDBRANCH  10  27
TORSDOF 7
ENDMDL
MODEL 5
REMARK VINA RESULT:    -7.515      4.516      6.796
REMARK INTER + INTRA:         -10.736
REMARK INTER:                  -9.603
REMARK INTRA:                  -1.134
REMARK CONF_INDEPENDENT:        2.088
REMARK UNBOUND:                -1.134
REMARK  7 active torsions:
REMARK  status: ('A' for Active; 'I' for Inactive)
REMARK    1  A    between atoms: C_2  and  O_3 
REMARK    2  A    between atoms: O_3  and  C_4 
REMARK       I    between atoms: C_4  and  N_6 
REMARK       I    between atoms: N_9  and  C_10 
REMARK    3  A    between atoms: C_10  and  C_12 
REMARK    4  A    between atoms: C_21  and  C_22 
REMARK    5  A    between atoms: C_22  and  S_23 
REMARK    6  A    between atoms: S_23  and  C_24 
REMARK    7  A    between atoms: C_24  and  C_25 
ROOT
ATOM      1  C   UNL d   1      28.406 -14.332   0.144  0.00  0.00     0.034 A 
ATOM      2  C   UNL d   1      28.654 -15.695  -0.089  0.00  0.00     0.019 A 
ATOM      3  C   UNL d   1      28.667 -16.204  -1.397  0.00  0.00     0.032 A 
ATOM      4  C   UNL d   1      28.445 -15.358  -2.480  0.00  0.00     0.056 A 
ATOM      5  C   UNL d   1      28.188 -13.991  -2.233  0.00  0.00     0.062 A 
ATOM      6  C   UNL d   1      28.205 -13.470  -0.940  0.00  0.00     0.049 A 
ATOM      7  N   UNL d   1      27.906 -13.150  -3.322  0.00  0.00    -0.323 N 
ATOM      8  C   UNL d   1      27.546 -13.657  -4.558  0.00  0.00     0.245 C 
ATOM      9  O   UNL d   1      27.300 -12.907  -5.503  0.00  0.00    -0.271 OA
ATOM     10  C   UNL d   1      27.322 -15.199  -4.609  0.00  0.00     0.183 C 
ATOM     11  N   UNL d   1      28.327 -15.870  -3.770  0.00  0.00    -0.374 N 
ATOM     12  H   UNL d   1      27.859 -12.147  -3.214  0.00  0.00     0.169 HD
ATOM     13  H   UNL d   1      28.947 -16.578  -4.137  0.00  0.00     0.160 HD
ENDROOT
BRANCH   1  14
ATOM     14  C   UNL d   1      28.438 -13.800   1.537  0.00  0.00     0.254 C 
ATOM     15  N   UNL d   1      27.703 -12.659   1.869  0.00  0.00    -0.345 N 
ATOM     16  C   UNL d   1      27.762 -12.096   3.239  0.00  0.00     0.146 C 
ATOM     17  C   UNL d   1      26.756 -11.951   0.992  0.00  0.00     0.146 C 
ATOM     18  C   UNL d   1      28.074 -10.574   3.198  0.00  0.00     0.148 C 
ATOM     19  N   UNL d   1      27.118  -9.894   2.307  0.00  0.00    -0.325 N 
ATOM     20  C   UNL d   1      26.446  -8.741   2.671  0.00  0.00     0.362 C 
ATOM     21  C   UNL d   1      27.080 -10.451   0.955  0.00  0.00     0.148 C 
ATOM     22  O   UNL d   1      26.886  -7.931   3.490  0.00  0.00    -0.238 OA
ATOM     23  O   UNL d   1      29.145 -14.403   2.342  0.00  0.00    -0.267 OA
BRANCH  20  24
ATOM     24  O   UNL d   1      25.201  -8.635   2.104  0.00  0.00    -0.304 OA
BRANCH  24  25
ATOM     25  C   UNL d   1      25.156  -8.049   0.778  0.00  0.00     0.176 C 
ATOM     26  C   UNL d   1      25.686  -6.616   0.801  0.00  0.00     0.034 C 
ENDBRANCH  24  25
ENDBRANCH  20  24
ENDBRANCH   1  14
BRANCH  10  27
ATOM     27  C   UNL d   1      25.905 -15.665  -4.098  0.00  0.00     0.109 C 
BRANCH  27  28
ATOM     28  S   UNL d   1      25.210 -14.556  -2.829  0.00  0.00    -0.162 SA
BRANCH  28  29
ATOM     29  C   UNL d   1      25.452 -15.342  -1.231  0.00  0.00     0.112 C 
BRANCH  29  30
ATOM     30  C   UNL d   1      24.541 -16.531  -0.905  0.00  0.00    -0.043 A 
ATOM     31  C   UNL d   1      23.153 -16.326  -1.102  0.00  0.00     0.008 A 
ATOM     32  C   UNL d   1      22.213 -17.324  -0.824  0.00  0.00     0.001 A 
ATOM     33  C   UNL d   1      22.628 -18.558  -0.341  0.00  0.00     0.001 A 
ATOM     34  C   UNL d   1      23.981 -18.792  -0.145  0.00  0.00     0.007 A 
ATOM     35  C   UNL d   1      24.943 -17.799  -0.409  0.00  0.00    -0.055 A 
ATOM     36  C   UNL d   1      26.368 -18.202  -0.143  0.00  0.00     0.049 C 
ENDBRANCH  29  30
ENDBRANCH  28  29
ENDBRANCH  27  28
ENDBRANCH  10  27
TORSDOF 7
ENDMDL
MODEL 6
REMARK VINA RESULT:    -7.481      3.137      9.758
REMARK INTER + INTRA:         -11.085
REMARK INTER:                  -9.569
REMARK INTRA:                  -1.516
REMARK CONF_INDEPENDENT:        2.088
REMARK UNBOUND:                -1.516
REMARK  7 active torsions:
REMARK  status: ('A' for Active; 'I' for Inactive)
REMARK    1  A    between atoms: C_2  and  O_3 
REMARK    2  A    between atoms: O_3  and  C_4 
REMARK       I    between atoms: C_4  and  N_6 
REMARK       I    between atoms: N_9  and  C_10 
REMARK    3  A    between atoms: C_10  and  C_12 
REMARK    4  A    between atoms: C_21  and  C_22 
REMARK    5  A    between atoms: C_22  and  S_23 
REMARK    6  A    between atoms: S_23  and  C_24 
REMARK    7  A    between atoms: C_24  and  C_25 
ROOT
ATOM      1  C   UNL d   1      26.308 -14.782  -1.810  0.00  0.00     0.034 A 
ATOM      2  C   UNL d   1      26.838 -13.744  -1.026  0.00  0.00     0.019 A 
ATOM      3  C   UNL d   1      26.828 -12.421  -1.492  0.00  0.00     0.032 A 
ATOM      4  C   UNL d   1      26.279 -12.121  -2.736  0.00  0.00     0.056 A 
ATOM      5  C   UNL d   1      25.757 -13.174  -3.519  0.00  0.00     0.062 A 
ATOM      6  C   UNL d   1      25.733 -14.486  -3.051  0.00  0.00     0.049 A 
ATOM      7  N   UNL d   1      25.256 -12.879  -4.799  0.00  0.00    -0.323 N 
ATOM      8  C   UNL d   1      25.556 -11.690  -5.440  0.00  0.00     0.245 C 
ATOM      9  O   UNL d   1      25.112 -11.445  -6.562  0.00  0.00    -0.271 OA
ATOM     10  C   UNL d   1      26.603 -10.786  -4.720  0.00  0.00     0.183 C 
ATOM     11  N   UNL d   1      26.378 -10.837  -3.266  0.00  0.00    -0.374 N 
ATOM     12  H   UNL d   1      24.745 -13.564  -5.335  0.00  0.00     0.169 HD
ATOM     13  H   UNL d   1      26.212 -10.004  -2.719  0.00  0.00     0.160 HD
ENDROOT
BRANCH   1  14
ATOM     14  C   UNL d   1      26.288 -16.177  -1.281  0.00  0.00     0.254 C 
ATOM     15  N   UNL d   1      25.079 -16.867  -1.167  0.00  0.00    -0.345 N 
ATOM     16  C   UNL d   1      25.042 -18.236  -0.601  0.00  0.00     0.146 C 
ATOM     17  C   UNL d   1      23.766 -16.402  -1.645  0.00  0.00     0.146 C 
ATOM     18  C   UNL d   1      23.973 -18.342   0.521  0.00  0.00     0.148 C 
ATOM     19  N   UNL d   1      22.675 -17.862   0.018  0.00  0.00    -0.325 N 
ATOM     20  C   UNL d   1      21.497 -18.567   0.194  0.00  0.00     0.362 C 
ATOM     21  C   UNL d   1      22.722 -16.505  -0.524  0.00  0.00     0.148 C 
ATOM     22  O   UNL d   1      21.308 -19.346   1.131  0.00  0.00    -0.238 OA
ATOM     23  O   UNL d   1      27.370 -16.655  -0.946  0.00  0.00    -0.267 OA
BRANCH  20  24
ATOM     24  O   UNL d   1      20.598 -18.387  -0.826  0.00  0.00    -0.304 OA
BRANCH  24  25
ATOM     25  C   UNL d   1      19.912 -19.579  -1.285  0.00  0.00     0.176 C 
ATOM     26  C   UNL d   1      18.879 -20.040  -0.258  0.00  0.00     0.034 C 
ENDBRANCH  24  25
ENDBRANCH  20  24
ENDBRANCH   1  14
BRANCH  10  27
ATOM     27  C   UNL d   1      28.102 -11.204  -4.973  0.00  0.00     0.109 C 
BRANCH  27  28
ATOM     28  S   UNL d   1      28.279 -12.954  -5.451  0.00  0.00    -0.162 SA
BRANCH  28  29
ATOM     29  C   UNL d   1      29.729 -13.602  -4.611  0.00  0.00     0.112 C 
BRANCH  29  30
ATOM     30  C   UNL d   1      29.852 -15.128  -4.530  0.00  0.00    -0.043 A 
ATOM     31  C   UNL d   1      29.708 -15.698  -3.242  0.00  0.00     0.008 A 
ATOM     32  C   UNL d   1      29.817 -17.078  -3.030  0.00  0.00     0.001 A 
ATOM     33  C   UNL d   1      30.073 -17.929  -4.096  0.00  0.00     0.001 A 
ATOM     34  C   UNL d   1      30.212 -17.401  -5.371  0.00  0.00     0.007 A 
ATOM     35  C   UNL d   1      30.115 -16.017  -5.606  0.00  0.00    -0.055 A 
ATOM     36  C   UNL d   1      30.293 -15.597  -7.040  0.00  0.00     0.049 C 
ENDBRANCH  29  30
ENDBRANCH  28  29
ENDBRANCH  27  28
ENDBRANCH  10  27
TORSDOF 7
ENDMDL
MODEL 7
REMARK VINA RESULT:    -7.425      8.403     10.802
REMARK INTER + INTRA:         -10.842
REMARK INTER:                  -9.513
REMARK INTRA:                  -1.328
REMARK CONF_INDEPENDENT:        2.088
REMARK UNBOUND:                -1.328
REMARK  7 active torsions:
REMARK  status: ('A' for Active; 'I' for Inactive)
REMARK    1  A    between atoms: C_2  and  O_3 
REMARK    2  A    between atoms: O_3  and  C_4 
REMARK       I    between atoms: C_4  and  N_6 
REMARK       I    between atoms: N_9  and  C_10 
REMARK    3  A    between atoms: C_10  and  C_12 
REMARK    4  A    between atoms: C_21  and  C_22 
REMARK    5  A    between atoms: C_22  and  S_23 
REMARK    6  A    between atoms: S_23  and  C_24 
REMARK    7  A    between atoms: C_24  and  C_25 
ROOT
ATOM      1  C   UNL d   1      28.251 -12.929   2.810  0.00  0.00     0.034 A 
ATOM      2  C   UNL d   1      28.659 -14.263   2.973  0.00  0.00     0.019 A 
ATOM      3  C   UNL d   1      28.795 -14.815   4.256  0.00  0.00     0.032 A 
ATOM      4  C   UNL d   1      28.516 -14.046   5.383  0.00  0.00     0.056 A 
ATOM      5  C   UNL d   1      28.114 -12.703   5.206  0.00  0.00     0.062 A 
ATOM      6  C   UNL d   1      27.945 -12.156   3.935  0.00  0.00     0.049 A 
ATOM      7  N   UNL d   1      27.889 -11.911   6.344  0.00  0.00    -0.323 N 
ATOM      8  C   UNL d   1      28.358 -12.281   7.592  0.00  0.00     0.245 C 
ATOM      9  O   UNL d   1      28.155 -11.576   8.580  0.00  0.00    -0.271 OA
ATOM     10  C   UNL d   1      29.279 -13.539   7.614  0.00  0.00     0.183 C 
ATOM     11  N   UNL d   1      28.770 -14.537   6.660  0.00  0.00    -0.374 N 
ATOM     12  H   UNL d   1      27.465 -10.997   6.274  0.00  0.00     0.169 HD
ATOM     13  H   UNL d   1      28.534 -15.478   6.943  0.00  0.00     0.160 HD
ENDROOT
BRANCH   1  14
ATOM     14  C   UNL d   1      28.069 -12.371   1.438  0.00  0.00     0.254 C 
ATOM     15  N   UNL d   1      27.189 -12.983   0.542  0.00  0.00    -0.345 N 
ATOM     16  C   UNL d   1      27.034 -12.465  -0.837  0.00  0.00     0.146 C 
ATOM     17  C   UNL d   1      26.279 -14.101   0.847  0.00  0.00     0.146 C 
ATOM     18  C   UNL d   1      27.190 -13.607  -1.878  0.00  0.00     0.148 C 
ATOM     19  N   UNL d   1      26.277 -14.714  -1.543  0.00  0.00    -0.325 N 
ATOM     20  C   UNL d   1      25.453 -15.313  -2.479  0.00  0.00     0.362 C 
ATOM     21  C   UNL d   1      26.449 -15.225  -0.184  0.00  0.00     0.148 C 
ATOM     22  O   UNL d   1      25.712 -15.349  -3.685  0.00  0.00    -0.238 OA
ATOM     23  O   UNL d   1      28.739 -11.380   1.151  0.00  0.00    -0.267 OA
BRANCH  20  24
ATOM     24  O   UNL d   1      24.276 -15.779  -1.949  0.00  0.00    -0.304 OA
BRANCH  24  25
ATOM     25  C   UNL d   1      24.237 -17.195  -1.638  0.00  0.00     0.176 C 
ATOM     26  C   UNL d   1      23.124 -17.500  -0.638  0.00  0.00     0.034 C 
ENDBRANCH  24  25
ENDBRANCH  20  24
ENDBRANCH   1  14
BRANCH  10  27
ATOM     27  C   UNL d   1      30.780 -13.250   7.228  0.00  0.00     0.109 C 
BRANCH  27  28
ATOM     28  S   UNL d   1      31.534 -11.939   8.244  0.00  0.00    -0.162 SA
BRANCH  28  29
ATOM     29  C   UNL d   1      31.771 -12.602   9.897  0.00  0.00     0.112 C 
BRANCH  29  30
ATOM     30  C   UNL d   1      30.521 -13.132  10.610  0.00  0.00    -0.043 A 
ATOM     31  C   UNL d   1      29.659 -12.156  11.166  0.00  0.00     0.008 A 
ATOM     32  C   UNL d   1      28.495 -12.508  11.860  0.00  0.00     0.001 A 
ATOM     33  C   UNL d   1      28.156 -13.845  12.018  0.00  0.00     0.001 A 
ATOM     34  C   UNL d   1      28.976 -14.825  11.478  0.00  0.00     0.007 A 
ATOM     35  C   UNL d   1      30.156 -14.493  10.786  0.00  0.00    -0.055 A 
ATOM     36  C   UNL d   1      30.942 -15.665  10.262  0.00  0.00     0.049 C 
ENDBRANCH  29  30
ENDBRANCH  28  29
ENDBRANCH  27  28
ENDBRANCH  10  27
TORSDOF 7
ENDMDL
MODEL 8
REMARK VINA RESULT:    -7.379      4.157      9.694
REMARK INTER + INTRA:         -11.276
REMARK INTER:                  -9.467
REMARK INTRA:                  -1.810
REMARK CONF_INDEPENDENT:        2.088
REMARK UNBOUND:                -1.810
REMARK  7 active torsions:
REMARK  status: ('A' for Active; 'I' for Inactive)
REMARK    1  A    between atoms: C_2  and  O_3 
REMARK    2  A    between atoms: O_3  and  C_4 
REMARK       I    between atoms: C_4  and  N_6 
REMARK       I    between atoms: N_9  and  C_10 
REMARK    3  A    between atoms: C_10  and  C_12 
REMARK    4  A    between atoms: C_21  and  C_22 
REMARK    5  A    between atoms: C_22  and  S_23 
REMARK    6  A    between atoms: S_23  and  C_24 
REMARK    7  A    between atoms: C_24  and  C_25 
ROOT
ATOM      1  C   UNL d   1      25.636 -16.508  -0.922  0.00  0.00     0.034 A 
ATOM      2  C   UNL d   1      26.069 -17.822  -0.677  0.00  0.00     0.019 A 
ATOM      3  C   UNL d   1      27.427 -18.095  -0.453  0.00  0.00     0.032 A 
ATOM      4  C   UNL d   1      28.360 -17.061  -0.458  0.00  0.00     0.056 A 
ATOM      5  C   UNL d   1      27.913 -15.745  -0.714  0.00  0.00     0.062 A 
ATOM      6  C   UNL d   1      26.562 -15.460  -0.906  0.00  0.00     0.049 A 
ATOM      7  N   UNL d   1      28.862 -14.711  -0.778  0.00  0.00    -0.323 N 
ATOM      8  C   UNL d   1      30.212 -14.972  -0.934  0.00  0.00     0.245 C 
ATOM      9  O   UNL d   1      31.032 -14.055  -0.989  0.00  0.00    -0.271 OA
ATOM     10  C   UNL d   1      30.580 -16.465  -1.191  0.00  0.00     0.183 C 
ATOM     11  N   UNL d   1      29.722 -17.331  -0.366  0.00  0.00    -0.374 N 
ATOM     12  H   UNL d   1      28.583 -13.741  -0.813  0.00  0.00     0.169 HD
ATOM     13  H   UNL d   1      30.106 -18.001   0.287  0.00  0.00     0.160 HD
ENDROOT
BRANCH   1  14
ATOM     14  C   UNL d   1      24.183 -16.230  -1.116  0.00  0.00     0.254 C 
ATOM     15  N   UNL d   1      23.225 -17.078  -0.554  0.00  0.00    -0.345 N 
ATOM     16  C   UNL d   1      21.780 -16.837  -0.777  0.00  0.00     0.146 C 
ATOM     17  C   UNL d   1      23.491 -18.203   0.358  0.00  0.00     0.146 C 
ATOM     18  C   UNL d   1      21.074 -18.129  -1.270  0.00  0.00     0.148 C 
ATOM     19  N   UNL d   1      21.365 -19.239  -0.346  0.00  0.00    -0.325 N 
ATOM     20  C   UNL d   1      20.381 -20.075   0.152  0.00  0.00     0.362 C 
ATOM     21  C   UNL d   1      22.794 -19.475  -0.145  0.00  0.00     0.148 C 
ATOM     22  O   UNL d   1      19.325 -20.306  -0.442  0.00  0.00    -0.238 OA
ATOM     23  O   UNL d   1      23.895 -15.248  -1.798  0.00  0.00    -0.267 OA
BRANCH  20  24
ATOM     24  O   UNL d   1      20.655 -20.548   1.410  0.00  0.00    -0.304 OA
BRANCH  24  25
ATOM     25  C   UNL d   1      19.829 -20.022   2.479  0.00  0.00     0.176 C 
ATOM     26  C   UNL d   1      18.349 -20.088   2.104  0.00  0.00     0.034 C 
ENDBRANCH  24  25
ENDBRANCH  20  24
ENDBRANCH   1  14
BRANCH  10  27
ATOM     27  C   UNL d   1      30.403 -16.927  -2.688  0.00  0.00     0.109 C 
BRANCH  27  28
ATOM     28  S   UNL d   1      30.544 -15.551  -3.875  0.00  0.00    -0.162 SA
BRANCH  28  29
ATOM     29  C   UNL d   1      28.978 -15.424  -4.747  0.00  0.00     0.112 C 
BRANCH  29  30
ATOM     30  C   UNL d   1      27.965 -14.414  -4.196  0.00  0.00    -0.043 A 
ATOM     31  C   UNL d   1      28.504 -13.311  -3.490  0.00  0.00     0.008 A 
ATOM     32  C   UNL d   1      27.687 -12.328  -2.921  0.00  0.00     0.001 A 
ATOM     33  C   UNL d   1      26.306 -12.415  -3.040  0.00  0.00     0.001 A 
ATOM     34  C   UNL d   1      25.748 -13.479  -3.732  0.00  0.00     0.007 A 
ATOM     35  C   UNL d   1      26.551 -14.484  -4.304  0.00  0.00    -0.055 A 
ATOM     36  C   UNL d   1      25.799 -15.574  -5.019  0.00  0.00     0.049 C 
ENDBRANCH  29  30
ENDBRANCH  28  29
ENDBRANCH  27  28
ENDBRANCH  10  27
TORSDOF 7
ENDMDL
MODEL 9
REMARK VINA RESULT:    -7.184      3.433      9.879
REMARK INTER + INTRA:         -11.132
REMARK INTER:                  -9.272
REMARK INTRA:                  -1.859
REMARK CONF_INDEPENDENT:        2.088
REMARK UNBOUND:                -1.859
REMARK  7 active torsions:
REMARK  status: ('A' for Active; 'I' for Inactive)
REMARK    1  A    between atoms: C_2  and  O_3 
REMARK    2  A    between atoms: O_3  and  C_4 
REMARK       I    between atoms: C_4  and  N_6 
REMARK       I    between atoms: N_9  and  C_10 
REMARK    3  A    between atoms: C_10  and  C_12 
REMARK    4  A    between atoms: C_21  and  C_22 
REMARK    5  A    between atoms: C_22  and  S_23 
REMARK    6  A    between atoms: S_23  and  C_24 
REMARK    7  A    between atoms: C_24  and  C_25 
ROOT
ATOM      1  C   UNL d   1      27.047 -15.444  -2.215  0.00  0.00     0.034 A 
ATOM      2  C   UNL d   1      26.912 -14.164  -1.652  0.00  0.00     0.019 A 
ATOM      3  C   UNL d   1      27.031 -13.017  -2.452  0.00  0.00     0.032 A 
ATOM      4  C   UNL d   1      27.271 -13.137  -3.818  0.00  0.00     0.056 A 
ATOM      5  C   UNL d   1      27.413 -14.429  -4.371  0.00  0.00     0.062 A 
ATOM      6  C   UNL d   1      27.265 -15.575  -3.591  0.00  0.00     0.049 A 
ATOM      7  N   UNL d   1      27.714 -14.548  -5.738  0.00  0.00    -0.323 N 
ATOM      8  C   UNL d   1      28.199 -13.480  -6.471  0.00  0.00     0.245 C 
ATOM      9  O   UNL d   1      28.460 -13.599  -7.669  0.00  0.00    -0.271 OA
ATOM     10  C   UNL d   1      28.534 -12.199  -5.647  0.00  0.00     0.183 C 
ATOM     11  N   UNL d   1      27.519 -12.011  -4.598  0.00  0.00    -0.374 N 
ATOM     12  H   UNL d   1      27.683 -15.441  -6.209  0.00  0.00     0.169 HD
ATOM     13  H   UNL d   1      26.979 -11.160  -4.520  0.00  0.00     0.160 HD
ENDROOT
BRANCH   1  14
ATOM     14  C   UNL d   1      26.876 -16.653  -1.358  0.00  0.00     0.254 C 
ATOM     15  N   UNL d   1      25.619 -17.249  -1.229  0.00  0.00    -0.345 N 
ATOM     16  C   UNL d   1      25.428 -18.424  -0.346  0.00  0.00     0.146 C 
ATOM     17  C   UNL d   1      24.403 -16.879  -1.972  0.00  0.00     0.146 C 
ATOM     18  C   UNL d   1      24.233 -18.200   0.621  0.00  0.00     0.148 C 
ATOM     19  N   UNL d   1      23.035 -17.823  -0.148  0.00  0.00    -0.325 N 
ATOM     20  C   UNL d   1      21.802 -18.419   0.048  0.00  0.00     0.362 C 
ATOM     21  C   UNL d   1      23.232 -16.654  -1.005  0.00  0.00     0.148 C 
ATOM     22  O   UNL d   1      21.456 -18.922   1.120  0.00  0.00    -0.238 OA
ATOM     23  O   UNL d   1      27.879 -17.065  -0.779  0.00  0.00    -0.267 OA
BRANCH  20  24
ATOM     24  O   UNL d   1      21.039 -18.478  -1.091  0.00  0.00    -0.304 OA
BRANCH  24  25
ATOM     25  C   UNL d   1      20.278 -19.698  -1.282  0.00  0.00     0.176 C 
ATOM     26  C   UNL d   1      19.038 -19.709  -0.390  0.00  0.00     0.034 C 
ENDBRANCH  24  25
ENDBRANCH  20  24
ENDBRANCH   1  14
BRANCH  10  27
ATOM     27  C   UNL d   1      29.938 -12.238  -4.933  0.00  0.00     0.109 C 
BRANCH  27  28
ATOM     28  S   UNL d   1      30.962 -13.652  -5.458  0.00  0.00    -0.162 SA
BRANCH  28  29
ATOM     29  C   UNL d   1      30.694 -14.982  -4.281  0.00  0.00     0.112 C 
BRANCH  29  30
ATOM     30  C   UNL d   1      30.679 -16.408  -4.847  0.00  0.00    -0.043 A 
ATOM     31  C   UNL d   1      30.798 -16.522  -6.253  0.00  0.00     0.008 A 
ATOM     32  C   UNL d   1      30.779 -17.764  -6.897  0.00  0.00     0.001 A 
ATOM     33  C   UNL d   1      30.642 -18.931  -6.157  0.00  0.00     0.001 A 
ATOM     34  C   UNL d   1      30.532 -18.853  -4.776  0.00  0.00     0.007 A 
ATOM     35  C   UNL d   1      30.539 -17.613  -4.110  0.00  0.00    -0.055 A 
ATOM     36  C   UNL d   1      30.406 -17.691  -2.613  0.00  0.00     0.049 C 
ENDBRANCH  29  30
ENDBRANCH  28  29
ENDBRANCH  27  28
ENDBRANCH  10  27
TORSDOF 7
ENDMDL
