MODEL 1
REMARK VINA RESULT:    -8.221      0.000      0.000
REMARK INTER + INTRA:         -14.696
REMARK INTER:                 -11.502
REMARK INTRA:                  -3.193
REMARK CONF_INDEPENDENT:        3.281
REMARK UNBOUND:                -3.193
REMARK  11 active torsions:
REMARK  status: ('A' for Active; 'I' for Inactive)
REMARK    1  A    between atoms: C_2  and  C_3 
REMARK    2  A    between atoms: C_4  and  C_3 
REMARK    3  A    between atoms: C_4  and  N_13 
REMARK    4  A    between atoms: C_4  and  C_5 
REMARK       I    between atoms: C_5  and  N_7 
REMARK    5  A    between atoms: N_7  and  C_8 
REMARK    6  A    between atoms: C_8  and  C_9 
REMARK    7  A    between atoms: C_9  and  C_10 
REMARK       I    between atoms: N_13  and  C_14 
REMARK    8  A    between atoms: N_13  and  C_25 
REMARK    9  A    between atoms: C_14  and  C_16 
REMARK   10  A    between atoms: C_19  and  C_20 
REMARK       I    between atoms: C_20  and  N_21 
REMARK   11  A    between atoms: C_23  and  N_24 
ROOT
ATOM      1  N   UNL d   1      25.334 -15.431  -1.852  0.00  0.00    -0.299 N 
ATOM      2  C   UNL d   1      24.892 -14.629  -3.001  0.00  0.00     0.270 C 
ATOM      3  O   UNL d   1      23.674 -14.451  -3.197  0.00  0.00    -0.266 OA
ENDROOT
BRANCH   1   4
ATOM      4  C   UNL d   1      26.596 -15.088  -1.109  0.00  0.00     0.185 C 
BRANCH   4   5
ATOM      5  C   UNL d   1      27.932 -15.054  -1.859  0.00  0.00     0.241 C 
ATOM      6  O   UNL d   1      28.523 -13.988  -2.039  0.00  0.00    -0.271 OA
ATOM      7  N   UNL d   1      28.541 -16.256  -2.158  0.00  0.00    -0.359 N 
ATOM      8  H   UNL d   1      28.251 -17.137  -1.755  0.00  0.00     0.162 HD
BRANCH   7   9
ATOM      9  C   UNL d   1      29.586 -16.210  -3.141  0.00  0.00     0.123 C 
BRANCH   9  10
ATOM     10  C   UNL d   1      30.103 -17.526  -3.656  0.00  0.00     0.023 C 
BRANCH  10  11
ATOM     11  C   UNL d   1      30.588 -17.439  -5.120  0.00  0.00    -0.021 C 
ATOM     12  C   UNL d   1      30.406 -18.755  -5.879  0.00  0.00     0.009 C 
ATOM     13  C   UNL d   1      29.827 -16.320  -5.818  0.00  0.00     0.009 C 
ENDBRANCH  10  11
ENDBRANCH   9  10
ENDBRANCH   7   9
ENDBRANCH   4   5
BRANCH   4  14
ATOM     14  C   UNL d   1      26.700 -13.658  -0.545  0.00  0.00     0.035 C 
BRANCH  14  15
ATOM     15  C   UNL d   1      26.709 -13.561   0.987  0.00  0.00    -0.002 C 
ATOM     16  C   UNL d   1      27.760 -14.496   1.515  0.00  0.00     0.005 C 
ENDBRANCH  14  15
ENDBRANCH   4  14
ENDBRANCH   1   4
BRANCH   1  17
ATOM     17  C   UNL d   1      24.398 -16.409  -1.194  0.00  0.00     0.044 C 
ATOM     18  C   UNL d   1      23.026 -16.145  -0.967  0.00  0.00     0.031 C 
ATOM     19  C   UNL d   1      22.060 -17.120  -0.706  0.00  0.00     0.009 C 
ATOM     20  C   UNL d   1      22.465 -18.359  -0.282  0.00  0.00    -0.061 C 
ATOM     21  C   UNL d   1      21.437 -19.316   0.234  0.00  0.00     0.048 C 
ATOM     22  C   UNL d   1      23.844 -18.599  -0.227  0.00  0.00     0.015 C 
ATOM     23  C   UNL d   1      24.807 -17.657  -0.706  0.00  0.00    -0.035 C 
ATOM     24  C   UNL d   1      26.263 -17.956  -0.497  0.00  0.00     0.050 C 
ENDBRANCH   1  17
BRANCH   2  25
ATOM     25  C   UNL d   1      25.858 -14.006  -3.935  0.00  0.00     0.120 C 
ATOM     26  S   UNL d   1      27.006 -14.997  -4.774  0.00  0.00     0.020 SA
ATOM     27  N   UNL d   1      27.509 -13.851  -5.886  0.00  0.00    -0.203 NA
ATOM     28  C   UNL d   1      26.965 -12.671  -5.562  0.00  0.00     0.160 C 
ATOM     29  C   UNL d   1      26.028 -12.721  -4.429  0.00  0.00     0.085 C 
BRANCH  28  30
ATOM     30  C   UNL d   1      27.180 -11.454  -6.403  0.00  0.00     0.271 C 
ATOM     31  N   UNL d   1      28.234 -11.432  -7.285  0.00  0.00    -0.365 N 
ATOM     32  H   UNL d   1      28.847 -12.224  -7.418  0.00  0.00     0.159 HD
ATOM     33  H   UNL d   1      28.240 -10.678  -7.962  0.00  0.00     0.159 HD
ATOM     34  O   UNL d   1      26.379 -10.522  -6.450  0.00  0.00    -0.266 OA
ENDBRANCH  28  30
BRANCH  29  35
ATOM     35  N   UNL d   1      25.259 -11.667  -4.045  0.00  0.00    -0.396 N 
ATOM     36  H   UNL d   1      25.156 -10.907  -4.726  0.00  0.00     0.156 HD
ATOM     37  H   UNL d   1      24.405 -11.817  -3.517  0.00  0.00     0.156 HD
ENDBRANCH  29  35
ENDBRANCH   2  25
TORSDOF 11
ENDMDL
MODEL 2
REMARK VINA RESULT:    -7.527      2.114      3.363
REMARK INTER + INTRA:         -14.685
REMARK INTER:                 -10.809
REMARK INTRA:                  -3.876
REMARK CONF_INDEPENDENT:        3.281
REMARK UNBOUND:                -3.876
REMARK  11 active torsions:
REMARK  status: ('A' for Active; 'I' for Inactive)
REMARK    1  A    between atoms: C_2  and  C_3 
REMARK    2  A    between atoms: C_4  and  C_3 
REMARK    3  A    between atoms: C_4  and  N_13 
REMARK    4  A    between atoms: C_4  and  C_5 
REMARK       I    between atoms: C_5  and  N_7 
REMARK    5  A    between atoms: N_7  and  C_8 
REMARK    6  A    between atoms: C_8  and  C_9 
REMARK    7  A    between atoms: C_9  and  C_10 
REMARK       I    between atoms: N_13  and  C_14 
REMARK    8  A    between atoms: N_13  and  C_25 
REMARK    9  A    between atoms: C_14  and  C_16 
REMARK   10  A    between atoms: C_19  and  C_20 
REMARK       I    between atoms: C_20  and  N_21 
REMARK   11  A    between atoms: C_23  and  N_24 
ROOT
ATOM      1  N   UNL d   1      25.866 -15.598  -1.850  0.00  0.00    -0.299 N 
ATOM      2  C   UNL d   1      25.585 -14.984  -3.156  0.00  0.00     0.270 C 
ATOM      3  O   UNL d   1      24.405 -14.823  -3.520  0.00  0.00    -0.266 OA
ENDROOT
BRANCH   1   4
ATOM      4  C   UNL d   1      27.044 -15.156  -1.025  0.00  0.00     0.185 C 
BRANCH   4   5
ATOM      5  C   UNL d   1      27.463 -13.682  -1.031  0.00  0.00     0.241 C 
ATOM      6  O   UNL d   1      26.860 -12.855  -0.345  0.00  0.00    -0.271 OA
ATOM      7  N   UNL d   1      28.639 -13.343  -1.670  0.00  0.00    -0.359 N 
ATOM      8  H   UNL d   1      29.321 -14.027  -1.970  0.00  0.00     0.162 HD
BRANCH   7   9
ATOM      9  C   UNL d   1      28.826 -11.948  -1.955  0.00  0.00     0.123 C 
BRANCH   9  10
ATOM     10  C   UNL d   1      27.943 -11.340  -3.011  0.00  0.00     0.023 C 
BRANCH  10  11
ATOM     11  C   UNL d   1      26.690 -10.662  -2.415  0.00  0.00    -0.021 C 
ATOM     12  C   UNL d   1      27.037  -9.626  -1.343  0.00  0.00     0.009 C 
ATOM     13  C   UNL d   1      25.908 -10.006  -3.546  0.00  0.00     0.009 C 
ENDBRANCH  10  11
ENDBRANCH   9  10
ENDBRANCH   7   9
ENDBRANCH   4   5
BRANCH   4  14
ATOM     14  C   UNL d   1      26.898 -15.268   0.505  0.00  0.00     0.035 C 
BRANCH  14  15
ATOM     15  C   UNL d   1      28.181 -14.992   1.303  0.00  0.00    -0.002 C 
ATOM     16  C   UNL d   1      27.794 -14.440   2.646  0.00  0.00     0.005 C 
ENDBRANCH  14  15
ENDBRANCH   4  14
ENDBRANCH   1   4
BRANCH   1  17
ATOM     17  C   UNL d   1      24.829 -16.444  -1.162  0.00  0.00     0.044 C 
ATOM     18  C   UNL d   1      23.501 -16.014  -0.926  0.00  0.00     0.031 C 
ATOM     19  C   UNL d   1      22.429 -16.862  -0.635  0.00  0.00     0.009 C 
ATOM     20  C   UNL d   1      22.689 -18.133  -0.191  0.00  0.00    -0.061 C 
ATOM     21  C   UNL d   1      21.562 -18.951   0.356  0.00  0.00     0.048 C 
ATOM     22  C   UNL d   1      24.030 -18.534  -0.145  0.00  0.00     0.015 C 
ATOM     23  C   UNL d   1      25.093 -17.723  -0.654  0.00  0.00    -0.035 C 
ATOM     24  C   UNL d   1      26.506 -18.189  -0.455  0.00  0.00     0.050 C 
ENDBRANCH   1  17
BRANCH   2  25
ATOM     25  C   UNL d   1      26.673 -14.532  -4.053  0.00  0.00     0.120 C 
ATOM     26  S   UNL d   1      28.135 -15.456  -4.169  0.00  0.00     0.020 SA
ATOM     27  N   UNL d   1      28.756 -14.709  -5.532  0.00  0.00    -0.203 NA
ATOM     28  C   UNL d   1      27.983 -13.657  -5.835  0.00  0.00     0.160 C 
ATOM     29  C   UNL d   1      26.789 -13.513  -4.988  0.00  0.00     0.085 C 
BRANCH  28  30
ATOM     30  C   UNL d   1      28.247 -12.815  -7.041  0.00  0.00     0.271 C 
ATOM     31  N   UNL d   1      29.020 -13.329  -8.055  0.00  0.00    -0.365 N 
ATOM     32  H   UNL d   1      29.385 -14.270  -8.036  0.00  0.00     0.159 HD
ATOM     33  H   UNL d   1      29.024 -12.810  -8.926  0.00  0.00     0.159 HD
ATOM     34  O   UNL d   1      27.691 -11.736  -7.240  0.00  0.00    -0.266 OA
ENDBRANCH  28  30
BRANCH  29  35
ATOM     35  N   UNL d   1      25.803 -12.608  -5.230  0.00  0.00    -0.396 N 
ATOM     36  H   UNL d   1      25.857 -12.104  -6.122  0.00  0.00     0.156 HD
ATOM     37  H   UNL d   1      24.843 -12.808  -4.969  0.00  0.00     0.156 HD
ENDBRANCH  29  35
ENDBRANCH   2  25
TORSDOF 11
ENDMDL
MODEL 3
REMARK VINA RESULT:    -7.493      1.569      1.826
REMARK INTER + INTRA:         -14.595
REMARK INTER:                 -10.775
REMARK INTRA:                  -3.820
REMARK CONF_INDEPENDENT:        3.281
REMARK UNBOUND:                -3.820
REMARK  11 active torsions:
REMARK  status: ('A' for Active; 'I' for Inactive)
REMARK    1  A    between atoms: C_2  and  C_3 
REMARK    2  A    between atoms: C_4  and  C_3 
REMARK    3  A    between atoms: C_4  and  N_13 
REMARK    4  A    between atoms: C_4  and  C_5 
REMARK       I    between atoms: C_5  and  N_7 
REMARK    5  A    between atoms: N_7  and  C_8 
REMARK    6  A    between atoms: C_8  and  C_9 
REMARK    7  A    between atoms: C_9  and  C_10 
REMARK       I    between atoms: N_13  and  C_14 
REMARK    8  A    between atoms: N_13  and  C_25 
REMARK    9  A    between atoms: C_14  and  C_16 
REMARK   10  A    between atoms: C_19  and  C_20 
REMARK       I    between atoms: C_20  and  N_21 
REMARK   11  A    between atoms: C_23  and  N_24 
ROOT
ATOM      1  N   UNL d   1      25.124 -15.717  -1.677  0.00  0.00    -0.299 N 
ATOM      2  C   UNL d   1      24.683 -14.752  -2.693  0.00  0.00     0.270 C 
ATOM      3  O   UNL d   1      23.477 -14.450  -2.775  0.00  0.00    -0.266 OA
ENDROOT
BRANCH   1   4
ATOM      4  C   UNL d   1      26.458 -15.571  -0.997  0.00  0.00     0.185 C 
BRANCH   4   5
ATOM      5  C   UNL d   1      27.741 -15.906  -1.767  0.00  0.00     0.241 C 
ATOM      6  O   UNL d   1      28.110 -17.075  -1.892  0.00  0.00    -0.271 OA
ATOM      7  N   UNL d   1      28.361 -14.892  -2.469  0.00  0.00    -0.359 N 
ATOM      8  H   UNL d   1      27.924 -13.999  -2.651  0.00  0.00     0.162 HD
BRANCH   7   9
ATOM      9  C   UNL d   1      29.713 -15.143  -2.883  0.00  0.00     0.123 C 
BRANCH   9  10
ATOM     10  C   UNL d   1      29.931 -15.517  -4.324  0.00  0.00     0.023 C 
BRANCH  10  11
ATOM     11  C   UNL d   1      29.886 -17.044  -4.552  0.00  0.00    -0.021 C 
ATOM     12  C   UNL d   1      30.405 -17.448  -5.934  0.00  0.00     0.009 C 
ATOM     13  C   UNL d   1      30.708 -17.722  -3.463  0.00  0.00     0.009 C 
ENDBRANCH  10  11
ENDBRANCH   9  10
ENDBRANCH   7   9
ENDBRANCH   4   5
BRANCH   4  14
ATOM     14  C   UNL d   1      26.882 -14.143  -0.606  0.00  0.00     0.035 C 
BRANCH  14  15
ATOM     15  C   UNL d   1      27.365 -13.981   0.843  0.00  0.00    -0.002 C 
ATOM     16  C   UNL d   1      26.608 -12.845   1.471  0.00  0.00     0.005 C 
ENDBRANCH  14  15
ENDBRANCH   4  14
ENDBRANCH   1   4
BRANCH   1  17
ATOM     17  C   UNL d   1      24.147 -16.683  -1.062  0.00  0.00     0.044 C 
ATOM     18  C   UNL d   1      22.769 -16.401  -0.895  0.00  0.00     0.031 C 
ATOM     19  C   UNL d   1      21.780 -17.363  -0.679  0.00  0.00     0.009 C 
ATOM     20  C   UNL d   1      22.150 -18.608  -0.239  0.00  0.00    -0.061 C 
ATOM     21  C   UNL d   1      21.088 -19.552   0.230  0.00  0.00     0.048 C 
ATOM     22  C   UNL d   1      23.521 -18.867  -0.124  0.00  0.00     0.015 C 
ATOM     23  C   UNL d   1      24.518 -17.937  -0.559  0.00  0.00    -0.035 C 
ATOM     24  C   UNL d   1      25.959 -18.256  -0.287  0.00  0.00     0.050 C 
ENDBRANCH   1  17
BRANCH   2  25
ATOM     25  C   UNL d   1      25.640 -14.108  -3.622  0.00  0.00     0.120 C 
ATOM     26  S   UNL d   1      26.384 -12.604  -3.186  0.00  0.00     0.020 SA
ATOM     27  N   UNL d   1      27.566 -12.596  -4.372  0.00  0.00    -0.203 NA
ATOM     28  C   UNL d   1      27.337 -13.614  -5.214  0.00  0.00     0.160 C 
ATOM     29  C   UNL d   1      26.221 -14.489  -4.823  0.00  0.00     0.085 C 
BRANCH  28  30
ATOM     30  C   UNL d   1      28.258 -13.908  -6.353  0.00  0.00     0.271 C 
ATOM     31  N   UNL d   1      29.183 -12.961  -6.723  0.00  0.00    -0.365 N 
ATOM     32  H   UNL d   1      29.292 -12.087  -6.228  0.00  0.00     0.159 HD
ATOM     33  H   UNL d   1      29.904 -13.262  -7.368  0.00  0.00     0.159 HD
ATOM     34  O   UNL d   1      28.328 -15.012  -6.890  0.00  0.00    -0.266 OA
ENDBRANCH  28  30
BRANCH  29  35
ATOM     35  N   UNL d   1      25.928 -15.657  -5.455  0.00  0.00    -0.396 N 
ATOM     36  H   UNL d   1      26.573 -15.946  -6.199  0.00  0.00     0.156 HD
ATOM     37  H   UNL d   1      25.576 -16.452  -4.933  0.00  0.00     0.156 HD
ENDBRANCH  29  35
ENDBRANCH   2  25
TORSDOF 11
ENDMDL
MODEL 4
REMARK VINA RESULT:    -7.375      2.127      4.375
REMARK INTER + INTRA:         -13.829
REMARK INTER:                 -10.657
REMARK INTRA:                  -3.172
REMARK CONF_INDEPENDENT:        3.281
REMARK UNBOUND:                -3.172
REMARK  11 active torsions:
REMARK  status: ('A' for Active; 'I' for Inactive)
REMARK    1  A    between atoms: C_2  and  C_3 
REMARK    2  A    between atoms: C_4  and  C_3 
REMARK    3  A    between atoms: C_4  and  N_13 
REMARK    4  A    between atoms: C_4  and  C_5 
REMARK       I    between atoms: C_5  and  N_7 
REMARK    5  A    between atoms: N_7  and  C_8 
REMARK    6  A    between atoms: C_8  and  C_9 
REMARK    7  A    between atoms: C_9  and  C_10 
REMARK       I    between atoms: N_13  and  C_14 
REMARK    8  A    between atoms: N_13  and  C_25 
REMARK    9  A    between atoms: C_14  and  C_16 
REMARK   10  A    between atoms: C_19  and  C_20 
REMARK       I    between atoms: C_20  and  N_21 
REMARK   11  A    between atoms: C_23  and  N_24 
ROOT
ATOM      1  N   UNL d   1      26.486 -15.305  -2.325  0.00  0.00    -0.299 N 
ATOM      2  C   UNL d   1      26.281 -15.069  -3.760  0.00  0.00     0.270 C 
ATOM      3  O   UNL d   1      25.155 -15.253  -4.260  0.00  0.00    -0.266 OA
ENDROOT
BRANCH   1   4
ATOM      4  C   UNL d   1      27.430 -14.447  -1.526  0.00  0.00     0.185 C 
BRANCH   4   5
ATOM      5  C   UNL d   1      27.146 -14.186  -0.043  0.00  0.00     0.241 C 
ATOM      6  O   UNL d   1      26.187 -13.492   0.299  0.00  0.00    -0.271 OA
ATOM      7  N   UNL d   1      27.871 -14.897   0.893  0.00  0.00    -0.359 N 
ATOM      8  H   UNL d   1      28.439 -15.699   0.658  0.00  0.00     0.162 HD
BRANCH   7   9
ATOM      9  C   UNL d   1      27.833 -14.394   2.238  0.00  0.00     0.123 C 
BRANCH   9  10
ATOM     10  C   UNL d   1      29.129 -14.383   3.002  0.00  0.00     0.023 C 
BRANCH  10  11
ATOM     11  C   UNL d   1      28.932 -14.038   4.495  0.00  0.00    -0.021 C 
ATOM     12  C   UNL d   1      28.212 -12.703   4.698  0.00  0.00     0.009 C 
ATOM     13  C   UNL d   1      28.147 -15.164   5.155  0.00  0.00     0.009 C 
ENDBRANCH  10  11
ENDBRANCH   9  10
ENDBRANCH   7   9
ENDBRANCH   4   5
BRANCH   4  14
ATOM     14  C   UNL d   1      28.854 -14.997  -1.315  0.00  0.00     0.035 C 
BRANCH  14  15
ATOM     15  C   UNL d   1      29.979 -14.134  -1.905  0.00  0.00    -0.002 C 
ATOM     16  C   UNL d   1      29.404 -12.799  -2.284  0.00  0.00     0.005 C 
ENDBRANCH  14  15
ENDBRANCH   4  14
ENDBRANCH   1   4
BRANCH   1  17
ATOM     17  C   UNL d   1      25.543 -16.185  -1.550  0.00  0.00     0.044 C 
ATOM     18  C   UNL d   1      24.157 -15.924  -1.422  0.00  0.00     0.031 C 
ATOM     19  C   UNL d   1      23.201 -16.868  -1.041  0.00  0.00     0.009 C 
ATOM     20  C   UNL d   1      23.612 -18.010  -0.403  0.00  0.00    -0.061 C 
ATOM     21  C   UNL d   1      22.583 -18.896   0.225  0.00  0.00     0.048 C 
ATOM     22  C   UNL d   1      24.992 -18.201  -0.256  0.00  0.00     0.015 C 
ATOM     23  C   UNL d   1      25.956 -17.326  -0.847  0.00  0.00    -0.035 C 
ATOM     24  C   UNL d   1      27.408 -17.547  -0.537  0.00  0.00     0.050 C 
ENDBRANCH   1  17
BRANCH   2  25
ATOM     25  C   UNL d   1      27.378 -14.598  -4.637  0.00  0.00     0.120 C 
ATOM     26  S   UNL d   1      28.710 -15.650  -4.990  0.00  0.00     0.020 SA
ATOM     27  N   UNL d   1      29.362 -14.759  -6.248  0.00  0.00    -0.203 NA
ATOM     28  C   UNL d   1      28.712 -13.590  -6.328  0.00  0.00     0.160 C 
ATOM     29  C   UNL d   1      27.579 -13.456  -5.399  0.00  0.00     0.085 C 
BRANCH  28  30
ATOM     30  C   UNL d   1      29.027 -12.592  -7.395  0.00  0.00     0.271 C 
ATOM     31  N   UNL d   1      29.875 -12.953  -8.414  0.00  0.00    -0.365 N 
ATOM     32  H   UNL d   1      30.265 -13.881  -8.493  0.00  0.00     0.159 HD
ATOM     33  H   UNL d   1      29.920 -12.324  -9.208  0.00  0.00     0.159 HD
ATOM     34  O   UNL d   1      28.455 -11.506  -7.487  0.00  0.00    -0.266 OA
ENDBRANCH  28  30
BRANCH  29  35
ATOM     35  N   UNL d   1      26.703 -12.417  -5.429  0.00  0.00    -0.396 N 
ATOM     36  H   UNL d   1      26.819 -11.747  -6.198  0.00  0.00     0.156 HD
ATOM     37  H   UNL d   1      25.725 -12.559  -5.198  0.00  0.00     0.156 HD
ENDBRANCH  29  35
ENDBRANCH   2  25
TORSDOF 11
ENDMDL
MODEL 5
REMARK VINA RESULT:    -7.336      1.659      2.266
REMARK INTER + INTRA:         -13.840
REMARK INTER:                 -10.617
REMARK INTRA:                  -3.222
REMARK CONF_INDEPENDENT:        3.281
REMARK UNBOUND:                -3.222
REMARK  11 active torsions:
REMARK  status: ('A' for Active; 'I' for Inactive)
REMARK    1  A    between atoms: C_2  and  C_3 
REMARK    2  A    between atoms: C_4  and  C_3 
REMARK    3  A    between atoms: C_4  and  N_13 
REMARK    4  A    between atoms: C_4  and  C_5 
REMARK       I    between atoms: C_5  and  N_7 
REMARK    5  A    between atoms: N_7  and  C_8 
REMARK    6  A    between atoms: C_8  and  C_9 
REMARK    7  A    between atoms: C_9  and  C_10 
REMARK       I    between atoms: N_13  and  C_14 
REMARK    8  A    between atoms: N_13  and  C_25 
REMARK    9  A    between atoms: C_14  and  C_16 
REMARK   10  A    between atoms: C_19  and  C_20 
REMARK       I    between atoms: C_20  and  N_21 
REMARK   11  A    between atoms: C_23  and  N_24 
ROOT
ATOM      1  N   UNL d   1      25.974 -15.542  -2.156  0.00  0.00    -0.299 N 
ATOM      2  C   UNL d   1      25.603 -14.836  -3.390  0.00  0.00     0.270 C 
ATOM      3  O   UNL d   1      24.408 -14.560  -3.607  0.00  0.00    -0.266 OA
ENDROOT
BRANCH   1   4
ATOM      4  C   UNL d   1      27.271 -15.244  -1.454  0.00  0.00     0.185 C 
BRANCH   4   5
ATOM      5  C   UNL d   1      28.587 -15.772  -2.038  0.00  0.00     0.241 C 
ATOM      6  O   UNL d   1      28.767 -16.982  -2.183  0.00  0.00    -0.271 OA
ATOM      7  N   UNL d   1      29.477 -14.858  -2.566  0.00  0.00    -0.359 N 
ATOM      8  H   UNL d   1      29.234 -13.895  -2.753  0.00  0.00     0.162 HD
BRANCH   7   9
ATOM      9  C   UNL d   1      30.816 -15.331  -2.782  0.00  0.00     0.123 C 
BRANCH   9  10
ATOM     10  C   UNL d   1      31.761 -15.271  -1.613  0.00  0.00     0.023 C 
BRANCH  10  11
ATOM     11  C   UNL d   1      31.393 -16.282  -0.503  0.00  0.00    -0.021 C 
ATOM     12  C   UNL d   1      32.623 -16.953   0.111  0.00  0.00     0.009 C 
ATOM     13  C   UNL d   1      30.599 -15.552   0.573  0.00  0.00     0.009 C 
ENDBRANCH  10  11
ENDBRANCH   9  10
ENDBRANCH   7   9
ENDBRANCH   4   5
BRANCH   4  14
ATOM     14  C   UNL d   1      27.708 -13.767  -1.404  0.00  0.00     0.035 C 
BRANCH  14  15
ATOM     15  C   UNL d   1      27.268 -13.001  -0.148  0.00  0.00    -0.002 C 
ATOM     16  C   UNL d   1      26.745 -13.992   0.854  0.00  0.00     0.005 C 
ENDBRANCH  14  15
ENDBRANCH   4  14
ENDBRANCH   1   4
BRANCH   1  17
ATOM     17  C   UNL d   1      24.952 -16.339  -1.391  0.00  0.00     0.044 C 
ATOM     18  C   UNL d   1      23.595 -15.954  -1.266  0.00  0.00     0.031 C 
ATOM     19  C   UNL d   1      22.556 -16.810  -0.896  0.00  0.00     0.009 C 
ATOM     20  C   UNL d   1      22.859 -17.990  -0.266  0.00  0.00    -0.061 C 
ATOM     21  C   UNL d   1      21.751 -18.784   0.352  0.00  0.00     0.048 C 
ATOM     22  C   UNL d   1      24.215 -18.306  -0.116  0.00  0.00     0.015 C 
ATOM     23  C   UNL d   1      25.257 -17.518  -0.697  0.00  0.00    -0.035 C 
ATOM     24  C   UNL d   1      26.681 -17.872  -0.384  0.00  0.00     0.050 C 
ENDBRANCH   1  17
BRANCH   2  25
ATOM     25  C   UNL d   1      26.618 -14.424  -4.387  0.00  0.00     0.120 C 
ATOM     26  S   UNL d   1      27.781 -15.575  -4.959  0.00  0.00     0.020 SA
ATOM     27  N   UNL d   1      28.349 -14.683  -6.256  0.00  0.00    -0.203 NA
ATOM     28  C   UNL d   1      27.814 -13.456  -6.200  0.00  0.00     0.160 C 
ATOM     29  C   UNL d   1      26.831 -13.267  -5.122  0.00  0.00     0.085 C 
BRANCH  28  30
ATOM     30  C   UNL d   1      28.085 -12.436  -7.259  0.00  0.00     0.271 C 
ATOM     31  N   UNL d   1      28.830 -12.797  -8.356  0.00  0.00    -0.365 N 
ATOM     32  H   UNL d   1      29.171 -13.738  -8.495  0.00  0.00     0.159 HD
ATOM     33  H   UNL d   1      28.838 -12.144  -9.131  0.00  0.00     0.159 HD
ATOM     34  O   UNL d   1      27.556 -11.325  -7.271  0.00  0.00    -0.266 OA
ENDBRANCH  28  30
BRANCH  29  35
ATOM     35  N   UNL d   1      26.066 -12.150  -4.993  0.00  0.00    -0.396 N 
ATOM     36  H   UNL d   1      26.132 -11.463  -5.752  0.00  0.00     0.156 HD
ATOM     37  H   UNL d   1      25.124 -12.210  -4.620  0.00  0.00     0.156 HD
ENDBRANCH  29  35
ENDBRANCH   2  25
TORSDOF 11
ENDMDL
MODEL 6
REMARK VINA RESULT:    -7.198      2.463      5.060
REMARK INTER + INTRA:         -13.767
REMARK INTER:                 -10.479
REMARK INTRA:                  -3.288
REMARK CONF_INDEPENDENT:        3.281
REMARK UNBOUND:                -3.288
REMARK  11 active torsions:
REMARK  status: ('A' for Active; 'I' for Inactive)
REMARK    1  A    between atoms: C_2  and  C_3 
REMARK    2  A    between atoms: C_4  and  C_3 
REMARK    3  A    between atoms: C_4  and  N_13 
REMARK    4  A    between atoms: C_4  and  C_5 
REMARK       I    between atoms: C_5  and  N_7 
REMARK    5  A    between atoms: N_7  and  C_8 
REMARK    6  A    between atoms: C_8  and  C_9 
REMARK    7  A    between atoms: C_9  and  C_10 
REMARK       I    between atoms: N_13  and  C_14 
REMARK    8  A    between atoms: N_13  and  C_25 
REMARK    9  A    between atoms: C_14  and  C_16 
REMARK   10  A    between atoms: C_19  and  C_20 
REMARK       I    between atoms: C_20  and  N_21 
REMARK   11  A    between atoms: C_23  and  N_24 
ROOT
ATOM      1  N   UNL d   1      26.106 -16.005  -1.093  0.00  0.00    -0.299 N 
ATOM      2  C   UNL d   1      27.017 -15.548  -0.035  0.00  0.00     0.270 C 
ATOM      3  O   UNL d   1      27.026 -16.134   1.065  0.00  0.00    -0.266 OA
ENDROOT
BRANCH   1   4
ATOM      4  C   UNL d   1      26.512 -15.950  -2.541  0.00  0.00     0.185 C 
BRANCH   4   5
ATOM      5  C   UNL d   1      25.848 -14.933  -3.476  0.00  0.00     0.241 C 
ATOM      6  O   UNL d   1      25.530 -15.250  -4.623  0.00  0.00    -0.271 OA
ATOM      7  N   UNL d   1      25.448 -13.724  -2.942  0.00  0.00    -0.359 N 
ATOM      8  H   UNL d   1      25.403 -13.547  -1.948  0.00  0.00     0.162 HD
BRANCH   7   9
ATOM      9  C   UNL d   1      25.155 -12.681  -3.885  0.00  0.00     0.123 C 
BRANCH   9  10
ATOM     10  C   UNL d   1      26.064 -11.482  -3.886  0.00  0.00     0.023 C 
BRANCH  10  11
ATOM     11  C   UNL d   1      26.813 -11.309  -5.226  0.00  0.00    -0.021 C 
ATOM     12  C   UNL d   1      27.418 -12.620  -5.733  0.00  0.00     0.009 C 
ATOM     13  C   UNL d   1      25.842 -10.745  -6.256  0.00  0.00     0.009 C 
ENDBRANCH  10  11
ENDBRANCH   9  10
ENDBRANCH   7   9
ENDBRANCH   4   5
BRANCH   4  14
ATOM     14  C   UNL d   1      27.958 -15.510  -2.838  0.00  0.00     0.035 C 
BRANCH  14  15
ATOM     15  C   UNL d   1      29.013 -16.620  -2.725  0.00  0.00    -0.002 C 
ATOM     16  C   UNL d   1      29.941 -16.515  -3.902  0.00  0.00     0.005 C 
ENDBRANCH  14  15
ENDBRANCH   4  14
ENDBRANCH   1   4
BRANCH   1  17
ATOM     17  C   UNL d   1      24.888 -16.822  -0.757  0.00  0.00     0.044 C 
ATOM     18  C   UNL d   1      23.565 -16.324  -0.839  0.00  0.00     0.031 C 
ATOM     19  C   UNL d   1      22.417 -17.118  -0.895  0.00  0.00     0.009 C 
ATOM     20  C   UNL d   1      22.494 -18.426  -0.491  0.00  0.00    -0.061 C 
ATOM     21  C   UNL d   1      21.227 -19.201  -0.312  0.00  0.00     0.048 C 
ATOM     22  C   UNL d   1      23.757 -18.913  -0.132  0.00  0.00     0.015 C 
ATOM     23  C   UNL d   1      24.952 -18.143  -0.291  0.00  0.00    -0.035 C 
ATOM     24  C   UNL d   1      26.241 -18.707   0.230  0.00  0.00     0.050 C 
ENDBRANCH   1  17
BRANCH   2  25
ATOM     25  C   UNL d   1      27.945 -14.413  -0.242  0.00  0.00     0.120 C 
ATOM     26  S   UNL d   1      27.359 -12.937  -0.937  0.00  0.00     0.020 SA
ATOM     27  N   UNL d   1      28.686 -11.984  -0.570  0.00  0.00    -0.203 NA
ATOM     28  C   UNL d   1      29.654 -12.767  -0.076  0.00  0.00     0.160 C 
ATOM     29  C   UNL d   1      29.267 -14.175   0.104  0.00  0.00     0.085 C 
BRANCH  28  30
ATOM     30  C   UNL d   1      30.952 -12.199   0.400  0.00  0.00     0.271 C 
ATOM     31  N   UNL d   1      31.135 -10.838   0.366  0.00  0.00    -0.365 N 
ATOM     32  H   UNL d   1      30.411 -10.200   0.067  0.00  0.00     0.159 HD
ATOM     33  H   UNL d   1      31.943 -10.478   0.861  0.00  0.00     0.159 HD
ATOM     34  O   UNL d   1      31.815 -12.876   0.957  0.00  0.00    -0.266 OA
ENDBRANCH  28  30
BRANCH  29  35
ATOM     35  N   UNL d   1      30.050 -15.093   0.732  0.00  0.00    -0.396 N 
ATOM     36  H   UNL d   1      30.955 -14.757   1.079  0.00  0.00     0.156 HD
ATOM     37  H   UNL d   1      29.640 -15.781   1.354  0.00  0.00     0.156 HD
ENDBRANCH  29  35
ENDBRANCH   2  25
TORSDOF 11
ENDMDL
MODEL 7
REMARK VINA RESULT:    -7.152      2.245      4.259
REMARK INTER + INTRA:         -14.678
REMARK INTER:                 -10.433
REMARK INTRA:                  -4.244
REMARK CONF_INDEPENDENT:        3.281
REMARK UNBOUND:                -4.244
REMARK  11 active torsions:
REMARK  status: ('A' for Active; 'I' for Inactive)
REMARK    1  A    between atoms: C_2  and  C_3 
REMARK    2  A    between atoms: C_4  and  C_3 
REMARK    3  A    between atoms: C_4  and  N_13 
REMARK    4  A    between atoms: C_4  and  C_5 
REMARK       I    between atoms: C_5  and  N_7 
REMARK    5  A    between atoms: N_7  and  C_8 
REMARK    6  A    between atoms: C_8  and  C_9 
REMARK    7  A    between atoms: C_9  and  C_10 
REMARK       I    between atoms: N_13  and  C_14 
REMARK    8  A    between atoms: N_13  and  C_25 
REMARK    9  A    between atoms: C_14  and  C_16 
REMARK   10  A    between atoms: C_19  and  C_20 
REMARK       I    between atoms: C_20  and  N_21 
REMARK   11  A    between atoms: C_23  and  N_24 
ROOT
ATOM      1  N   UNL d   1      26.428 -14.855  -2.993  0.00  0.00    -0.299 N 
ATOM      2  C   UNL d   1      26.434 -15.114  -4.439  0.00  0.00     0.270 C 
ATOM      3  O   UNL d   1      25.531 -15.808  -4.945  0.00  0.00    -0.266 OA
ENDROOT
BRANCH   1   4
ATOM      4  C   UNL d   1      26.901 -13.538  -2.441  0.00  0.00     0.185 C 
BRANCH   4   5
ATOM      5  C   UNL d   1      26.196 -12.243  -2.861  0.00  0.00     0.241 C 
ATOM      6  O   UNL d   1      25.146 -12.282  -3.505  0.00  0.00    -0.271 OA
ATOM      7  N   UNL d   1      26.661 -11.051  -2.342  0.00  0.00    -0.359 N 
ATOM      8  H   UNL d   1      27.312 -11.002  -1.570  0.00  0.00     0.162 HD
BRANCH   7   9
ATOM      9  C   UNL d   1      26.219  -9.856  -3.005  0.00  0.00     0.123 C 
BRANCH   9  10
ATOM     10  C   UNL d   1      26.696  -9.639  -4.415  0.00  0.00     0.023 C 
BRANCH  10  11
ATOM     11  C   UNL d   1      25.530  -9.546  -5.425  0.00  0.00    -0.021 C 
ATOM     12  C   UNL d   1      24.532  -8.442  -5.069  0.00  0.00     0.009 C 
ATOM     13  C   UNL d   1      26.108  -9.305  -6.814  0.00  0.00     0.009 C 
ENDBRANCH  10  11
ENDBRANCH   9  10
ENDBRANCH   7   9
ENDBRANCH   4   5
BRANCH   4  14
ATOM     14  C   UNL d   1      26.730 -13.321  -0.926  0.00  0.00     0.035 C 
BRANCH  14  15
ATOM     15  C   UNL d   1      27.926 -13.756  -0.066  0.00  0.00    -0.002 C 
ATOM     16  C   UNL d   1      27.403 -14.338   1.216  0.00  0.00     0.005 C 
ENDBRANCH  14  15
ENDBRANCH   4  14
ENDBRANCH   1   4
BRANCH   1  17
ATOM     17  C   UNL d   1      25.667 -15.754  -2.056  0.00  0.00     0.044 C 
ATOM     18  C   UNL d   1      24.286 -15.609  -1.783  0.00  0.00     0.031 C 
ATOM     19  C   UNL d   1      23.475 -16.603  -1.231  0.00  0.00     0.009 C 
ATOM     20  C   UNL d   1      24.064 -17.651  -0.572  0.00  0.00    -0.061 C 
ATOM     21  C   UNL d   1      23.203 -18.575   0.230  0.00  0.00     0.048 C 
ATOM     22  C   UNL d   1      25.463 -17.706  -0.577  0.00  0.00     0.015 C 
ATOM     23  C   UNL d   1      26.266 -16.796  -1.335  0.00  0.00    -0.035 C 
ATOM     24  C   UNL d   1      27.757 -16.863  -1.184  0.00  0.00     0.050 C 
ENDBRANCH   1  17
BRANCH   2  25
ATOM     25  C   UNL d   1      27.482 -14.557  -5.326  0.00  0.00     0.120 C 
ATOM     26  S   UNL d   1      28.838 -15.537  -5.779  0.00  0.00     0.020 SA
ATOM     27  N   UNL d   1      29.412 -14.558  -7.009  0.00  0.00    -0.203 NA
ATOM     28  C   UNL d   1      28.717 -13.412  -7.005  0.00  0.00     0.160 C 
ATOM     29  C   UNL d   1      27.614 -13.371  -6.033  0.00  0.00     0.085 C 
BRANCH  28  30
ATOM     30  C   UNL d   1      28.957 -12.349  -8.028  0.00  0.00     0.271 C 
ATOM     31  N   UNL d   1      29.885 -12.575  -9.017  0.00  0.00    -0.365 N 
ATOM     32  H   UNL d   1      30.383 -13.449  -9.104  0.00  0.00     0.159 HD
ATOM     33  H   UNL d   1      29.889 -11.919  -9.790  0.00  0.00     0.159 HD
ATOM     34  O   UNL d   1      28.266 -11.335  -8.116  0.00  0.00    -0.266 OA
ENDBRANCH  28  30
BRANCH  29  35
ATOM     35  N   UNL d   1      26.699 -12.366  -5.979  0.00  0.00    -0.396 N 
ATOM     36  H   UNL d   1      26.572 -11.820  -6.839  0.00  0.00     0.156 HD
ATOM     37  H   UNL d   1      25.825 -12.489  -5.480  0.00  0.00     0.156 HD
ENDBRANCH  29  35
ENDBRANCH   2  25
TORSDOF 11
ENDMDL
MODEL 8
REMARK VINA RESULT:    -6.946      1.918      2.729
REMARK INTER + INTRA:         -14.835
REMARK INTER:                 -10.227
REMARK INTRA:                  -4.608
REMARK CONF_INDEPENDENT:        3.281
REMARK UNBOUND:                -4.608
REMARK  11 active torsions:
REMARK  status: ('A' for Active; 'I' for Inactive)
REMARK    1  A    between atoms: C_2  and  C_3 
REMARK    2  A    between atoms: C_4  and  C_3 
REMARK    3  A    between atoms: C_4  and  N_13 
REMARK    4  A    between atoms: C_4  and  C_5 
REMARK       I    between atoms: C_5  and  N_7 
REMARK    5  A    between atoms: N_7  and  C_8 
REMARK    6  A    between atoms: C_8  and  C_9 
REMARK    7  A    between atoms: C_9  and  C_10 
REMARK       I    between atoms: N_13  and  C_14 
REMARK    8  A    between atoms: N_13  and  C_25 
REMARK    9  A    between atoms: C_14  and  C_16 
REMARK   10  A    between atoms: C_19  and  C_20 
REMARK       I    between atoms: C_20  and  N_21 
REMARK   11  A    between atoms: C_23  and  N_24 
ROOT
ATOM      1  N   UNL d   1      25.632 -15.499  -1.588  0.00  0.00    -0.299 N 
ATOM      2  C   UNL d   1      26.067 -14.309  -0.844  0.00  0.00     0.270 C 
ATOM      3  O   UNL d   1      25.919 -14.267   0.393  0.00  0.00    -0.266 OA
ENDROOT
BRANCH   1   4
ATOM      4  C   UNL d   1      26.397 -15.982  -2.790  0.00  0.00     0.185 C 
BRANCH   4   5
ATOM      5  C   UNL d   1      26.313 -15.199  -4.106  0.00  0.00     0.241 C 
ATOM      6  O   UNL d   1      25.274 -15.198  -4.769  0.00  0.00    -0.271 OA
ATOM      7  N   UNL d   1      27.355 -14.352  -4.426  0.00  0.00    -0.359 N 
ATOM      8  H   UNL d   1      28.072 -14.085  -3.766  0.00  0.00     0.162 HD
BRANCH   7   9
ATOM      9  C   UNL d   1      27.414 -13.909  -5.791  0.00  0.00     0.123 C 
BRANCH   9  10
ATOM     10  C   UNL d   1      28.523 -14.463  -6.644  0.00  0.00     0.023 C 
BRANCH  10  11
ATOM     11  C   UNL d   1      29.520 -15.320  -5.834  0.00  0.00    -0.021 C 
ATOM     12  C   UNL d   1      30.397 -16.201  -6.726  0.00  0.00     0.009 C 
ATOM     13  C   UNL d   1      30.389 -14.391  -4.995  0.00  0.00     0.009 C 
ENDBRANCH  10  11
ENDBRANCH   9  10
ENDBRANCH   7   9
ENDBRANCH   4   5
BRANCH   4  14
ATOM     14  C   UNL d   1      27.934 -15.951  -2.692  0.00  0.00     0.035 C 
BRANCH  14  15
ATOM     15  C   UNL d   1      28.539 -16.899  -1.646  0.00  0.00    -0.002 C 
ATOM     16  C   UNL d   1      29.211 -16.072  -0.588  0.00  0.00     0.005 C 
ENDBRANCH  14  15
ENDBRANCH   4  14
ENDBRANCH   1   4
BRANCH   1  17
ATOM     17  C   UNL d   1      24.617 -16.443  -1.000  0.00  0.00     0.044 C 
ATOM     18  C   UNL d   1      23.219 -16.240  -1.089  0.00  0.00     0.031 C 
ATOM     19  C   UNL d   1      22.257 -17.234  -0.895  0.00  0.00     0.009 C 
ATOM     20  C   UNL d   1      22.611 -18.381  -0.232  0.00  0.00    -0.061 C 
ATOM     21  C   UNL d   1      21.536 -19.328   0.197  0.00  0.00     0.048 C 
ATOM     22  C   UNL d   1      23.957 -18.523   0.129  0.00  0.00     0.015 C 
ATOM     23  C   UNL d   1      24.964 -17.590  -0.274  0.00  0.00    -0.035 C 
ATOM     24  C   UNL d   1      26.356 -17.766   0.259  0.00  0.00     0.050 C 
ENDBRANCH   1  17
BRANCH   2  25
ATOM     25  C   UNL d   1      26.697 -13.153  -1.522  0.00  0.00     0.120 C 
ATOM     26  S   UNL d   1      28.295 -12.657  -1.074  0.00  0.00     0.020 SA
ATOM     27  N   UNL d   1      28.577 -11.636  -2.370  0.00  0.00    -0.203 NA
ATOM     28  C   UNL d   1      27.443 -11.511  -3.072  0.00  0.00     0.160 C 
ATOM     29  C   UNL d   1      26.335 -12.353  -2.597  0.00  0.00     0.085 C 
BRANCH  28  30
ATOM     30  C   UNL d   1      27.387 -10.704  -4.329  0.00  0.00     0.271 C 
ATOM     31  N   UNL d   1      28.540 -10.122  -4.799  0.00  0.00    -0.365 N 
ATOM     32  H   UNL d   1      29.435 -10.251  -4.348  0.00  0.00     0.159 HD
ATOM     33  H   UNL d   1      28.504  -9.743  -5.738  0.00  0.00     0.159 HD
ATOM     34  O   UNL d   1      26.389 -10.649  -5.046  0.00  0.00    -0.266 OA
ENDBRANCH  28  30
BRANCH  29  35
ATOM     35  N   UNL d   1      25.156 -12.488  -3.262  0.00  0.00    -0.396 N 
ATOM     36  H   UNL d   1      24.890 -11.710  -3.877  0.00  0.00     0.156 HD
ATOM     37  H   UNL d   1      24.881 -13.384  -3.649  0.00  0.00     0.156 HD
ENDBRANCH  29  35
ENDBRANCH   2  25
TORSDOF 11
ENDMDL
MODEL 9
REMARK VINA RESULT:    -6.641      3.376      6.041
REMARK INTER + INTRA:         -13.803
REMARK INTER:                  -9.922
REMARK INTRA:                  -3.881
REMARK CONF_INDEPENDENT:        3.281
REMARK UNBOUND:                -3.881
REMARK  11 active torsions:
REMARK  status: ('A' for Active; 'I' for Inactive)
REMARK    1  A    between atoms: C_2  and  C_3 
REMARK    2  A    between atoms: C_4  and  C_3 
REMARK    3  A    between atoms: C_4  and  N_13 
REMARK    4  A    between atoms: C_4  and  C_5 
REMARK       I    between atoms: C_5  and  N_7 
REMARK    5  A    between atoms: N_7  and  C_8 
REMARK    6  A    between atoms: C_8  and  C_9 
REMARK    7  A    between atoms: C_9  and  C_10 
REMARK       I    between atoms: N_13  and  C_14 
REMARK    8  A    between atoms: N_13  and  C_25 
REMARK    9  A    between atoms: C_14  and  C_16 
REMARK   10  A    between atoms: C_19  and  C_20 
REMARK       I    between atoms: C_20  and  N_21 
REMARK   11  A    between atoms: C_23  and  N_24 
ROOT
ATOM      1  N   UNL d   1      26.937 -15.651  -0.637  0.00  0.00    -0.299 N 
ATOM      2  C   UNL d   1      28.068 -16.140  -1.438  0.00  0.00     0.270 C 
ATOM      3  O   UNL d   1      27.878 -17.021  -2.299  0.00  0.00    -0.266 OA
ENDROOT
BRANCH   1   4
ATOM      4  C   UNL d   1      26.857 -14.210  -0.211  0.00  0.00     0.185 C 
BRANCH   4   5
ATOM      5  C   UNL d   1      27.882 -13.657   0.787  0.00  0.00     0.241 C 
ATOM      6  O   UNL d   1      27.969 -12.445   0.989  0.00  0.00    -0.271 OA
ATOM      7  N   UNL d   1      28.564 -14.556   1.583  0.00  0.00    -0.359 N 
ATOM      8  H   UNL d   1      28.297 -15.527   1.672  0.00  0.00     0.162 HD
BRANCH   7   9
ATOM      9  C   UNL d   1      29.736 -14.054   2.243  0.00  0.00     0.123 C 
BRANCH   9  10
ATOM     10  C   UNL d   1      29.821 -14.250   3.732  0.00  0.00     0.023 C 
BRANCH  10  11
ATOM     11  C   UNL d   1      28.435 -14.466   4.380  0.00  0.00    -0.021 C 
ATOM     12  C   UNL d   1      28.533 -14.919   5.838  0.00  0.00     0.009 C 
ATOM     13  C   UNL d   1      27.647 -13.165   4.285  0.00  0.00     0.009 C 
ENDBRANCH  10  11
ENDBRANCH   9  10
ENDBRANCH   7   9
ENDBRANCH   4   5
BRANCH   4  14
ATOM     14  C   UNL d   1      27.116 -13.151  -1.299  0.00  0.00     0.035 C 
BRANCH  14  15
ATOM     15  C   UNL d   1      25.978 -12.969  -2.314  0.00  0.00    -0.002 C 
ATOM     16  C   UNL d   1      26.036 -14.101  -3.300  0.00  0.00     0.005 C 
ENDBRANCH  14  15
ENDBRANCH   4  14
ENDBRANCH   1   4
BRANCH   1  17
ATOM     17  C   UNL d   1      25.688 -16.477  -0.489  0.00  0.00     0.044 C 
ATOM     18  C   UNL d   1      24.389 -15.985  -0.762  0.00  0.00     0.031 C 
ATOM     19  C   UNL d   1      23.267 -16.784  -0.991  0.00  0.00     0.009 C 
ATOM     20  C   UNL d   1      23.291 -18.095  -0.588  0.00  0.00    -0.061 C 
ATOM     21  C   UNL d   1      22.017 -18.878  -0.603  0.00  0.00     0.048 C 
ATOM     22  C   UNL d   1      24.491 -18.578  -0.051  0.00  0.00     0.015 C 
ATOM     23  C   UNL d   1      25.691 -17.800  -0.028  0.00  0.00    -0.035 C 
ATOM     24  C   UNL d   1      26.893 -18.362   0.673  0.00  0.00     0.050 C 
ENDBRANCH   1  17
BRANCH   2  25
ATOM     25  C   UNL d   1      29.437 -15.603  -1.263  0.00  0.00     0.120 C 
ATOM     26  S   UNL d   1      29.961 -14.254  -2.217  0.00  0.00     0.020 SA
ATOM     27  N   UNL d   1      31.343 -13.895  -1.343  0.00  0.00    -0.203 NA
ATOM     28  C   UNL d   1      31.536 -14.857  -0.431  0.00  0.00     0.160 C 
ATOM     29  C   UNL d   1      30.469 -15.868  -0.375  0.00  0.00     0.085 C 
BRANCH  28  30
ATOM     30  C   UNL d   1      32.664 -14.790   0.548  0.00  0.00     0.271 C 
ATOM     31  N   UNL d   1      33.539 -13.732   0.485  0.00  0.00    -0.365 N 
ATOM     32  H   UNL d   1      33.427 -12.974  -0.173  0.00  0.00     0.159 HD
ATOM     33  H   UNL d   1      34.172 -13.623   1.268  0.00  0.00     0.159 HD
ATOM     34  O   UNL d   1      32.770 -15.561   1.501  0.00  0.00    -0.266 OA
ENDBRANCH  28  30
BRANCH  29  35
ATOM     35  N   UNL d   1      30.400 -16.833   0.581  0.00  0.00    -0.396 N 
ATOM     36  H   UNL d   1      30.388 -17.803   0.248  0.00  0.00     0.156 HD
ATOM     37  H   UNL d   1      30.919 -16.740   1.448  0.00  0.00     0.156 HD
ENDBRANCH  29  35
ENDBRANCH   2  25
TORSDOF 11
ENDMDL
