MODEL 1
REMARK VINA RESULT:    -6.971      0.000      0.000
REMARK INTER + INTRA:          -8.587
REMARK INTER:                  -7.866
REMARK INTRA:                  -0.721
REMARK CONF_INDEPENDENT:        0.895
REMARK UNBOUND:                -0.721
REMARK  3 active torsions:
REMARK  status: ('A' for Active; 'I' for Inactive)
REMARK    1  A    between atoms: C_4  and  N_5 
REMARK    2  A    between atoms: C_8  and  N_9 
REMARK       I    between atoms: N_9  and  C_10 
REMARK    3  A    between atoms: C_10  and  C_12 
ROOT
ATOM      1  N   UNL d   1      27.719 -14.603  -4.628  0.00  0.00    -0.366 N 
ATOM      2  C   UNL d   1      26.315 -14.306  -4.910  0.00  0.00     0.126 C 
ATOM      3  C   UNL d   1      25.774 -13.469  -3.759  0.00  0.00     0.045 C 
ATOM      4  C   UNL d   1      25.891 -14.224  -2.424  0.00  0.00     0.087 C 
ATOM      5  C   UNL d   1      27.351 -14.694  -2.219  0.00  0.00     0.045 C 
ATOM      6  C   UNL d   1      27.910 -15.450  -3.447  0.00  0.00     0.126 C 
ENDROOT
BRANCH   4   7
ATOM      7  N   UNL d   1      24.947 -15.343  -2.353  0.00  0.00    -0.356 N 
ATOM      8  C   UNL d   1      24.907 -16.218  -1.286  0.00  0.00     0.222 C 
ATOM      9  O   UNL d   1      25.699 -16.152  -0.343  0.00  0.00    -0.273 OA
ATOM     10  H   UNL d   1      24.393 -15.543  -3.172  0.00  0.00     0.162 HD
BRANCH   8  11
ATOM     11  C   UNL d   1      23.845 -17.317  -1.324  0.00  0.00     0.078 C 
ATOM     12  C   UNL d   1      24.224 -18.569  -0.523  0.00  0.00     0.014 C 
ATOM     13  C   UNL d   1      23.119 -19.616  -0.522  0.00  0.00     0.001 C 
ATOM     14  C   UNL d   1      21.799 -19.021  -0.044  0.00  0.00     0.000 C 
ATOM     15  C   UNL d   1      21.403 -17.821  -0.895  0.00  0.00     0.001 C 
ATOM     16  C   UNL d   1      22.491 -16.750  -0.890  0.00  0.00     0.014 C 
ENDBRANCH   8  11
ENDBRANCH   4   7
BRANCH   1  17
ATOM     17  C   UNL d   1      28.586 -14.470  -5.685  0.00  0.00     0.129 A 
ATOM     18  C   UNL d   1      28.520 -13.420  -6.586  0.00  0.00     0.075 A 
ATOM     19  C   UNL d   1      29.500 -13.306  -7.580  0.00  0.00     0.010 A 
ATOM     20  C   UNL d   1      29.511 -12.187  -8.572  0.00  0.00     0.068 C 
ATOM     21  N   UNL d   1      30.475 -14.229  -7.648  0.00  0.00    -0.348 N 
ATOM     22  C   UNL d   1      30.509 -15.234  -6.763  0.00  0.00     0.102 A 
ATOM     23  H   UNL d   1      31.197 -14.175  -8.366  0.00  0.00     0.167 HD
ATOM     24  N   UNL d   1      29.595 -15.366  -5.769  0.00  0.00    -0.218 NA
ATOM     25  C   UNL d   1      31.610 -16.246  -6.888  0.00  0.00     0.091 C 
ENDBRANCH   1  17
TORSDOF 3
ENDMDL
MODEL 2
REMARK VINA RESULT:    -6.927      3.780      8.247
REMARK INTER + INTRA:          -8.570
REMARK INTER:                  -7.822
REMARK INTRA:                  -0.747
REMARK CONF_INDEPENDENT:        0.895
REMARK UNBOUND:                -0.747
REMARK  3 active torsions:
REMARK  status: ('A' for Active; 'I' for Inactive)
REMARK    1  A    between atoms: C_4  and  N_5 
REMARK    2  A    between atoms: C_8  and  N_9 
REMARK       I    between atoms: N_9  and  C_10 
REMARK    3  A    between atoms: C_10  and  C_12 
ROOT
ATOM      1  N   UNL d   1      25.580 -14.675  -2.232  0.00  0.00    -0.366 N 
ATOM      2  C   UNL d   1      24.780 -14.450  -3.435  0.00  0.00     0.126 C 
ATOM      3  C   UNL d   1      25.732 -14.107  -4.572  0.00  0.00     0.045 C 
ATOM      4  C   UNL d   1      26.550 -12.846  -4.245  0.00  0.00     0.087 C 
ATOM      5  C   UNL d   1      27.253 -13.022  -2.878  0.00  0.00     0.045 C 
ATOM      6  C   UNL d   1      26.280 -13.475  -1.764  0.00  0.00     0.126 C 
ENDROOT
BRANCH   4   7
ATOM      7  N   UNL d   1      25.718 -11.639  -4.276  0.00  0.00    -0.356 N 
ATOM      8  C   UNL d   1      26.241 -10.370  -4.140  0.00  0.00     0.222 C 
ATOM      9  O   UNL d   1      27.439 -10.164  -3.932  0.00  0.00    -0.273 OA
ATOM     10  H   UNL d   1      24.716 -11.760  -4.274  0.00  0.00     0.162 HD
BRANCH   8  11
ATOM     11  C   UNL d   1      25.263  -9.199  -4.230  0.00  0.00     0.078 C 
ATOM     12  C   UNL d   1      25.844  -7.871  -3.728  0.00  0.00     0.014 C 
ATOM     13  C   UNL d   1      24.871  -6.711  -3.895  0.00  0.00     0.001 C 
ATOM     14  C   UNL d   1      24.385  -6.603  -5.336  0.00  0.00     0.000 C 
ATOM     15  C   UNL d   1      23.749  -7.910  -5.795  0.00  0.00     0.001 C 
ATOM     16  C   UNL d   1      24.718  -9.082  -5.655  0.00  0.00     0.014 C 
ENDBRANCH   8  11
ENDBRANCH   4   7
BRANCH   1  17
ATOM     17  C   UNL d   1      25.229 -15.762  -1.470  0.00  0.00     0.129 A 
ATOM     18  C   UNL d   1      23.935 -16.251  -1.405  0.00  0.00     0.075 A 
ATOM     19  C   UNL d   1      23.678 -17.422  -0.680  0.00  0.00     0.010 A 
ATOM     20  C   UNL d   1      22.312 -18.024  -0.585  0.00  0.00     0.068 C 
ATOM     21  N   UNL d   1      24.692 -18.037  -0.048  0.00  0.00    -0.348 N 
ATOM     22  C   UNL d   1      25.934 -17.538  -0.129  0.00  0.00     0.102 A 
ATOM     23  H   UNL d   1      24.533 -18.886   0.493  0.00  0.00     0.167 HD
ATOM     24  N   UNL d   1      26.229 -16.422  -0.841  0.00  0.00    -0.218 NA
ATOM     25  C   UNL d   1      27.030 -18.254   0.604  0.00  0.00     0.091 C 
ENDBRANCH   1  17
TORSDOF 3
ENDMDL
MODEL 3
REMARK VINA RESULT:    -6.901      5.177      7.960
REMARK INTER + INTRA:          -8.604
REMARK INTER:                  -7.796
REMARK INTRA:                  -0.808
REMARK CONF_INDEPENDENT:        0.895
REMARK UNBOUND:                -0.808
REMARK  3 active torsions:
REMARK  status: ('A' for Active; 'I' for Inactive)
REMARK    1  A    between atoms: C_4  and  N_5 
REMARK    2  A    between atoms: C_8  and  N_9 
REMARK       I    between atoms: N_9  and  C_10 
REMARK    3  A    between atoms: C_10  and  C_12 
ROOT
ATOM      1  N   UNL d   1      27.374 -13.652   2.270  0.00  0.00    -0.366 N 
ATOM      2  C   UNL d   1      27.780 -15.050   2.131  0.00  0.00     0.126 C 
ATOM      3  C   UNL d   1      28.372 -15.228   0.740  0.00  0.00     0.045 C 
ATOM      4  C   UNL d   1      27.345 -14.871  -0.348  0.00  0.00     0.087 C 
ATOM      5  C   UNL d   1      26.785 -13.453  -0.087  0.00  0.00     0.045 C 
ATOM      6  C   UNL d   1      26.288 -13.268   1.366  0.00  0.00     0.126 C 
ENDROOT
BRANCH   4   7
ATOM      7  N   UNL d   1      26.275 -15.870  -0.428  0.00  0.00    -0.356 N 
ATOM      8  C   UNL d   1      25.269 -15.811  -1.371  0.00  0.00     0.222 C 
ATOM      9  O   UNL d   1      25.170 -14.884  -2.179  0.00  0.00    -0.273 OA
ATOM     10  H   UNL d   1      26.213 -16.553   0.312  0.00  0.00     0.162 HD
BRANCH   8  11
ATOM     11  C   UNL d   1      24.240 -16.940  -1.365  0.00  0.00     0.078 C 
ATOM     12  C   UNL d   1      24.680 -18.172  -0.565  0.00  0.00     0.014 C 
ATOM     13  C   UNL d   1      23.607 -19.252  -0.520  0.00  0.00     0.001 C 
ATOM     14  C   UNL d   1      22.285 -18.691  -0.007  0.00  0.00     0.000 C 
ATOM     15  C   UNL d   1      21.827 -17.511  -0.856  0.00  0.00     0.001 C 
ATOM     16  C   UNL d   1      22.884 -16.409  -0.895  0.00  0.00     0.014 C 
ENDBRANCH   8  11
ENDBRANCH   4   7
BRANCH   1  17
ATOM     17  C   UNL d   1      27.696 -13.048   3.461  0.00  0.00     0.129 A 
ATOM     18  C   UNL d   1      28.075 -13.758   4.588  0.00  0.00     0.075 A 
ATOM     19  C   UNL d   1      28.479 -13.062   5.735  0.00  0.00     0.010 A 
ATOM     20  C   UNL d   1      28.926 -13.759   6.981  0.00  0.00     0.068 C 
ATOM     21  N   UNL d   1      28.473 -11.718   5.722  0.00  0.00    -0.348 N 
ATOM     22  C   UNL d   1      28.098 -11.061   4.616  0.00  0.00     0.102 A 
ATOM     23  H   UNL d   1      28.754 -11.187   6.545  0.00  0.00     0.167 HD
ATOM     24  N   UNL d   1      27.726 -11.696   3.477  0.00  0.00    -0.218 NA
ATOM     25  C   UNL d   1      28.097  -9.560   4.655  0.00  0.00     0.091 C 
ENDBRANCH   1  17
TORSDOF 3
ENDMDL
MODEL 4
REMARK VINA RESULT:    -6.887      3.778      8.377
REMARK INTER + INTRA:          -8.525
REMARK INTER:                  -7.781
REMARK INTRA:                  -0.744
REMARK CONF_INDEPENDENT:        0.895
REMARK UNBOUND:                -0.744
REMARK  3 active torsions:
REMARK  status: ('A' for Active; 'I' for Inactive)
REMARK    1  A    between atoms: C_4  and  N_5 
REMARK    2  A    between atoms: C_8  and  N_9 
REMARK       I    between atoms: N_9  and  C_10 
REMARK    3  A    between atoms: C_10  and  C_12 
ROOT
ATOM      1  N   UNL d   1      25.611 -14.682  -2.313  0.00  0.00    -0.366 N 
ATOM      2  C   UNL d   1      24.803 -14.450  -3.509  0.00  0.00     0.126 C 
ATOM      3  C   UNL d   1      25.745 -14.074  -4.645  0.00  0.00     0.045 C 
ATOM      4  C   UNL d   1      26.545 -12.806  -4.301  0.00  0.00     0.087 C 
ATOM      5  C   UNL d   1      27.256 -12.994  -2.940  0.00  0.00     0.045 C 
ATOM      6  C   UNL d   1      26.295 -13.480  -1.830  0.00  0.00     0.126 C 
ENDROOT
BRANCH   4   7
ATOM      7  N   UNL d   1      25.695 -11.612  -4.308  0.00  0.00    -0.356 N 
ATOM      8  C   UNL d   1      26.203 -10.335  -4.193  0.00  0.00     0.222 C 
ATOM      9  O   UNL d   1      27.405 -10.111  -4.024  0.00  0.00    -0.273 OA
ATOM     10  H   UNL d   1      24.696 -11.747  -4.275  0.00  0.00     0.162 HD
BRANCH   8  11
ATOM     11  C   UNL d   1      25.206  -9.178  -4.255  0.00  0.00     0.078 C 
ATOM     12  C   UNL d   1      25.778  -7.844  -3.762  0.00  0.00     0.014 C 
ATOM     13  C   UNL d   1      24.785  -6.698  -3.900  0.00  0.00     0.001 C 
ATOM     14  C   UNL d   1      24.264  -6.592  -5.330  0.00  0.00     0.000 C 
ATOM     15  C   UNL d   1      23.637  -7.906  -5.779  0.00  0.00     0.001 C 
ATOM     16  C   UNL d   1      24.627  -9.064  -5.667  0.00  0.00     0.014 C 
ENDBRANCH   8  11
ENDBRANCH   4   7
BRANCH   1  17
ATOM     17  C   UNL d   1      25.280 -15.787  -1.568  0.00  0.00     0.129 A 
ATOM     18  C   UNL d   1      26.185 -16.444  -0.751  0.00  0.00     0.075 A 
ATOM     19  C   UNL d   1      25.743 -17.505   0.049  0.00  0.00     0.010 A 
ATOM     20  C   UNL d   1      26.655 -18.247   0.974  0.00  0.00     0.068 C 
ATOM     21  N   UNL d   1      24.452 -17.874  -0.006  0.00  0.00    -0.348 N 
ATOM     22  C   UNL d   1      23.601 -17.219  -0.808  0.00  0.00     0.102 A 
ATOM     23  H   UNL d   1      24.105 -18.648   0.560  0.00  0.00     0.167 HD
ATOM     24  N   UNL d   1      23.983 -16.170  -1.579  0.00  0.00    -0.218 NA
ATOM     25  C   UNL d   1      22.172 -17.676  -0.843  0.00  0.00     0.091 C 
ENDBRANCH   1  17
TORSDOF 3
ENDMDL
MODEL 5
REMARK VINA RESULT:    -6.734      5.090      7.706
REMARK INTER + INTRA:          -8.437
REMARK INTER:                  -7.629
REMARK INTRA:                  -0.809
REMARK CONF_INDEPENDENT:        0.895
REMARK UNBOUND:                -0.809
REMARK  3 active torsions:
REMARK  status: ('A' for Active; 'I' for Inactive)
REMARK    1  A    between atoms: C_4  and  N_5 
REMARK    2  A    between atoms: C_8  and  N_9 
REMARK       I    between atoms: N_9  and  C_10 
REMARK    3  A    between atoms: C_10  and  C_12 
ROOT
ATOM      1  N   UNL d   1      27.447 -13.701   2.123  0.00  0.00    -0.366 N 
ATOM      2  C   UNL d   1      27.879 -15.080   1.901  0.00  0.00     0.126 C 
ATOM      3  C   UNL d   1      28.362 -15.193   0.462  0.00  0.00     0.045 C 
ATOM      4  C   UNL d   1      27.242 -14.831  -0.527  0.00  0.00     0.087 C 
ATOM      5  C   UNL d   1      26.665 -13.440  -0.172  0.00  0.00     0.045 C 
ATOM      6  C   UNL d   1      26.281 -13.319   1.321  0.00  0.00     0.126 C 
ENDROOT
BRANCH   4   7
ATOM      7  N   UNL d   1      26.197 -15.859  -0.559  0.00  0.00    -0.356 N 
ATOM      8  C   UNL d   1      25.155 -15.835  -1.463  0.00  0.00     0.222 C 
ATOM      9  O   UNL d   1      25.001 -14.918  -2.275  0.00  0.00    -0.273 OA
ATOM     10  H   UNL d   1      26.181 -16.536   0.189  0.00  0.00     0.162 HD
BRANCH   8  11
ATOM     11  C   UNL d   1      24.157 -16.991  -1.410  0.00  0.00     0.078 C 
ATOM     12  C   UNL d   1      24.659 -18.202  -0.614  0.00  0.00     0.014 C 
ATOM     13  C   UNL d   1      23.617 -19.309  -0.520  0.00  0.00     0.001 C 
ATOM     14  C   UNL d   1      22.300 -18.778   0.036  0.00  0.00     0.000 C 
ATOM     15  C   UNL d   1      21.781 -17.620  -0.808  0.00  0.00     0.001 C 
ATOM     16  C   UNL d   1      22.805 -16.490  -0.896  0.00  0.00     0.014 C 
ENDBRANCH   8  11
ENDBRANCH   4   7
BRANCH   1  17
ATOM     17  C   UNL d   1      27.846 -13.128   3.305  0.00  0.00     0.129 A 
ATOM     18  C   UNL d   1      27.835 -11.760   3.522  0.00  0.00     0.075 A 
ATOM     19  C   UNL d   1      28.167 -11.263   4.789  0.00  0.00     0.010 A 
ATOM     20  C   UNL d   1      28.153  -9.801   5.105  0.00  0.00     0.068 C 
ATOM     21  N   UNL d   1      28.506 -12.124   5.763  0.00  0.00    -0.348 N 
ATOM     22  C   UNL d   1      28.509 -13.442   5.521  0.00  0.00     0.102 A 
ATOM     23  H   UNL d   1      28.759 -11.789   6.692  0.00  0.00     0.167 HD
ATOM     24  N   UNL d   1      28.168 -13.966   4.317  0.00  0.00    -0.218 NA
ATOM     25  C   UNL d   1      28.906 -14.363   6.638  0.00  0.00     0.091 C 
ENDBRANCH   1  17
TORSDOF 3
ENDMDL
MODEL 6
REMARK VINA RESULT:    -6.729      2.436      3.701
REMARK INTER + INTRA:          -8.371
REMARK INTER:                  -7.624
REMARK INTRA:                  -0.747
REMARK CONF_INDEPENDENT:        0.895
REMARK UNBOUND:                -0.747
REMARK  3 active torsions:
REMARK  status: ('A' for Active; 'I' for Inactive)
REMARK    1  A    between atoms: C_4  and  N_5 
REMARK    2  A    between atoms: C_8  and  N_9 
REMARK       I    between atoms: N_9  and  C_10 
REMARK    3  A    between atoms: C_10  and  C_12 
ROOT
ATOM      1  N   UNL d   1      26.595 -12.973  -4.487  0.00  0.00    -0.366 N 
ATOM      2  C   UNL d   1      25.863 -13.000  -3.221  0.00  0.00     0.126 C 
ATOM      3  C   UNL d   1      26.787 -13.577  -2.158  0.00  0.00     0.045 C 
ATOM      4  C   UNL d   1      27.237 -15.000  -2.532  0.00  0.00     0.087 C 
ATOM      5  C   UNL d   1      27.849 -14.995  -3.952  0.00  0.00     0.045 C 
ATOM      6  C   UNL d   1      26.934 -14.307  -4.992  0.00  0.00     0.126 C 
ENDROOT
BRANCH   4   7
ATOM      7  N   UNL d   1      26.136 -15.961  -2.420  0.00  0.00    -0.356 N 
ATOM      8  C   UNL d   1      25.382 -16.101  -1.272  0.00  0.00     0.222 C 
ATOM      9  O   UNL d   1      25.616 -15.464  -0.242  0.00  0.00    -0.273 OA
ATOM     10  H   UNL d   1      26.011 -16.623  -3.172  0.00  0.00     0.162 HD
BRANCH   8  11
ATOM     11  C   UNL d   1      24.239 -17.115  -1.307  0.00  0.00     0.078 C 
ATOM     12  C   UNL d   1      24.513 -18.382  -0.488  0.00  0.00     0.014 C 
ATOM     13  C   UNL d   1      23.330 -19.341  -0.485  0.00  0.00     0.001 C 
ATOM     14  C   UNL d   1      22.056 -18.640  -0.026  0.00  0.00     0.000 C 
ATOM     15  C   UNL d   1      21.761 -17.423  -0.895  0.00  0.00     0.001 C 
ATOM     16  C   UNL d   1      22.930 -16.439  -0.892  0.00  0.00     0.014 C 
ENDBRANCH   8  11
ENDBRANCH   4   7
BRANCH   1  17
ATOM     17  C   UNL d   1      26.466 -11.828  -5.233  0.00  0.00     0.129 A 
ATOM     18  C   UNL d   1      26.952 -11.710  -6.524  0.00  0.00     0.075 A 
ATOM     19  C   UNL d   1      26.696 -10.541  -7.251  0.00  0.00     0.010 A 
ATOM     20  C   UNL d   1      27.165 -10.351  -8.658  0.00  0.00     0.068 C 
ATOM     21  N   UNL d   1      25.997  -9.549  -6.672  0.00  0.00    -0.348 N 
ATOM     22  C   UNL d   1      25.542  -9.692  -5.420  0.00  0.00     0.102 A 
ATOM     23  H   UNL d   1      25.803  -8.684  -7.175  0.00  0.00     0.167 HD
ATOM     24  N   UNL d   1      25.746 -10.819  -4.691  0.00  0.00    -0.218 NA
ATOM     25  C   UNL d   1      24.778  -8.553  -4.813  0.00  0.00     0.091 C 
ENDBRANCH   1  17
TORSDOF 3
ENDMDL
MODEL 7
REMARK VINA RESULT:    -6.708      1.791      2.468
REMARK INTER + INTRA:          -8.401
REMARK INTER:                  -7.603
REMARK INTRA:                  -0.798
REMARK CONF_INDEPENDENT:        0.895
REMARK UNBOUND:                -0.798
REMARK  3 active torsions:
REMARK  status: ('A' for Active; 'I' for Inactive)
REMARK    1  A    between atoms: C_4  and  N_5 
REMARK    2  A    between atoms: C_8  and  N_9 
REMARK       I    between atoms: N_9  and  C_10 
REMARK    3  A    between atoms: C_10  and  C_12 
ROOT
ATOM      1  N   UNL d   1      29.061 -15.252  -4.863  0.00  0.00    -0.366 N 
ATOM      2  C   UNL d   1      27.640 -15.575  -4.989  0.00  0.00     0.126 C 
ATOM      3  C   UNL d   1      26.846 -14.307  -4.709  0.00  0.00     0.045 C 
ATOM      4  C   UNL d   1      27.137 -13.774  -3.296  0.00  0.00     0.087 C 
ATOM      5  C   UNL d   1      28.663 -13.606  -3.108  0.00  0.00     0.045 C 
ATOM      6  C   UNL d   1      29.454 -14.875  -3.502  0.00  0.00     0.126 C 
ENDROOT
BRANCH   4   7
ATOM      7  N   UNL d   1      26.556 -14.637  -2.263  0.00  0.00    -0.356 N 
ATOM      8  C   UNL d   1      25.235 -15.035  -2.281  0.00  0.00     0.222 C 
ATOM      9  O   UNL d   1      24.437 -14.650  -3.139  0.00  0.00    -0.273 OA
ATOM     10  H   UNL d   1      27.119 -14.843  -1.451  0.00  0.00     0.162 HD
BRANCH   8  11
ATOM     11  C   UNL d   1      24.772 -15.968  -1.162  0.00  0.00     0.078 C 
ATOM     12  C   UNL d   1      23.297 -16.375  -1.270  0.00  0.00     0.014 C 
ATOM     13  C   UNL d   1      22.884 -17.358  -0.183  0.00  0.00     0.001 C 
ATOM     14  C   UNL d   1      23.803 -18.575  -0.164  0.00  0.00     0.000 C 
ATOM     15  C   UNL d   1      25.257 -18.156   0.013  0.00  0.00     0.001 C 
ATOM     16  C   UNL d   1      25.696 -17.186  -1.082  0.00  0.00     0.014 C 
ENDBRANCH   8  11
ENDBRANCH   4   7
BRANCH   1  17
ATOM     17  C   UNL d   1      29.883 -15.762  -5.837  0.00  0.00     0.129 A 
ATOM     18  C   UNL d   1      30.637 -14.965  -6.681  0.00  0.00     0.075 A 
ATOM     19  C   UNL d   1      31.523 -15.565  -7.585  0.00  0.00     0.010 A 
ATOM     20  C   UNL d   1      32.388 -14.770  -8.510  0.00  0.00     0.068 C 
ATOM     21  N   UNL d   1      31.610 -16.906  -7.625  0.00  0.00    -0.348 N 
ATOM     22  C   UNL d   1      30.864 -17.650  -6.796  0.00  0.00     0.102 A 
ATOM     23  H   UNL d   1      32.239 -17.370  -8.277  0.00  0.00     0.167 HD
ATOM     24  N   UNL d   1      30.015 -17.108  -5.888  0.00  0.00    -0.218 NA
ATOM     25  C   UNL d   1      30.987 -19.143  -6.887  0.00  0.00     0.091 C 
ENDBRANCH   1  17
TORSDOF 3
ENDMDL
MODEL 8
REMARK VINA RESULT:    -6.642      4.894      6.280
REMARK INTER + INTRA:          -8.288
REMARK INTER:                  -7.537
REMARK INTRA:                  -0.751
REMARK CONF_INDEPENDENT:        0.895
REMARK UNBOUND:                -0.751
REMARK  3 active torsions:
REMARK  status: ('A' for Active; 'I' for Inactive)
REMARK    1  A    between atoms: C_4  and  N_5 
REMARK    2  A    between atoms: C_8  and  N_9 
REMARK       I    between atoms: N_9  and  C_10 
REMARK    3  A    between atoms: C_10  and  C_12 
ROOT
ATOM      1  N   UNL d   1      26.740 -15.933   0.229  0.00  0.00    -0.366 N 
ATOM      2  C   UNL d   1      26.354 -17.291   0.612  0.00  0.00     0.126 C 
ATOM      3  C   UNL d   1      26.112 -18.085  -0.664  0.00  0.00     0.045 C 
ATOM      4  C   UNL d   1      24.998 -17.444  -1.510  0.00  0.00     0.087 C 
ATOM      5  C   UNL d   1      25.328 -15.953  -1.759  0.00  0.00     0.045 C 
ATOM      6  C   UNL d   1      25.675 -15.196  -0.456  0.00  0.00     0.126 C 
ENDROOT
BRANCH   4   7
ATOM      7  N   UNL d   1      23.682 -17.611  -0.887  0.00  0.00    -0.356 N 
ATOM      8  C   UNL d   1      22.734 -18.489  -1.371  0.00  0.00     0.222 C 
ATOM      9  O   UNL d   1      22.908 -19.157  -2.393  0.00  0.00    -0.273 OA
ATOM     10  H   UNL d   1      23.426 -16.970  -0.151  0.00  0.00     0.162 HD
BRANCH   8  11
ATOM     11  C   UNL d   1      21.419 -18.591  -0.599  0.00  0.00     0.078 C 
ATOM     12  C   UNL d   1      20.402 -19.545  -1.239  0.00  0.00     0.014 C 
ATOM     13  C   UNL d   1      19.130 -19.678  -0.412  0.00  0.00     0.001 C 
ATOM     14  C   UNL d   1      19.449 -20.078   1.026  0.00  0.00     0.000 C 
ATOM     15  C   UNL d   1      20.406 -19.081   1.668  0.00  0.00     0.001 C 
ATOM     16  C   UNL d   1      21.697 -18.950   0.862  0.00  0.00     0.014 C 
ENDBRANCH   8  11
ENDBRANCH   4   7
BRANCH   1  17
ATOM     17  C   UNL d   1      27.792 -15.389   0.923  0.00  0.00     0.129 A 
ATOM     18  C   UNL d   1      29.051 -15.217   0.372  0.00  0.00     0.075 A 
ATOM     19  C   UNL d   1      30.044 -14.567   1.116  0.00  0.00     0.010 A 
ATOM     20  C   UNL d   1      31.419 -14.323   0.579  0.00  0.00     0.068 C 
ATOM     21  N   UNL d   1      29.758 -14.137   2.357  0.00  0.00    -0.348 N 
ATOM     22  C   UNL d   1      28.530 -14.320   2.863  0.00  0.00     0.102 A 
ATOM     23  H   UNL d   1      30.463 -13.668   2.923  0.00  0.00     0.167 HD
ATOM     24  N   UNL d   1      27.534 -14.921   2.166  0.00  0.00    -0.218 NA
ATOM     25  C   UNL d   1      28.263 -13.833   4.257  0.00  0.00     0.091 C 
ENDBRANCH   1  17
TORSDOF 3
ENDMDL
MODEL 9
REMARK VINA RESULT:    -6.579      1.779      2.913
REMARK INTER + INTRA:          -8.289
REMARK INTER:                  -7.474
REMARK INTRA:                  -0.814
REMARK CONF_INDEPENDENT:        0.895
REMARK UNBOUND:                -0.814
REMARK  3 active torsions:
REMARK  status: ('A' for Active; 'I' for Inactive)
REMARK    1  A    between atoms: C_4  and  N_5 
REMARK    2  A    between atoms: C_8  and  N_9 
REMARK       I    between atoms: N_9  and  C_10 
REMARK    3  A    between atoms: C_10  and  C_12 
ROOT
ATOM      1  N   UNL d   1      29.259 -15.175  -4.889  0.00  0.00    -0.366 N 
ATOM      2  C   UNL d   1      27.859 -15.575  -5.020  0.00  0.00     0.126 C 
ATOM      3  C   UNL d   1      26.997 -14.341  -4.788  0.00  0.00     0.045 C 
ATOM      4  C   UNL d   1      27.243 -13.751  -3.389  0.00  0.00     0.087 C 
ATOM      5  C   UNL d   1      28.757 -13.499  -3.191  0.00  0.00     0.045 C 
ATOM      6  C   UNL d   1      29.616 -14.737  -3.537  0.00  0.00     0.126 C 
ENDROOT
BRANCH   4   7
ATOM      7  N   UNL d   1      26.695 -14.611  -2.336  0.00  0.00    -0.356 N 
ATOM      8  C   UNL d   1      25.384 -15.041  -2.333  0.00  0.00     0.222 C 
ATOM      9  O   UNL d   1      24.567 -14.690  -3.188  0.00  0.00    -0.273 OA
ATOM     10  H   UNL d   1      27.271 -14.789  -1.527  0.00  0.00     0.162 HD
BRANCH   8  11
ATOM     11  C   UNL d   1      24.956 -15.966  -1.194  0.00  0.00     0.078 C 
ATOM     12  C   UNL d   1      23.486 -16.398  -1.270  0.00  0.00     0.014 C 
ATOM     13  C   UNL d   1      23.108 -17.373  -0.163  0.00  0.00     0.001 C 
ATOM     14  C   UNL d   1      24.047 -18.575  -0.145  0.00  0.00     0.000 C 
ATOM     15  C   UNL d   1      25.497 -18.131   0.001  0.00  0.00     0.001 C 
ATOM     16  C   UNL d   1      25.900 -17.168  -1.114  0.00  0.00     0.014 C 
ENDBRANCH   8  11
ENDBRANCH   4   7
BRANCH   1  17
ATOM     17  C   UNL d   1      30.118 -15.672  -5.838  0.00  0.00     0.129 A 
ATOM     18  C   UNL d   1      30.276 -17.028  -6.076  0.00  0.00     0.075 A 
ATOM     19  C   UNL d   1      31.101 -17.449  -7.127  0.00  0.00     0.010 A 
ATOM     20  C   UNL d   1      31.300 -18.893  -7.461  0.00  0.00     0.068 C 
ATOM     21  N   UNL d   1      31.737 -16.528  -7.871  0.00  0.00    -0.348 N 
ATOM     22  C   UNL d   1      31.565 -15.224  -7.613  0.00  0.00     0.102 A 
ATOM     23  H   UNL d   1      32.349 -16.806  -8.636  0.00  0.00     0.167 HD
ATOM     24  N   UNL d   1      30.755 -14.774  -6.623  0.00  0.00    -0.218 NA
ATOM     25  C   UNL d   1      32.306 -14.234  -8.464  0.00  0.00     0.091 C 
ENDBRANCH   1  17
TORSDOF 3
ENDMDL
