MODEL 1
REMARK VINA RESULT:   -10.519      0.000      0.000
REMARK INTER + INTRA:         -14.035
REMARK INTER:                 -12.905
REMARK INTRA:                  -1.130
REMARK CONF_INDEPENDENT:        2.386
REMARK UNBOUND:                -1.130
REMARK  8 active torsions:
REMARK  status: ('A' for Active; 'I' for Inactive)
REMARK    1  A    between atoms: O_2  and  C_3 
REMARK    2  A    between atoms: C_6  and  C_7 
REMARK    3  A    between atoms: C_7  and  N_8 
REMARK    4  A    between atoms: N_8  and  C_9 
REMARK    5  A    between atoms: C_9  and  N_11 
REMARK    6  A    between atoms: N_11  and  N_12 
REMARK       I    between atoms: N_12  and  C_13 
REMARK    7  A    between atoms: C_13  and  C_15 
REMARK    8  A    between atoms: C_19  and  N_20 
ROOT
ATOM      1  N   UNL d   1      28.532 -15.677   1.008  0.00  0.00    -0.264 N 
ATOM      2  C   UNL d   1      27.425 -14.833   0.936  0.00  0.00     0.270 C 
ATOM      3  O   UNL d   1      26.515 -14.992   0.126  0.00  0.00    -0.266 OA
ATOM      4  H   UNL d   1      29.266 -15.575   1.706  0.00  0.00     0.190 HD
ENDROOT
BRANCH   2   5
ATOM      5  C   UNL d   1      27.380 -13.660   1.895  0.00  0.00     0.035 A 
ATOM      6  C   UNL d   1      27.114 -12.370   1.460  0.00  0.00     0.017 A 
ATOM      7  C   UNL d   1      27.252 -11.295   2.362  0.00  0.00     0.003 A 
ATOM      8  C   UNL d   1      27.586 -11.495   3.735  0.00  0.00     0.030 A 
ATOM      9  C   UNL d   1      27.846 -12.784   4.219  0.00  0.00     0.046 A 
ATOM     10  C   UNL d   1      27.738 -13.827   3.241  0.00  0.00     0.047 A 
BRANCH   9  11
ATOM     11  N   UNL d   1      28.253 -13.133   5.579  0.00  0.00    -0.244 N 
ATOM     12  C   UNL d   1      28.365 -12.139   6.514  0.00  0.00     0.266 C 
ATOM     13  O   UNL d   1      28.471 -10.940   6.444  0.00  0.00    -0.267 OA
ATOM     14  C   UNL d   1      28.522 -12.724   7.810  0.00  0.00     0.048 C 
ATOM     15  C   UNL d   1      28.408 -11.974   8.971  0.00  0.00     0.018 C 
ATOM     16  C   UNL d   1      29.005 -13.993   7.678  0.00  0.00     0.048 C 
ATOM     17  C   UNL d   1      29.018 -12.439  10.108  0.00  0.00     0.001 C 
ATOM     18  C   UNL d   1      29.709 -13.652  10.028  0.00  0.00     0.001 C 
ATOM     19  C   UNL d   1      29.705 -14.447   8.818  0.00  0.00     0.018 C 
ATOM     20  C   UNL d   1      28.532 -14.347   6.229  0.00  0.00     0.266 C 
ATOM     21  O   UNL d   1      28.296 -15.475   5.825  0.00  0.00    -0.267 OA
ENDBRANCH   9  11
ENDBRANCH   2   5
BRANCH   1  22
ATOM     22  N   UNL d   1      28.667 -16.818   0.142  0.00  0.00    -0.274 N 
ATOM     23  H   UNL d   1      29.151 -17.617   0.546  0.00  0.00     0.189 HD
BRANCH  22  24
ATOM     24  C   UNL d   1      28.141 -16.783  -1.154  0.00  0.00     0.186 C 
ATOM     25  S   UNL d   1      28.992 -16.144  -2.455  0.00  0.00    -0.040 SA
BRANCH  24  26
ATOM     26  N   UNL d   1      26.872 -17.330  -1.269  0.00  0.00    -0.362 N 
ATOM     27  H   UNL d   1      26.519 -17.469  -2.201  0.00  0.00     0.162 HD
BRANCH  26  28
ATOM     28  C   UNL d   1      26.029 -17.788  -0.138  0.00  0.00     0.160 C 
BRANCH  28  29
ATOM     29  C   UNL d   1      24.522 -17.750  -0.337  0.00  0.00    -0.040 A 
ATOM     30  C   UNL d   1      23.782 -18.950  -0.288  0.00  0.00     0.011 A 
ATOM     31  C   UNL d   1      22.412 -18.969  -0.604  0.00  0.00     0.037 A 
ATOM     32  C   UNL d   1      21.741 -17.784  -0.897  0.00  0.00     0.068 A 
ATOM     33  C   UNL d   1      22.449 -16.589  -0.893  0.00  0.00     0.037 A 
ATOM     34  C   UNL d   1      23.819 -16.575  -0.616  0.00  0.00     0.011 A 
BRANCH  32  35
ATOM     35  O   UNL d   1      20.385 -17.875  -1.060  0.00  0.00    -0.356 OA
ATOM     36  C   UNL d   1      19.815 -19.154  -0.795  0.00  0.00     0.210 C 
ENDBRANCH  32  35
ENDBRANCH  28  29
ENDBRANCH  26  28
ENDBRANCH  24  26
ENDBRANCH  22  24
ENDBRANCH   1  22
TORSDOF 8
ENDMDL
MODEL 2
REMARK VINA RESULT:    -9.831      8.297     11.031
REMARK INTER + INTRA:         -13.301
REMARK INTER:                 -12.218
REMARK INTRA:                  -1.084
REMARK CONF_INDEPENDENT:        2.386
REMARK UNBOUND:                -1.084
REMARK  8 active torsions:
REMARK  status: ('A' for Active; 'I' for Inactive)
REMARK    1  A    between atoms: O_2  and  C_3 
REMARK    2  A    between atoms: C_6  and  C_7 
REMARK    3  A    between atoms: C_7  and  N_8 
REMARK    4  A    between atoms: N_8  and  C_9 
REMARK    5  A    between atoms: C_9  and  N_11 
REMARK    6  A    between atoms: N_11  and  N_12 
REMARK       I    between atoms: N_12  and  C_13 
REMARK    7  A    between atoms: C_13  and  C_15 
REMARK    8  A    between atoms: C_19  and  N_20 
ROOT
ATOM      1  N   UNL d   1      25.109  -9.904  -4.683  0.00  0.00    -0.264 N 
ATOM      2  C   UNL d   1      26.208 -10.343  -3.946  0.00  0.00     0.270 C 
ATOM      3  O   UNL d   1      26.741  -9.663  -3.072  0.00  0.00    -0.266 OA
ATOM      4  H   UNL d   1      24.637 -10.481  -5.376  0.00  0.00     0.190 HD
ENDROOT
BRANCH   2   5
ATOM      5  C   UNL d   1      26.765 -11.714  -4.274  0.00  0.00     0.035 A 
ATOM      6  C   UNL d   1      27.444 -11.963  -5.456  0.00  0.00     0.017 A 
ATOM      7  C   UNL d   1      27.790 -13.289  -5.788  0.00  0.00     0.003 A 
ATOM      8  C   UNL d   1      27.530 -14.383  -4.909  0.00  0.00     0.030 A 
ATOM      9  C   UNL d   1      26.860 -14.172  -3.697  0.00  0.00     0.046 A 
ATOM     10  C   UNL d   1      26.492 -12.810  -3.442  0.00  0.00     0.047 A 
BRANCH   9  11
ATOM     11  N   UNL d   1      26.477 -15.199  -2.729  0.00  0.00    -0.244 N 
ATOM     12  C   UNL d   1      25.148 -15.443  -2.511  0.00  0.00     0.266 C 
ATOM     13  O   UNL d   1      24.141 -14.816  -2.731  0.00  0.00    -0.267 OA
ATOM     14  C   UNL d   1      25.006 -16.635  -1.734  0.00  0.00     0.048 C 
ATOM     15  C   UNL d   1      23.779 -17.262  -1.572  0.00  0.00     0.018 C 
ATOM     16  C   UNL d   1      26.161 -16.868  -1.048  0.00  0.00     0.048 C 
ATOM     17  C   UNL d   1      23.604 -18.074  -0.480  0.00  0.00     0.001 C 
ATOM     18  C   UNL d   1      24.681 -18.230   0.397  0.00  0.00     0.001 C 
ATOM     19  C   UNL d   1      25.974 -17.638   0.121  0.00  0.00     0.018 C 
ATOM     20  C   UNL d   1      27.200 -16.110  -1.940  0.00  0.00     0.266 C 
ATOM     21  O   UNL d   1      28.384 -16.394  -2.033  0.00  0.00    -0.267 OA
ENDBRANCH   9  11
ENDBRANCH   2   5
BRANCH   1  22
ATOM     22  N   UNL d   1      24.507  -8.619  -4.446  0.00  0.00    -0.274 N 
ATOM     23  H   UNL d   1      23.999  -8.531  -3.568  0.00  0.00     0.189 HD
BRANCH  22  24
ATOM     24  C   UNL d   1      24.649  -7.593  -5.386  0.00  0.00     0.186 C 
ATOM     25  S   UNL d   1      25.999  -6.595  -5.434  0.00  0.00    -0.040 SA
BRANCH  24  26
ATOM     26  N   UNL d   1      23.589  -7.483  -6.274  0.00  0.00    -0.362 N 
ATOM     27  H   UNL d   1      23.117  -8.335  -6.528  0.00  0.00     0.162 HD
BRANCH  26  28
ATOM     28  C   UNL d   1      23.054  -6.212  -6.818  0.00  0.00     0.160 C 
BRANCH  28  29
ATOM     29  C   UNL d   1      21.649  -6.243  -7.400  0.00  0.00    -0.040 A 
ATOM     30  C   UNL d   1      20.551  -5.881  -6.593  0.00  0.00     0.011 A 
ATOM     31  C   UNL d   1      19.232  -6.032  -7.055  0.00  0.00     0.037 A 
ATOM     32  C   UNL d   1      18.987  -6.471  -8.354  0.00  0.00     0.068 A 
ATOM     33  C   UNL d   1      20.063  -6.778  -9.177  0.00  0.00     0.037 A 
ATOM     34  C   UNL d   1      21.374  -6.664  -8.704  0.00  0.00     0.011 A 
BRANCH  32  35
ATOM     35  O   UNL d   1      17.682  -6.460  -8.765  0.00  0.00    -0.356 OA
ATOM     36  C   UNL d   1      17.260  -5.287  -9.454  0.00  0.00     0.210 C 
ENDBRANCH  32  35
ENDBRANCH  28  29
ENDBRANCH  26  28
ENDBRANCH  24  26
ENDBRANCH  22  24
ENDBRANCH   1  22
TORSDOF 8
ENDMDL
MODEL 3
REMARK VINA RESULT:    -9.053      7.165      9.601
REMARK INTER + INTRA:         -12.771
REMARK INTER:                 -11.440
REMARK INTRA:                  -1.331
REMARK CONF_INDEPENDENT:        2.386
REMARK UNBOUND:                -1.331
REMARK  8 active torsions:
REMARK  status: ('A' for Active; 'I' for Inactive)
REMARK    1  A    between atoms: O_2  and  C_3 
REMARK    2  A    between atoms: C_6  and  C_7 
REMARK    3  A    between atoms: C_7  and  N_8 
REMARK    4  A    between atoms: N_8  and  C_9 
REMARK    5  A    between atoms: C_9  and  N_11 
REMARK    6  A    between atoms: N_11  and  N_12 
REMARK       I    between atoms: N_12  and  C_13 
REMARK    7  A    between atoms: C_13  and  C_15 
REMARK    8  A    between atoms: C_19  and  N_20 
ROOT
ATOM      1  N   UNL d   1      25.927 -15.664  -2.632  0.00  0.00    -0.264 N 
ATOM      2  C   UNL d   1      25.732 -14.858  -3.751  0.00  0.00     0.270 C 
ATOM      3  O   UNL d   1      24.631 -14.420  -4.076  0.00  0.00    -0.266 OA
ATOM      4  H   UNL d   1      26.844 -15.993  -2.334  0.00  0.00     0.190 HD
ENDROOT
BRANCH   2   5
ATOM      5  C   UNL d   1      26.945 -14.543  -4.603  0.00  0.00     0.035 A 
ATOM      6  C   UNL d   1      27.052 -13.357  -5.313  0.00  0.00     0.017 A 
ATOM      7  C   UNL d   1      28.118 -13.189  -6.221  0.00  0.00     0.003 A 
ATOM      8  C   UNL d   1      29.139 -14.172  -6.382  0.00  0.00     0.030 A 
ATOM      9  C   UNL d   1      29.078 -15.378  -5.672  0.00  0.00     0.046 A 
ATOM     10  C   UNL d   1      27.944 -15.508  -4.804  0.00  0.00     0.047 A 
BRANCH   9  11
ATOM     11  N   UNL d   1      30.016 -16.495  -5.779  0.00  0.00    -0.244 N 
ATOM     12  C   UNL d   1      30.036 -17.442  -4.790  0.00  0.00     0.266 C 
ATOM     13  O   UNL d   1      29.637 -17.463  -3.652  0.00  0.00    -0.267 OA
ATOM     14  C   UNL d   1      30.829 -18.554  -5.215  0.00  0.00     0.048 C 
ATOM     15  C   UNL d   1      30.825 -19.760  -4.531  0.00  0.00     0.018 C 
ATOM     16  C   UNL d   1      31.694 -18.147  -6.188  0.00  0.00     0.048 C 
ATOM     17  C   UNL d   1      31.909 -20.590  -4.671  0.00  0.00     0.001 C 
ATOM     18  C   UNL d   1      32.947 -20.171  -5.508  0.00  0.00     0.001 C 
ATOM     19  C   UNL d   1      32.850 -18.951  -6.283  0.00  0.00     0.018 C 
ATOM     20  C   UNL d   1      30.943 -16.896  -6.755  0.00  0.00     0.266 C 
ATOM     21  O   UNL d   1      31.045 -16.475  -7.897  0.00  0.00    -0.267 OA
ENDBRANCH   9  11
ENDBRANCH   2   5
BRANCH   1  22
ATOM     22  N   UNL d   1      24.839 -16.019  -1.759  0.00  0.00    -0.274 N 
ATOM     23  H   UNL d   1      24.078 -15.345  -1.715  0.00  0.00     0.189 HD
BRANCH  22  24
ATOM     24  C   UNL d   1      24.871 -17.225  -1.050  0.00  0.00     0.186 C 
ATOM     25  S   UNL d   1      26.273 -17.815  -0.337  0.00  0.00    -0.040 SA
BRANCH  24  26
ATOM     26  N   UNL d   1      23.649 -17.877  -0.980  0.00  0.00    -0.362 N 
ATOM     27  H   UNL d   1      23.349 -18.371  -1.803  0.00  0.00     0.162 HD
BRANCH  26  28
ATOM     28  C   UNL d   1      22.790 -17.962   0.226  0.00  0.00     0.160 C 
BRANCH  28  29
ATOM     29  C   UNL d   1      21.481 -18.724   0.092  0.00  0.00    -0.040 A 
ATOM     30  C   UNL d   1      20.904 -19.326   1.231  0.00  0.00     0.011 A 
ATOM     31  C   UNL d   1      19.773 -20.151   1.119  0.00  0.00     0.037 A 
ATOM     32  C   UNL d   1      19.151 -20.330  -0.115  0.00  0.00     0.068 A 
ATOM     33  C   UNL d   1      19.679 -19.698  -1.234  0.00  0.00     0.037 A 
ATOM     34  C   UNL d   1      20.826 -18.906  -1.129  0.00  0.00     0.011 A 
BRANCH  32  35
ATOM     35  O   UNL d   1      17.980 -21.038  -0.112  0.00  0.00    -0.356 OA
ATOM     36  C   UNL d   1      17.643 -21.668   1.121  0.00  0.00     0.210 C 
ENDBRANCH  32  35
ENDBRANCH  28  29
ENDBRANCH  26  28
ENDBRANCH  24  26
ENDBRANCH  22  24
ENDBRANCH   1  22
TORSDOF 8
ENDMDL
MODEL 4
REMARK VINA RESULT:    -9.044      5.546      9.711
REMARK INTER + INTRA:         -12.870
REMARK INTER:                 -11.431
REMARK INTRA:                  -1.439
REMARK CONF_INDEPENDENT:        2.386
REMARK UNBOUND:                -1.439
REMARK  8 active torsions:
REMARK  status: ('A' for Active; 'I' for Inactive)
REMARK    1  A    between atoms: O_2  and  C_3 
REMARK    2  A    between atoms: C_6  and  C_7 
REMARK    3  A    between atoms: C_7  and  N_8 
REMARK    4  A    between atoms: N_8  and  C_9 
REMARK    5  A    between atoms: C_9  and  N_11 
REMARK    6  A    between atoms: N_11  and  N_12 
REMARK       I    between atoms: N_12  and  C_13 
REMARK    7  A    between atoms: C_13  and  C_15 
REMARK    8  A    between atoms: C_19  and  N_20 
ROOT
ATOM      1  N   UNL d   1      29.063 -17.096  -1.600  0.00  0.00    -0.264 N 
ATOM      2  C   UNL d   1      30.069 -17.821  -2.235  0.00  0.00     0.270 C 
ATOM      3  O   UNL d   1      30.883 -18.511  -1.625  0.00  0.00    -0.266 OA
ATOM      4  H   UNL d   1      28.359 -16.560  -2.104  0.00  0.00     0.190 HD
ENDROOT
BRANCH   2   5
ATOM      5  C   UNL d   1      30.155 -17.718  -3.745  0.00  0.00     0.035 A 
ATOM      6  C   UNL d   1      30.793 -18.684  -4.508  0.00  0.00     0.017 A 
ATOM      7  C   UNL d   1      30.993 -18.455  -5.885  0.00  0.00     0.003 A 
ATOM      8  C   UNL d   1      30.494 -17.290  -6.540  0.00  0.00     0.030 A 
ATOM      9  C   UNL d   1      29.829 -16.297  -5.809  0.00  0.00     0.046 A 
ATOM     10  C   UNL d   1      29.702 -16.567  -4.407  0.00  0.00     0.047 A 
BRANCH   9  11
ATOM     11  N   UNL d   1      29.317 -15.031  -6.333  0.00  0.00    -0.244 N 
ATOM     12  C   UNL d   1      28.097 -14.582  -5.906  0.00  0.00     0.266 C 
ATOM     13  O   UNL d   1      27.155 -15.114  -5.373  0.00  0.00    -0.267 OA
ATOM     14  C   UNL d   1      27.912 -13.231  -6.340  0.00  0.00     0.048 C 
ATOM     15  C   UNL d   1      26.887 -12.438  -5.847  0.00  0.00     0.018 C 
ATOM     16  C   UNL d   1      28.717 -12.986  -7.413  0.00  0.00     0.048 C 
ATOM     17  C   UNL d   1      26.466 -11.375  -6.605  0.00  0.00     0.001 C 
ATOM     18  C   UNL d   1      27.107 -11.150  -7.827  0.00  0.00     0.001 C 
ATOM     19  C   UNL d   1      28.245 -11.945  -8.242  0.00  0.00     0.018 C 
ATOM     20  C   UNL d   1      29.839 -14.056  -7.199  0.00  0.00     0.266 C 
ATOM     21  O   UNL d   1      30.992 -13.949  -7.587  0.00  0.00    -0.267 OA
ENDBRANCH   9  11
ENDBRANCH   2   5
BRANCH   1  22
ATOM     22  N   UNL d   1      28.897 -17.130  -0.171  0.00  0.00    -0.274 N 
ATOM     23  H   UNL d   1      29.427 -17.851   0.313  0.00  0.00     0.189 HD
BRANCH  22  24
ATOM     24  C   UNL d   1      28.060 -16.203   0.461  0.00  0.00     0.186 C 
ATOM     25  S   UNL d   1      28.646 -14.805   1.184  0.00  0.00    -0.040 SA
BRANCH  24  26
ATOM     26  N   UNL d   1      26.713 -16.535   0.426  0.00  0.00    -0.362 N 
ATOM     27  H   UNL d   1      26.083 -15.936   0.932  0.00  0.00     0.162 HD
BRANCH  26  28
ATOM     28  C   UNL d   1      26.126 -17.653  -0.352  0.00  0.00     0.160 C 
BRANCH  28  29
ATOM     29  C   UNL d   1      24.610 -17.693  -0.471  0.00  0.00    -0.040 A 
ATOM     30  C   UNL d   1      23.939 -18.933  -0.430  0.00  0.00     0.011 A 
ATOM     31  C   UNL d   1      22.558 -19.018  -0.676  0.00  0.00     0.037 A 
ATOM     32  C   UNL d   1      21.808 -17.863  -0.887  0.00  0.00     0.068 A 
ATOM     33  C   UNL d   1      22.450 -16.631  -0.874  0.00  0.00     0.037 A 
ATOM     34  C   UNL d   1      23.831 -16.550  -0.668  0.00  0.00     0.011 A 
BRANCH  32  35
ATOM     35  O   UNL d   1      20.453 -18.024  -0.984  0.00  0.00    -0.356 OA
ATOM     36  C   UNL d   1      19.933 -19.231  -0.432  0.00  0.00     0.210 C 
ENDBRANCH  32  35
ENDBRANCH  28  29
ENDBRANCH  26  28
ENDBRANCH  24  26
ENDBRANCH  22  24
ENDBRANCH   1  22
TORSDOF 8
ENDMDL
MODEL 5
REMARK VINA RESULT:    -8.692      1.320      2.186
REMARK INTER + INTRA:         -12.987
REMARK INTER:                 -11.078
REMARK INTRA:                  -1.909
REMARK CONF_INDEPENDENT:        2.386
REMARK UNBOUND:                -1.909
REMARK  8 active torsions:
REMARK  status: ('A' for Active; 'I' for Inactive)
REMARK    1  A    between atoms: O_2  and  C_3 
REMARK    2  A    between atoms: C_6  and  C_7 
REMARK    3  A    between atoms: C_7  and  N_8 
REMARK    4  A    between atoms: N_8  and  C_9 
REMARK    5  A    between atoms: C_9  and  N_11 
REMARK    6  A    between atoms: N_11  and  N_12 
REMARK       I    between atoms: N_12  and  C_13 
REMARK    7  A    between atoms: C_13  and  C_15 
REMARK    8  A    between atoms: C_19  and  N_20 
ROOT
ATOM      1  N   UNL d   1      28.005 -14.862   1.779  0.00  0.00    -0.264 N 
ATOM      2  C   UNL d   1      27.620 -13.647   1.215  0.00  0.00     0.270 C 
ATOM      3  O   UNL d   1      27.466 -13.491   0.006  0.00  0.00    -0.266 OA
ATOM      4  H   UNL d   1      28.090 -15.008   2.783  0.00  0.00     0.190 HD
ENDROOT
BRANCH   2   5
ATOM      5  C   UNL d   1      27.413 -12.476   2.155  0.00  0.00     0.035 A 
ATOM      6  C   UNL d   1      27.024 -11.228   1.693  0.00  0.00     0.017 A 
ATOM      7  C   UNL d   1      27.012 -10.135   2.583  0.00  0.00     0.003 A 
ATOM      8  C   UNL d   1      27.317 -10.283   3.969  0.00  0.00     0.030 A 
ATOM      9  C   UNL d   1      27.699 -11.530   4.480  0.00  0.00     0.046 A 
ATOM     10  C   UNL d   1      27.740 -12.589   3.515  0.00  0.00     0.047 A 
BRANCH   9  11
ATOM     11  N   UNL d   1      28.094 -11.818   5.859  0.00  0.00    -0.244 N 
ATOM     12  C   UNL d   1      28.144 -13.120   6.277  0.00  0.00     0.266 C 
ATOM     13  O   UNL d   1      27.671 -14.147   5.857  0.00  0.00    -0.267 OA
ATOM     14  C   UNL d   1      28.787 -13.184   7.553  0.00  0.00     0.048 C 
ATOM     15  C   UNL d   1      29.201 -14.386   8.106  0.00  0.00     0.018 C 
ATOM     16  C   UNL d   1      28.694 -11.969   8.167  0.00  0.00     0.048 C 
ATOM     17  C   UNL d   1      29.357 -14.457   9.467  0.00  0.00     0.001 C 
ATOM     18  C   UNL d   1      29.098 -13.304  10.213  0.00  0.00     0.001 C 
ATOM     19  C   UNL d   1      28.773 -12.045   9.575  0.00  0.00     0.018 C 
ATOM     20  C   UNL d   1      28.520 -11.020   6.935  0.00  0.00     0.266 C 
ATOM     21  O   UNL d   1      28.859  -9.848   6.899  0.00  0.00    -0.267 OA
ENDBRANCH   9  11
ENDBRANCH   2   5
BRANCH   1  22
ATOM     22  N   UNL d   1      28.224 -16.032   0.972  0.00  0.00    -0.274 N 
ATOM     23  H   UNL d   1      29.196 -16.317   0.871  0.00  0.00     0.189 HD
BRANCH  22  24
ATOM     24  C   UNL d   1      27.139 -16.703   0.396  0.00  0.00     0.186 C 
ATOM     25  S   UNL d   1      26.616 -18.204   0.940  0.00  0.00    -0.040 SA
BRANCH  24  26
ATOM     26  N   UNL d   1      26.533 -16.016  -0.645  0.00  0.00    -0.362 N 
ATOM     27  H   UNL d   1      26.639 -15.016  -0.654  0.00  0.00     0.162 HD
BRANCH  26  28
ATOM     28  C   UNL d   1      25.806 -16.641  -1.777  0.00  0.00     0.160 C 
BRANCH  28  29
ATOM     29  C   UNL d   1      24.380 -17.099  -1.517  0.00  0.00    -0.040 A 
ATOM     30  C   UNL d   1      23.411 -16.162  -1.099  0.00  0.00     0.011 A 
ATOM     31  C   UNL d   1      22.123 -16.573  -0.718  0.00  0.00     0.037 A 
ATOM     32  C   UNL d   1      21.752 -17.912  -0.820  0.00  0.00     0.068 A 
ATOM     33  C   UNL d   1      22.682 -18.836  -1.282  0.00  0.00     0.037 A 
ATOM     34  C   UNL d   1      23.975 -18.432  -1.626  0.00  0.00     0.011 A 
BRANCH  32  35
ATOM     35  O   UNL d   1      20.442 -18.205  -0.556  0.00  0.00    -0.356 OA
ATOM     36  C   UNL d   1      20.018 -19.519  -0.908  0.00  0.00     0.210 C 
ENDBRANCH  32  35
ENDBRANCH  28  29
ENDBRANCH  26  28
ENDBRANCH  24  26
ENDBRANCH  22  24
ENDBRANCH   1  22
TORSDOF 8
ENDMDL
MODEL 6
REMARK VINA RESULT:    -7.933      3.120      8.199
REMARK INTER + INTRA:         -13.293
REMARK INTER:                 -10.319
REMARK INTRA:                  -2.973
REMARK CONF_INDEPENDENT:        2.386
REMARK UNBOUND:                -2.973
REMARK  8 active torsions:
REMARK  status: ('A' for Active; 'I' for Inactive)
REMARK    1  A    between atoms: O_2  and  C_3 
REMARK    2  A    between atoms: C_6  and  C_7 
REMARK    3  A    between atoms: C_7  and  N_8 
REMARK    4  A    between atoms: N_8  and  C_9 
REMARK    5  A    between atoms: C_9  and  N_11 
REMARK    6  A    between atoms: N_11  and  N_12 
REMARK       I    between atoms: N_12  and  C_13 
REMARK    7  A    between atoms: C_13  and  C_15 
REMARK    8  A    between atoms: C_19  and  N_20 
ROOT
ATOM      1  N   UNL d   1      30.193 -14.604   3.546  0.00  0.00    -0.264 N 
ATOM      2  C   UNL d   1      30.674 -14.071   2.352  0.00  0.00     0.270 C 
ATOM      3  O   UNL d   1      31.370 -13.059   2.305  0.00  0.00    -0.266 OA
ATOM      4  H   UNL d   1      29.653 -15.466   3.594  0.00  0.00     0.190 HD
ENDROOT
BRANCH   2   5
ATOM      5  C   UNL d   1      30.286 -14.775   1.067  0.00  0.00     0.035 A 
ATOM      6  C   UNL d   1      31.070 -14.699  -0.074  0.00  0.00     0.017 A 
ATOM      7  C   UNL d   1      30.580 -15.227  -1.285  0.00  0.00     0.003 A 
ATOM      8  C   UNL d   1      29.328 -15.909  -1.364  0.00  0.00     0.030 A 
ATOM      9  C   UNL d   1      28.513 -16.022  -0.231  0.00  0.00     0.046 A 
ATOM     10  C   UNL d   1      29.045 -15.421   0.957  0.00  0.00     0.047 A 
BRANCH   9  11
ATOM     11  N   UNL d   1      27.187 -16.639  -0.175  0.00  0.00    -0.244 N 
ATOM     12  C   UNL d   1      26.094 -15.895  -0.528  0.00  0.00     0.266 C 
ATOM     13  O   UNL d   1      25.894 -14.710  -0.634  0.00  0.00    -0.267 OA
ATOM     14  C   UNL d   1      24.955 -16.752  -0.644  0.00  0.00     0.048 C 
ATOM     15  C   UNL d   1      23.772 -16.324  -1.227  0.00  0.00     0.018 C 
ATOM     16  C   UNL d   1      25.165 -17.885   0.087  0.00  0.00     0.048 C 
ATOM     17  C   UNL d   1      22.611 -16.974  -0.895  0.00  0.00     0.001 C 
ATOM     18  C   UNL d   1      22.695 -18.040   0.005  0.00  0.00     0.001 C 
ATOM     19  C   UNL d   1      23.971 -18.515   0.500  0.00  0.00     0.018 C 
ATOM     20  C   UNL d   1      26.729 -17.932   0.127  0.00  0.00     0.266 C 
ATOM     21  O   UNL d   1      27.397 -18.949   0.235  0.00  0.00    -0.267 OA
ENDBRANCH   9  11
ENDBRANCH   2   5
BRANCH   1  22
ATOM     22  N   UNL d   1      30.506 -14.010   4.818  0.00  0.00    -0.274 N 
ATOM     23  H   UNL d   1      31.331 -13.414   4.830  0.00  0.00     0.189 HD
BRANCH  22  24
ATOM     24  C   UNL d   1      29.693 -14.259   5.930  0.00  0.00     0.186 C 
ATOM     25  S   UNL d   1      30.086 -13.721   7.472  0.00  0.00    -0.040 SA
BRANCH  24  26
ATOM     26  N   UNL d   1      28.539 -14.972   5.643  0.00  0.00    -0.362 N 
ATOM     27  H   UNL d   1      28.543 -15.953   5.865  0.00  0.00     0.162 HD
BRANCH  26  28
ATOM     28  C   UNL d   1      27.284 -14.393   5.105  0.00  0.00     0.160 C 
BRANCH  28  29
ATOM     29  C   UNL d   1      27.417 -13.363   3.994  0.00  0.00    -0.040 A 
ATOM     30  C   UNL d   1      27.031 -13.699   2.680  0.00  0.00     0.011 A 
ATOM     31  C   UNL d   1      27.269 -12.823   1.608  0.00  0.00     0.037 A 
ATOM     32  C   UNL d   1      27.824 -11.565   1.836  0.00  0.00     0.068 A 
ATOM     33  C   UNL d   1      28.158 -11.202   3.135  0.00  0.00     0.037 A 
ATOM     34  C   UNL d   1      27.955 -12.089   4.196  0.00  0.00     0.011 A 
BRANCH  32  35
ATOM     35  O   UNL d   1      27.897 -10.726   0.758  0.00  0.00    -0.356 OA
ATOM     36  C   UNL d   1      27.990 -11.360  -0.514  0.00  0.00     0.210 C 
ENDBRANCH  32  35
ENDBRANCH  28  29
ENDBRANCH  26  28
ENDBRANCH  24  26
ENDBRANCH  22  24
ENDBRANCH   1  22
TORSDOF 8
ENDMDL
MODEL 7
REMARK VINA RESULT:    -7.524      6.100      9.769
REMARK INTER + INTRA:         -13.303
REMARK INTER:                  -9.910
REMARK INTRA:                  -3.393
REMARK CONF_INDEPENDENT:        2.386
REMARK UNBOUND:                -3.393
REMARK  8 active torsions:
REMARK  status: ('A' for Active; 'I' for Inactive)
REMARK    1  A    between atoms: O_2  and  C_3 
REMARK    2  A    between atoms: C_6  and  C_7 
REMARK    3  A    between atoms: C_7  and  N_8 
REMARK    4  A    between atoms: N_8  and  C_9 
REMARK    5  A    between atoms: C_9  and  N_11 
REMARK    6  A    between atoms: N_11  and  N_12 
REMARK       I    between atoms: N_12  and  C_13 
REMARK    7  A    between atoms: C_13  and  C_15 
REMARK    8  A    between atoms: C_19  and  N_20 
ROOT
ATOM      1  N   UNL d   1      25.530 -10.500  -5.898  0.00  0.00    -0.264 N 
ATOM      2  C   UNL d   1      26.670 -10.898  -6.593  0.00  0.00     0.270 C 
ATOM      3  O   UNL d   1      27.158 -10.241  -7.509  0.00  0.00    -0.266 OA
ATOM      4  H   UNL d   1      25.148 -11.019  -5.110  0.00  0.00     0.190 HD
ENDROOT
BRANCH   2   5
ATOM      5  C   UNL d   1      27.303 -12.217  -6.197  0.00  0.00     0.035 A 
ATOM      6  C   UNL d   1      28.354 -12.768  -6.914  0.00  0.00     0.017 A 
ATOM      7  C   UNL d   1      28.790 -14.074  -6.607  0.00  0.00     0.003 A 
ATOM      8  C   UNL d   1      28.235 -14.824  -5.528  0.00  0.00     0.030 A 
ATOM      9  C   UNL d   1      27.183 -14.297  -4.767  0.00  0.00     0.046 A 
ATOM     10  C   UNL d   1      26.752 -12.988  -5.162  0.00  0.00     0.047 A 
BRANCH   9  11
ATOM     11  N   UNL d   1      26.481 -14.971  -3.675  0.00  0.00    -0.244 N 
ATOM     12  C   UNL d   1      27.190 -15.782  -2.831  0.00  0.00     0.266 C 
ATOM     13  O   UNL d   1      28.263 -16.328  -2.908  0.00  0.00    -0.267 OA
ATOM     14  C   UNL d   1      26.373 -16.127  -1.708  0.00  0.00     0.048 C 
ATOM     15  C   UNL d   1      26.901 -16.728  -0.575  0.00  0.00     0.018 C 
ATOM     16  C   UNL d   1      25.058 -15.987  -2.045  0.00  0.00     0.048 C 
ATOM     17  C   UNL d   1      26.057 -17.450   0.230  0.00  0.00     0.001 C 
ATOM     18  C   UNL d   1      24.711 -17.527  -0.138  0.00  0.00     0.001 C 
ATOM     19  C   UNL d   1      24.193 -16.790  -1.272  0.00  0.00     0.018 C 
ATOM     20  C   UNL d   1      25.155 -14.946  -3.210  0.00  0.00     0.266 C 
ATOM     21  O   UNL d   1      24.276 -14.157  -3.520  0.00  0.00    -0.267 OA
ENDBRANCH   9  11
ENDBRANCH   2   5
BRANCH   1  22
ATOM     22  N   UNL d   1      24.858  -9.264  -6.198  0.00  0.00    -0.274 N 
ATOM     23  H   UNL d   1      24.786  -9.035  -7.187  0.00  0.00     0.189 HD
BRANCH  22  24
ATOM     24  C   UNL d   1      24.346  -8.473  -5.163  0.00  0.00     0.186 C 
ATOM     25  S   UNL d   1      23.054  -7.423  -5.386  0.00  0.00    -0.040 SA
BRANCH  24  26
ATOM     26  N   UNL d   1      24.988  -8.644  -3.945  0.00  0.00    -0.362 N 
ATOM     27  H   UNL d   1      24.405  -8.825  -3.145  0.00  0.00     0.162 HD
BRANCH  26  28
ATOM     28  C   UNL d   1      26.457  -8.652  -3.743  0.00  0.00     0.160 C 
BRANCH  28  29
ATOM     29  C   UNL d   1      27.069  -9.913  -3.153  0.00  0.00    -0.040 A 
ATOM     30  C   UNL d   1      28.444 -10.169  -3.330  0.00  0.00     0.011 A 
ATOM     31  C   UNL d   1      29.012 -11.388  -2.920  0.00  0.00     0.037 A 
ATOM     32  C   UNL d   1      28.237 -12.338  -2.258  0.00  0.00     0.068 A 
ATOM     33  C   UNL d   1      26.893 -12.073  -2.030  0.00  0.00     0.037 A 
ATOM     34  C   UNL d   1      26.320 -10.876  -2.472  0.00  0.00     0.011 A 
BRANCH  32  35
ATOM     35  O   UNL d   1      28.898 -13.435  -1.775  0.00  0.00    -0.356 OA
ATOM     36  C   UNL d   1      28.681 -13.731  -0.399  0.00  0.00     0.210 C 
ENDBRANCH  32  35
ENDBRANCH  28  29
ENDBRANCH  26  28
ENDBRANCH  24  26
ENDBRANCH  22  24
ENDBRANCH   1  22
TORSDOF 8
ENDMDL
