MODEL 1
REMARK VINA RESULT:    -7.684      0.000      0.000
REMARK INTER + INTRA:         -10.018
REMARK INTER:                  -9.176
REMARK INTRA:                  -0.842
REMARK CONF_INDEPENDENT:        1.492
REMARK UNBOUND:                -0.842
REMARK  5 active torsions:
REMARK  status: ('A' for Active; 'I' for Inactive)
REMARK    1  A    between atoms: O_1  and  C_2 
REMARK    2  A    between atoms: C_4  and  N_5 
REMARK    3  A    between atoms: N_5  and  C_6 
REMARK    4  A    between atoms: C_13  and  N_14 
REMARK    5  A    between atoms: N_14  and  C_15 
ROOT
ATOM      1  C   UNL d   1      24.408 -18.391  -0.658  0.00  0.00     0.142 C 
ATOM      2  C   UNL d   1      24.912 -17.423  -1.694  0.00  0.00     0.059 C 
ATOM      3  C   UNL d   1      24.335 -16.077  -1.264  0.00  0.00     0.086 C 
ATOM      4  C   UNL d   1      23.025 -16.429  -0.517  0.00  0.00     0.052 C 
ATOM      5  C   UNL d   1      22.942 -17.970  -0.532  0.00  0.00     0.112 C 
ENDROOT
BRANCH   3   6
ATOM      6  N   UNL d   1      24.108 -15.183  -2.395  0.00  0.00    -0.385 N 
ATOM      7  H   UNL d   1      23.171 -14.854  -2.589  0.00  0.00     0.160 HD
BRANCH   6   8
ATOM      8  C   UNL d   1      25.122 -14.696  -3.206  0.00  0.00     0.028 A 
ATOM      9  C   UNL d   1      25.905 -15.574  -3.966  0.00  0.00     0.029 A 
ATOM     10  C   UNL d   1      26.991 -15.100  -4.718  0.00  0.00     0.002 A 
ATOM     11  C   UNL d   1      27.285 -13.743  -4.759  0.00  0.00     0.000 A 
ATOM     12  C   UNL d   1      26.507 -12.853  -4.031  0.00  0.00     0.002 A 
ATOM     13  C   UNL d   1      25.450 -13.341  -3.260  0.00  0.00     0.029 A 
ENDBRANCH   6   8
ENDBRANCH   3   6
BRANCH   1  14
ATOM     14  O   UNL d   1      25.146 -18.200   0.548  0.00  0.00    -0.393 OA
ATOM     15  H   UNL d   1      25.900 -17.623   0.335  0.00  0.00     0.210 HD
ENDBRANCH   1  14
BRANCH   5  16
ATOM     16  N   UNL d   1      22.183 -18.496   0.605  0.00  0.00    -0.383 N 
ATOM     17  H   UNL d   1      22.739 -18.869   1.370  0.00  0.00     0.160 HD
BRANCH  16  18
ATOM     18  C   UNL d   1      20.990 -19.194   0.406  0.00  0.00     0.028 A 
ATOM     19  C   UNL d   1      20.382 -19.082  -0.848  0.00  0.00     0.029 A 
ATOM     20  C   UNL d   1      19.155 -19.697  -1.120  0.00  0.00     0.002 A 
ATOM     21  C   UNL d   1      18.516 -20.450  -0.144  0.00  0.00     0.000 A 
ATOM     22  C   UNL d   1      19.075 -20.539   1.125  0.00  0.00     0.002 A 
ATOM     23  C   UNL d   1      20.278 -19.875   1.398  0.00  0.00     0.029 A 
ENDBRANCH  16  18
ENDBRANCH   5  16
TORSDOF 5
ENDMDL
MODEL 2
REMARK VINA RESULT:    -7.584      1.071      7.738
REMARK INTER + INTRA:          -9.885
REMARK INTER:                  -9.075
REMARK INTRA:                  -0.809
REMARK CONF_INDEPENDENT:        1.492
REMARK UNBOUND:                -0.809
REMARK  5 active torsions:
REMARK  status: ('A' for Active; 'I' for Inactive)
REMARK    1  A    between atoms: O_1  and  C_2 
REMARK    2  A    between atoms: C_4  and  N_5 
REMARK    3  A    between atoms: N_5  and  C_6 
REMARK    4  A    between atoms: C_13  and  N_14 
REMARK    5  A    between atoms: N_14  and  C_15 
ROOT
ATOM      1  C   UNL d   1      24.920 -17.768   0.211  0.00  0.00     0.142 C 
ATOM      2  C   UNL d   1      23.509 -18.160   0.555  0.00  0.00     0.059 C 
ATOM      3  C   UNL d   1      22.930 -18.675  -0.759  0.00  0.00     0.086 C 
ATOM      4  C   UNL d   1      23.707 -17.912  -1.860  0.00  0.00     0.052 C 
ATOM      5  C   UNL d   1      24.718 -17.020  -1.109  0.00  0.00     0.112 C 
ENDROOT
BRANCH   3   6
ATOM      6  N   UNL d   1      21.488 -18.468  -0.851  0.00  0.00    -0.385 N 
ATOM      7  H   UNL d   1      21.126 -17.755  -1.472  0.00  0.00     0.160 HD
BRANCH   6   8
ATOM      8  C   UNL d   1      20.555 -19.239  -0.173  0.00  0.00     0.028 A 
ATOM      9  C   UNL d   1      19.430 -19.738  -0.841  0.00  0.00     0.029 A 
ATOM     10  C   UNL d   1      18.436 -20.442  -0.143  0.00  0.00     0.002 A 
ATOM     11  C   UNL d   1      18.568 -20.694   1.216  0.00  0.00     0.000 A 
ATOM     12  C   UNL d   1      19.687 -20.226   1.892  0.00  0.00     0.002 A 
ATOM     13  C   UNL d   1      20.653 -19.500   1.194  0.00  0.00     0.029 A 
ENDBRANCH   6   8
ENDBRANCH   3   6
BRANCH   1  14
ATOM     14  O   UNL d   1      25.704 -18.952   0.065  0.00  0.00    -0.393 OA
ATOM     15  H   UNL d   1      26.511 -18.829   0.595  0.00  0.00     0.210 HD
ENDBRANCH   1  14
BRANCH   5  16
ATOM     16  N   UNL d   1      25.909 -16.733  -1.911  0.00  0.00    -0.383 N 
ATOM     17  H   UNL d   1      26.801 -16.897  -1.451  0.00  0.00     0.160 HD
BRANCH  16  18
ATOM     18  C   UNL d   1      25.938 -15.643  -2.783  0.00  0.00     0.028 A 
ATOM     19  C   UNL d   1      24.839 -14.778  -2.765  0.00  0.00     0.029 A 
ATOM     20  C   UNL d   1      24.753 -13.692  -3.644  0.00  0.00     0.002 A 
ATOM     21  C   UNL d   1      25.773 -13.442  -4.552  0.00  0.00     0.000 A 
ATOM     22  C   UNL d   1      26.853 -14.312  -4.623  0.00  0.00     0.002 A 
ATOM     23  C   UNL d   1      26.901 -15.424  -3.772  0.00  0.00     0.029 A 
ENDBRANCH  16  18
ENDBRANCH   5  16
TORSDOF 5
ENDMDL
MODEL 3
REMARK VINA RESULT:    -6.507      2.474      3.077
REMARK INTER + INTRA:          -8.897
REMARK INTER:                  -7.998
REMARK INTRA:                  -0.899
REMARK CONF_INDEPENDENT:        1.492
REMARK UNBOUND:                -0.899
REMARK  5 active torsions:
REMARK  status: ('A' for Active; 'I' for Inactive)
REMARK    1  A    between atoms: O_1  and  C_2 
REMARK    2  A    between atoms: C_4  and  N_5 
REMARK    3  A    between atoms: N_5  and  C_6 
REMARK    4  A    between atoms: C_13  and  N_14 
REMARK    5  A    between atoms: N_14  and  C_15 
ROOT
ATOM      1  C   UNL d   1      22.579 -16.525  -0.201  0.00  0.00     0.142 C 
ATOM      2  C   UNL d   1      24.073 -16.350  -0.150  0.00  0.00     0.059 C 
ATOM      3  C   UNL d   1      24.589 -17.171  -1.329  0.00  0.00     0.086 C 
ATOM      4  C   UNL d   1      23.538 -18.293  -1.520  0.00  0.00     0.052 C 
ATOM      5  C   UNL d   1      22.455 -18.030  -0.452  0.00  0.00     0.112 C 
ENDROOT
BRANCH   3   6
ATOM      6  N   UNL d   1      25.929 -17.698  -1.095  0.00  0.00    -0.385 N 
ATOM      7  H   UNL d   1      26.084 -18.697  -1.123  0.00  0.00     0.160 HD
BRANCH   6   8
ATOM      8  C   UNL d   1      27.045 -16.899  -0.889  0.00  0.00     0.028 A 
ATOM      9  C   UNL d   1      27.396 -16.493   0.404  0.00  0.00     0.029 A 
ATOM     10  C   UNL d   1      28.469 -15.612   0.613  0.00  0.00     0.002 A 
ATOM     11  C   UNL d   1      29.230 -15.157  -0.456  0.00  0.00     0.000 A 
ATOM     12  C   UNL d   1      28.911 -15.565  -1.744  0.00  0.00     0.002 A 
ATOM     13  C   UNL d   1      27.823 -16.416  -1.942  0.00  0.00     0.029 A 
ENDBRANCH   6   8
ENDBRANCH   3   6
BRANCH   1  14
ATOM     14  O   UNL d   1      22.060 -15.739  -1.271  0.00  0.00    -0.393 OA
ATOM     15  H   UNL d   1      22.797 -15.562  -1.882  0.00  0.00     0.210 HD
ENDBRANCH   1  14
BRANCH   5  16
ATOM     16  N   UNL d   1      21.143 -18.541  -0.855  0.00  0.00    -0.383 N 
ATOM     17  H   UNL d   1      20.583 -17.916  -1.428  0.00  0.00     0.160 HD
BRANCH  16  18
ATOM     18  C   UNL d   1      20.376 -19.310   0.022  0.00  0.00     0.028 A 
ATOM     19  C   UNL d   1      19.290 -20.008  -0.517  0.00  0.00     0.029 A 
ATOM     20  C   UNL d   1      18.430 -20.756   0.294  0.00  0.00     0.002 A 
ATOM     21  C   UNL d   1      18.647 -20.834   1.663  0.00  0.00     0.000 A 
ATOM     22  C   UNL d   1      19.690 -20.113   2.231  0.00  0.00     0.002 A 
ATOM     23  C   UNL d   1      20.511 -19.327   1.414  0.00  0.00     0.029 A 
ENDBRANCH  16  18
ENDBRANCH   5  16
TORSDOF 5
ENDMDL
MODEL 4
REMARK VINA RESULT:    -6.435      3.495      5.688
REMARK INTER + INTRA:          -8.784
REMARK INTER:                  -7.926
REMARK INTRA:                  -0.858
REMARK CONF_INDEPENDENT:        1.492
REMARK UNBOUND:                -0.858
REMARK  5 active torsions:
REMARK  status: ('A' for Active; 'I' for Inactive)
REMARK    1  A    between atoms: O_1  and  C_2 
REMARK    2  A    between atoms: C_4  and  N_5 
REMARK    3  A    between atoms: N_5  and  C_6 
REMARK    4  A    between atoms: C_13  and  N_14 
REMARK    5  A    between atoms: N_14  and  C_15 
ROOT
ATOM      1  C   UNL d   1      25.042 -13.474  -3.738  0.00  0.00     0.142 C 
ATOM      2  C   UNL d   1      26.226 -12.986  -4.529  0.00  0.00     0.059 C 
ATOM      3  C   UNL d   1      26.841 -14.257  -5.107  0.00  0.00     0.086 C 
ATOM      4  C   UNL d   1      26.478 -15.370  -4.093  0.00  0.00     0.052 C 
ATOM      5  C   UNL d   1      25.639 -14.674  -3.000  0.00  0.00     0.112 C 
ENDROOT
BRANCH   3   6
ATOM      6  N   UNL d   1      28.282 -14.135  -5.307  0.00  0.00    -0.385 N 
ATOM      7  H   UNL d   1      28.711 -13.219  -5.293  0.00  0.00     0.160 HD
BRANCH   6   8
ATOM      8  C   UNL d   1      29.132 -15.221  -5.459  0.00  0.00     0.028 A 
ATOM      9  C   UNL d   1      29.700 -15.505  -6.708  0.00  0.00     0.029 A 
ATOM     10  C   UNL d   1      30.487 -16.653  -6.893  0.00  0.00     0.002 A 
ATOM     11  C   UNL d   1      30.754 -17.507  -5.831  0.00  0.00     0.000 A 
ATOM     12  C   UNL d   1      30.218 -17.231  -4.580  0.00  0.00     0.002 A 
ATOM     13  C   UNL d   1      29.410 -16.105  -4.416  0.00  0.00     0.029 A 
ENDBRANCH   6   8
ENDBRANCH   3   6
BRANCH   1  14
ATOM     14  O   UNL d   1      24.002 -13.840  -4.644  0.00  0.00    -0.393 OA
ATOM     15  H   UNL d   1      23.622 -13.015  -4.994  0.00  0.00     0.210 HD
ENDBRANCH   1  14
BRANCH   5  16
ATOM     16  N   UNL d   1      24.708 -15.595  -2.344  0.00  0.00    -0.383 N 
ATOM     17  H   UNL d   1      23.796 -15.210  -2.113  0.00  0.00     0.160 HD
BRANCH  16  18
ATOM     18  C   UNL d   1      25.163 -16.521  -1.403  0.00  0.00     0.028 A 
ATOM     19  C   UNL d   1      24.200 -17.292  -0.744  0.00  0.00     0.029 A 
ATOM     20  C   UNL d   1      24.557 -18.202   0.257  0.00  0.00     0.002 A 
ATOM     21  C   UNL d   1      25.889 -18.371   0.609  0.00  0.00     0.000 A 
ATOM     22  C   UNL d   1      26.861 -17.584   0.003  0.00  0.00     0.002 A 
ATOM     23  C   UNL d   1      26.484 -16.640  -0.959  0.00  0.00     0.029 A 
ENDBRANCH  16  18
ENDBRANCH   5  16
TORSDOF 5
ENDMDL
MODEL 5
REMARK VINA RESULT:    -6.397      3.582      5.638
REMARK INTER + INTRA:          -8.893
REMARK INTER:                  -7.889
REMARK INTRA:                  -1.005
REMARK CONF_INDEPENDENT:        1.492
REMARK UNBOUND:                -1.005
REMARK  5 active torsions:
REMARK  status: ('A' for Active; 'I' for Inactive)
REMARK    1  A    between atoms: O_1  and  C_2 
REMARK    2  A    between atoms: C_4  and  N_5 
REMARK    3  A    between atoms: N_5  and  C_6 
REMARK    4  A    between atoms: C_13  and  N_14 
REMARK    5  A    between atoms: N_14  and  C_15 
ROOT
ATOM      1  C   UNL d   1      25.176 -13.586  -3.538  0.00  0.00     0.142 C 
ATOM      2  C   UNL d   1      26.273 -13.073  -4.432  0.00  0.00     0.059 C 
ATOM      3  C   UNL d   1      26.647 -14.273  -5.296  0.00  0.00     0.086 C 
ATOM      4  C   UNL d   1      26.319 -15.509  -4.421  0.00  0.00     0.052 C 
ATOM      5  C   UNL d   1      25.740 -14.942  -3.107  0.00  0.00     0.112 C 
ENDROOT
BRANCH   3   6
ATOM      6  N   UNL d   1      28.045 -14.243  -5.714  0.00  0.00    -0.385 N 
ATOM      7  H   UNL d   1      28.396 -13.440  -6.220  0.00  0.00     0.160 HD
BRANCH   6   8
ATOM      8  C   UNL d   1      28.961 -15.239  -5.407  0.00  0.00     0.028 A 
ATOM      9  C   UNL d   1      29.602 -15.950  -6.429  0.00  0.00     0.029 A 
ATOM     10  C   UNL d   1      30.461 -17.019  -6.130  0.00  0.00     0.002 A 
ATOM     11  C   UNL d   1      30.726 -17.366  -4.811  0.00  0.00     0.000 A 
ATOM     12  C   UNL d   1      30.117 -16.658  -3.783  0.00  0.00     0.002 A 
ATOM     13  C   UNL d   1      29.240 -15.619  -4.094  0.00  0.00     0.029 A 
ENDBRANCH   6   8
ENDBRANCH   3   6
BRANCH   1  14
ATOM     14  O   UNL d   1      23.976 -13.700  -4.301  0.00  0.00    -0.393 OA
ATOM     15  H   UNL d   1      24.030 -13.046  -5.020  0.00  0.00     0.210 HD
ENDBRANCH   1  14
BRANCH   5  16
ATOM     16  N   UNL d   1      24.822 -15.879  -2.455  0.00  0.00    -0.383 N 
ATOM     17  H   UNL d   1      23.856 -15.572  -2.385  0.00  0.00     0.160 HD
BRANCH  16  18
ATOM     18  C   UNL d   1      25.235 -16.636  -1.357  0.00  0.00     0.028 A 
ATOM     19  C   UNL d   1      26.608 -16.697  -1.099  0.00  0.00     0.029 A 
ATOM     20  C   UNL d   1      27.119 -17.478  -0.057  0.00  0.00     0.002 A 
ATOM     21  C   UNL d   1      26.263 -18.206   0.760  0.00  0.00     0.000 A 
ATOM     22  C   UNL d   1      24.898 -18.200   0.496  0.00  0.00     0.002 A 
ATOM     23  C   UNL d   1      24.407 -17.454  -0.583  0.00  0.00     0.029 A 
ENDBRANCH  16  18
ENDBRANCH   5  16
TORSDOF 5
ENDMDL
MODEL 6
REMARK VINA RESULT:    -6.374      2.752      8.481
REMARK INTER + INTRA:          -8.734
REMARK INTER:                  -7.866
REMARK INTRA:                  -0.868
REMARK CONF_INDEPENDENT:        1.492
REMARK UNBOUND:                -0.868
REMARK  5 active torsions:
REMARK  status: ('A' for Active; 'I' for Inactive)
REMARK    1  A    between atoms: O_1  and  C_2 
REMARK    2  A    between atoms: C_4  and  N_5 
REMARK    3  A    between atoms: N_5  and  C_6 
REMARK    4  A    between atoms: C_13  and  N_14 
REMARK    5  A    between atoms: N_14  and  C_15 
ROOT
ATOM      1  C   UNL d   1      27.309 -14.771  -4.453  0.00  0.00     0.142 C 
ATOM      2  C   UNL d   1      27.055 -15.558  -3.196  0.00  0.00     0.059 C 
ATOM      3  C   UNL d   1      25.541 -15.498  -3.013  0.00  0.00     0.086 C 
ATOM      4  C   UNL d   1      25.115 -14.164  -3.676  0.00  0.00     0.052 C 
ATOM      5  C   UNL d   1      26.415 -13.547  -4.235  0.00  0.00     0.112 C 
ENDROOT
BRANCH   3   6
ATOM      6  N   UNL d   1      25.148 -15.572  -1.609  0.00  0.00    -0.385 N 
ATOM      7  H   UNL d   1      25.428 -14.835  -0.974  0.00  0.00     0.160 HD
BRANCH   6   8
ATOM      8  C   UNL d   1      24.347 -16.577  -1.087  0.00  0.00     0.028 A 
ATOM      9  C   UNL d   1      24.892 -17.832  -0.788  0.00  0.00     0.029 A 
ATOM     10  C   UNL d   1      24.072 -18.882  -0.345  0.00  0.00     0.002 A 
ATOM     11  C   UNL d   1      22.711 -18.686  -0.153  0.00  0.00     0.000 A 
ATOM     12  C   UNL d   1      22.156 -17.442  -0.424  0.00  0.00     0.002 A 
ATOM     13  C   UNL d   1      22.974 -16.415  -0.895  0.00  0.00     0.029 A 
ENDBRANCH   6   8
ENDBRANCH   3   6
BRANCH   1  14
ATOM     14  O   UNL d   1      26.911 -15.556  -5.576  0.00  0.00    -0.393 OA
ATOM     15  H   UNL d   1      26.222 -15.055  -6.047  0.00  0.00     0.210 HD
ENDBRANCH   1  14
BRANCH   5  16
ATOM     16  N   UNL d   1      26.166 -12.678  -5.387  0.00  0.00    -0.383 N 
ATOM     17  H   UNL d   1      26.718 -12.879  -6.217  0.00  0.00     0.160 HD
BRANCH  16  18
ATOM     18  C   UNL d   1      25.916 -11.316  -5.214  0.00  0.00     0.028 A 
ATOM     19  C   UNL d   1      25.845 -10.838  -3.901  0.00  0.00     0.029 A 
ATOM     20  C   UNL d   1      25.541  -9.500  -3.629  0.00  0.00     0.002 A 
ATOM     21  C   UNL d   1      25.313  -8.607  -4.668  0.00  0.00     0.000 A 
ATOM     22  C   UNL d   1      25.331  -9.065  -5.980  0.00  0.00     0.002 A 
ATOM     23  C   UNL d   1      25.587 -10.418  -6.234  0.00  0.00     0.029 A 
ENDBRANCH  16  18
ENDBRANCH   5  16
TORSDOF 5
ENDMDL
MODEL 7
REMARK VINA RESULT:    -6.078      3.496      5.622
REMARK INTER + INTRA:          -8.340
REMARK INTER:                  -7.569
REMARK INTRA:                  -0.771
REMARK CONF_INDEPENDENT:        1.492
REMARK UNBOUND:                -0.771
REMARK  5 active torsions:
REMARK  status: ('A' for Active; 'I' for Inactive)
REMARK    1  A    between atoms: O_1  and  C_2 
REMARK    2  A    between atoms: C_4  and  N_5 
REMARK    3  A    between atoms: N_5  and  C_6 
REMARK    4  A    between atoms: C_13  and  N_14 
REMARK    5  A    between atoms: N_14  and  C_15 
ROOT
ATOM      1  C   UNL d   1      25.199 -13.463  -3.640  0.00  0.00     0.142 C 
ATOM      2  C   UNL d   1      26.384 -13.204  -4.532  0.00  0.00     0.059 C 
ATOM      3  C   UNL d   1      26.754 -14.580  -5.076  0.00  0.00     0.086 C 
ATOM      4  C   UNL d   1      26.297 -15.575  -3.981  0.00  0.00     0.052 C 
ATOM      5  C   UNL d   1      25.656 -14.708  -2.876  0.00  0.00     0.112 C 
ENDROOT
BRANCH   3   6
ATOM      6  N   UNL d   1      28.178 -14.695  -5.374  0.00  0.00    -0.385 N 
ATOM      7  H   UNL d   1      28.750 -15.331  -4.833  0.00  0.00     0.160 HD
BRANCH   6   8
ATOM      8  C   UNL d   1      28.804 -14.020  -6.412  0.00  0.00     0.028 A 
ATOM      9  C   UNL d   1      30.141 -14.291  -6.728  0.00  0.00     0.029 A 
ATOM     10  C   UNL d   1      30.810 -13.550  -7.714  0.00  0.00     0.002 A 
ATOM     11  C   UNL d   1      30.146 -12.560  -8.428  0.00  0.00     0.000 A 
ATOM     12  C   UNL d   1      28.813 -12.291  -8.145  0.00  0.00     0.002 A 
ATOM     13  C   UNL d   1      28.169 -13.013  -7.139  0.00  0.00     0.029 A 
ENDBRANCH   6   8
ENDBRANCH   3   6
BRANCH   1  14
ATOM     14  O   UNL d   1      24.053 -13.702  -4.456  0.00  0.00    -0.393 OA
ATOM     15  H   UNL d   1      24.028 -12.999  -5.129  0.00  0.00     0.210 HD
ENDBRANCH   1  14
BRANCH   5  16
ATOM     16  N   UNL d   1      24.645 -15.441  -2.112  0.00  0.00    -0.383 N 
ATOM     17  H   UNL d   1      23.821 -14.908  -1.847  0.00  0.00     0.160 HD
BRANCH  16  18
ATOM     18  C   UNL d   1      25.018 -16.382  -1.150  0.00  0.00     0.028 A 
ATOM     19  C   UNL d   1      26.336 -16.334  -0.684  0.00  0.00     0.029 A 
ATOM     20  C   UNL d   1      26.817 -17.272   0.236  0.00  0.00     0.002 A 
ATOM     21  C   UNL d   1      25.984 -18.273   0.719  0.00  0.00     0.000 A 
ATOM     22  C   UNL d   1      24.685 -18.371   0.236  0.00  0.00     0.002 A 
ATOM     23  C   UNL d   1      24.233 -17.456  -0.722  0.00  0.00     0.029 A 
ENDBRANCH  16  18
ENDBRANCH   5  16
TORSDOF 5
ENDMDL
MODEL 8
REMARK VINA RESULT:    -6.036      4.733      7.707
REMARK INTER + INTRA:          -8.381
REMARK INTER:                  -7.528
REMARK INTRA:                  -0.853
REMARK CONF_INDEPENDENT:        1.492
REMARK UNBOUND:                -0.853
REMARK  5 active torsions:
REMARK  status: ('A' for Active; 'I' for Inactive)
REMARK    1  A    between atoms: O_1  and  C_2 
REMARK    2  A    between atoms: C_4  and  N_5 
REMARK    3  A    between atoms: N_5  and  C_6 
REMARK    4  A    between atoms: C_13  and  N_14 
REMARK    5  A    between atoms: N_14  and  C_15 
ROOT
ATOM      1  C   UNL d   1      27.868 -15.791   1.093  0.00  0.00     0.142 C 
ATOM      2  C   UNL d   1      27.192 -16.761   0.162  0.00  0.00     0.059 C 
ATOM      3  C   UNL d   1      26.917 -15.945  -1.098  0.00  0.00     0.086 C 
ATOM      4  C   UNL d   1      26.764 -14.487  -0.599  0.00  0.00     0.052 C 
ATOM      5  C   UNL d   1      26.994 -14.545   0.926  0.00  0.00     0.112 C 
ENDROOT
BRANCH   3   6
ATOM      6  N   UNL d   1      25.737 -16.414  -1.817  0.00  0.00    -0.385 N 
ATOM      7  H   UNL d   1      25.720 -16.371  -2.828  0.00  0.00     0.160 HD
BRANCH   6   8
ATOM      8  C   UNL d   1      24.634 -16.983  -1.197  0.00  0.00     0.028 A 
ATOM      9  C   UNL d   1      24.697 -18.290  -0.699  0.00  0.00     0.029 A 
ATOM     10  C   UNL d   1      23.561 -18.906  -0.152  0.00  0.00     0.002 A 
ATOM     11  C   UNL d   1      22.359 -18.215  -0.054  0.00  0.00     0.000 A 
ATOM     12  C   UNL d   1      22.282 -16.910  -0.522  0.00  0.00     0.002 A 
ATOM     13  C   UNL d   1      23.410 -16.320  -1.094  0.00  0.00     0.029 A 
ENDBRANCH   6   8
ENDBRANCH   3   6
BRANCH   1  14
ATOM     14  O   UNL d   1      29.211 -15.590   0.652  0.00  0.00    -0.393 OA
ATOM     15  H   UNL d   1      29.796 -15.860   1.382  0.00  0.00     0.210 HD
ENDBRANCH   1  14
BRANCH   5  16
ATOM     16  N   UNL d   1      27.510 -13.282   1.459  0.00  0.00    -0.383 N 
ATOM     17  H   UNL d   1      28.265 -12.856   0.928  0.00  0.00     0.160 HD
BRANCH  16  18
ATOM     18  C   UNL d   1      27.631 -13.084   2.835  0.00  0.00     0.028 A 
ATOM     19  C   UNL d   1      27.961 -11.796   3.272  0.00  0.00     0.029 A 
ATOM     20  C   UNL d   1      28.161 -11.516   4.628  0.00  0.00     0.002 A 
ATOM     21  C   UNL d   1      28.021 -12.518   5.579  0.00  0.00     0.000 A 
ATOM     22  C   UNL d   1      27.740 -13.815   5.169  0.00  0.00     0.002 A 
ATOM     23  C   UNL d   1      27.593 -14.091   3.804  0.00  0.00     0.029 A 
ENDBRANCH  16  18
ENDBRANCH   5  16
TORSDOF 5
ENDMDL
MODEL 9
REMARK VINA RESULT:    -5.926      2.463      7.772
REMARK INTER + INTRA:          -8.354
REMARK INTER:                  -7.417
REMARK INTRA:                  -0.937
REMARK CONF_INDEPENDENT:        1.492
REMARK UNBOUND:                -0.937
REMARK  5 active torsions:
REMARK  status: ('A' for Active; 'I' for Inactive)
REMARK    1  A    between atoms: O_1  and  C_2 
REMARK    2  A    between atoms: C_4  and  N_5 
REMARK    3  A    between atoms: N_5  and  C_6 
REMARK    4  A    between atoms: C_13  and  N_14 
REMARK    5  A    between atoms: N_14  and  C_15 
ROOT
ATOM      1  C   UNL d   1      26.283 -13.892  -1.708  0.00  0.00     0.142 C 
ATOM      2  C   UNL d   1      26.354 -14.882  -0.576  0.00  0.00     0.059 C 
ATOM      3  C   UNL d   1      26.444 -16.239  -1.267  0.00  0.00     0.086 C 
ATOM      4  C   UNL d   1      25.714 -16.044  -2.619  0.00  0.00     0.052 C 
ATOM      5  C   UNL d   1      25.272 -14.565  -2.640  0.00  0.00     0.112 C 
ENDROOT
BRANCH   3   6
ATOM      6  N   UNL d   1      25.858 -17.310  -0.468  0.00  0.00    -0.385 N 
ATOM      7  H   UNL d   1      26.447 -17.842   0.160  0.00  0.00     0.160 HD
BRANCH   6   8
ATOM      8  C   UNL d   1      24.505 -17.616  -0.467  0.00  0.00     0.028 A 
ATOM      9  C   UNL d   1      24.082 -18.951  -0.491  0.00  0.00     0.029 A 
ATOM     10  C   UNL d   1      22.718 -19.269  -0.582  0.00  0.00     0.002 A 
ATOM     11  C   UNL d   1      21.757 -18.267  -0.606  0.00  0.00     0.000 A 
ATOM     12  C   UNL d   1      22.155 -16.937  -0.560  0.00  0.00     0.002 A 
ATOM     13  C   UNL d   1      23.516 -16.633  -0.503  0.00  0.00     0.029 A 
ENDBRANCH   6   8
ENDBRANCH   3   6
BRANCH   1  14
ATOM     14  O   UNL d   1      27.578 -13.766  -2.291  0.00  0.00    -0.393 OA
ATOM     15  H   UNL d   1      27.552 -12.996  -2.886  0.00  0.00     0.210 HD
ENDBRANCH   1  14
BRANCH   5  16
ATOM     16  N   UNL d   1      25.156 -14.039  -4.002  0.00  0.00    -0.383 N 
ATOM     17  H   UNL d   1      24.327 -14.325  -4.516  0.00  0.00     0.160 HD
BRANCH  16  18
ATOM     18  C   UNL d   1      26.283 -13.909  -4.816  0.00  0.00     0.028 A 
ATOM     19  C   UNL d   1      26.597 -12.626  -5.277  0.00  0.00     0.029 A 
ATOM     20  C   UNL d   1      27.673 -12.407  -6.145  0.00  0.00     0.002 A 
ATOM     21  C   UNL d   1      28.467 -13.468  -6.559  0.00  0.00     0.000 A 
ATOM     22  C   UNL d   1      28.149 -14.759  -6.153  0.00  0.00     0.002 A 
ATOM     23  C   UNL d   1      27.039 -14.969  -5.327  0.00  0.00     0.029 A 
ENDBRANCH  16  18
ENDBRANCH   5  16
TORSDOF 5
ENDMDL
