MODEL 1
REMARK VINA RESULT:    -7.197      0.000      0.000
REMARK INTER + INTRA:          -9.592
REMARK INTER:                  -8.688
REMARK INTRA:                  -0.904
REMARK CONF_INDEPENDENT:        1.492
REMARK UNBOUND:                -0.904
REMARK  5 active torsions:
REMARK  status: ('A' for Active; 'I' for Inactive)
REMARK    1  A    between atoms: O_2  and  C_3 
REMARK    2  A    between atoms: C_10  and  N_11 
REMARK       I    between atoms: N_11  and  C_12 
REMARK    3  A    between atoms: C_12  and  C_14 
REMARK    4  A    between atoms: C_17  and  C_18 
REMARK    5  A    between atoms: C_18  and  N_19 
ROOT
ATOM      1  N   UNL d   1      25.671 -16.335  -2.629  0.00  0.00    -0.320 N 
ATOM      2  C   UNL d   1      25.589 -16.722  -1.307  0.00  0.00     0.256 C 
ATOM      3  O   UNL d   1      26.467 -16.633  -0.449  0.00  0.00    -0.267 OA
ATOM      4  H   UNL d   1      24.881 -16.542  -3.218  0.00  0.00     0.169 HD
ENDROOT
BRANCH   2   5
ATOM      5  C   UNL d   1      24.310 -17.299  -0.840  0.00  0.00     0.032 A 
ATOM      6  C   UNL d   1      24.318 -18.646  -0.452  0.00  0.00     0.018 A 
ATOM      7  C   UNL d   1      23.121 -19.328  -0.225  0.00  0.00     0.015 A 
ATOM      8  C   UNL d   1      21.895 -18.651  -0.279  0.00  0.00     0.001 A 
ATOM      9  C   UNL d   1      21.906 -17.294  -0.661  0.00  0.00     0.015 A 
ATOM     10  C   UNL d   1      23.102 -16.617  -0.943  0.00  0.00     0.018 A 
BRANCH   8  11
ATOM     11  C   UNL d   1      20.615 -19.339   0.109  0.00  0.00     0.104 C 
ATOM     12  S   UNL d   1      19.286 -19.563  -0.887  0.00  0.00    -0.060 SA
BRANCH  11  13
ATOM     13  N   UNL d   1      20.479 -19.786   1.403  0.00  0.00    -0.390 N 
ATOM     14  H   UNL d   1      21.035 -20.500   1.849  0.00  0.00     0.157 HD
ATOM     15  H   UNL d   1      19.791 -19.328   1.991  0.00  0.00     0.157 HD
ENDBRANCH  11  13
ENDBRANCH   8  11
ENDBRANCH   2   5
BRANCH   1  16
ATOM     16  C   UNL d   1      26.766 -15.672  -3.247  0.00  0.00     0.069 A 
ATOM     17  C   UNL d   1      28.074 -15.914  -2.798  0.00  0.00     0.041 A 
ATOM     18  C   UNL d   1      29.218 -15.368  -3.398  0.00  0.00    -0.038 A 
ATOM     19  C   UNL d   1      29.038 -14.532  -4.495  0.00  0.00     0.042 A 
ATOM     20  C   UNL d   1      30.545 -15.758  -2.805  0.00  0.00     0.050 C 
ATOM     21  C   UNL d   1      27.742 -14.262  -4.969  0.00  0.00     0.063 A 
ATOM     22 CL   UNL d   1      30.380 -13.801  -5.301  0.00  0.00    -0.084 Cl
ATOM     23  C   UNL d   1      26.599 -14.808  -4.344  0.00  0.00     0.096 A 
BRANCH  23  24
ATOM     24  O   UNL d   1      25.404 -14.531  -4.967  0.00  0.00    -0.354 OA
ATOM     25  C   UNL d   1      24.475 -13.703  -4.268  0.00  0.00     0.210 C 
ENDBRANCH  23  24
ENDBRANCH   1  16
TORSDOF 5
ENDMDL
MODEL 2
REMARK VINA RESULT:    -6.984      2.418      3.861
REMARK INTER + INTRA:          -9.268
REMARK INTER:                  -8.476
REMARK INTRA:                  -0.793
REMARK CONF_INDEPENDENT:        1.492
REMARK UNBOUND:                -0.793
REMARK  5 active torsions:
REMARK  status: ('A' for Active; 'I' for Inactive)
REMARK    1  A    between atoms: O_2  and  C_3 
REMARK    2  A    between atoms: C_10  and  N_11 
REMARK       I    between atoms: N_11  and  C_12 
REMARK    3  A    between atoms: C_12  and  C_14 
REMARK    4  A    between atoms: C_17  and  C_18 
REMARK    5  A    between atoms: C_18  and  N_19 
ROOT
ATOM      1  N   UNL d   1      23.448 -16.984  -0.941  0.00  0.00    -0.320 N 
ATOM      2  C   UNL d   1      22.922 -18.180  -1.386  0.00  0.00     0.256 C 
ATOM      3  O   UNL d   1      23.367 -18.903  -2.279  0.00  0.00    -0.267 OA
ATOM      4  H   UNL d   1      22.921 -16.482  -0.246  0.00  0.00     0.169 HD
ENDROOT
BRANCH   2   5
ATOM      5  C   UNL d   1      21.697 -18.679  -0.725  0.00  0.00     0.032 A 
ATOM      6  C   UNL d   1      21.673 -18.663   0.675  0.00  0.00     0.018 A 
ATOM      7  C   UNL d   1      20.663 -19.325   1.377  0.00  0.00     0.015 A 
ATOM      8  C   UNL d   1      19.600 -19.930   0.693  0.00  0.00     0.001 A 
ATOM      9  C   UNL d   1      19.635 -19.928  -0.717  0.00  0.00     0.015 A 
ATOM     10  C   UNL d   1      20.674 -19.310  -1.427  0.00  0.00     0.018 A 
BRANCH   8  11
ATOM     11  C   UNL d   1      18.434 -20.514   1.441  0.00  0.00     0.104 C 
ATOM     12  S   UNL d   1      17.655 -21.950   1.066  0.00  0.00    -0.060 SA
BRANCH  11  13
ATOM     13  N   UNL d   1      17.909 -19.803   2.495  0.00  0.00    -0.390 N 
ATOM     14  H   UNL d   1      17.378 -18.948   2.431  0.00  0.00     0.157 HD
ATOM     15  H   UNL d   1      18.018 -20.190   3.427  0.00  0.00     0.157 HD
ENDBRANCH  11  13
ENDBRANCH   8  11
ENDBRANCH   2   5
BRANCH   1  16
ATOM     16  C   UNL d   1      24.664 -16.386  -1.370  0.00  0.00     0.069 A 
ATOM     17  C   UNL d   1      24.645 -15.401  -2.371  0.00  0.00     0.041 A 
ATOM     18  C   UNL d   1      25.783 -14.702  -2.799  0.00  0.00    -0.038 A 
ATOM     19  C   UNL d   1      26.999 -15.015  -2.199  0.00  0.00     0.042 A 
ATOM     20  C   UNL d   1      25.575 -13.658  -3.863  0.00  0.00     0.050 C 
ATOM     21  C   UNL d   1      27.057 -16.000  -1.198  0.00  0.00     0.063 A 
ATOM     22 CL   UNL d   1      28.461 -14.220  -2.661  0.00  0.00    -0.084 Cl
ATOM     23  C   UNL d   1      25.904 -16.705  -0.788  0.00  0.00     0.096 A 
BRANCH  23  24
ATOM     24  O   UNL d   1      26.093 -17.575   0.260  0.00  0.00    -0.354 OA
ATOM     25  C   UNL d   1      27.267 -18.387   0.237  0.00  0.00     0.210 C 
ENDBRANCH  23  24
ENDBRANCH   1  16
TORSDOF 5
ENDMDL
MODEL 3
REMARK VINA RESULT:    -6.851      2.939      3.588
REMARK INTER + INTRA:          -9.119
REMARK INTER:                  -8.343
REMARK INTRA:                  -0.777
REMARK CONF_INDEPENDENT:        1.492
REMARK UNBOUND:                -0.777
REMARK  5 active torsions:
REMARK  status: ('A' for Active; 'I' for Inactive)
REMARK    1  A    between atoms: O_2  and  C_3 
REMARK    2  A    between atoms: C_10  and  N_11 
REMARK       I    between atoms: N_11  and  C_12 
REMARK    3  A    between atoms: C_12  and  C_14 
REMARK    4  A    between atoms: C_17  and  C_18 
REMARK    5  A    between atoms: C_18  and  N_19 
ROOT
ATOM      1  N   UNL d   1      26.365 -16.883   0.220  0.00  0.00    -0.320 N 
ATOM      2  C   UNL d   1      25.467 -16.802  -0.826  0.00  0.00     0.256 C 
ATOM      3  O   UNL d   1      25.671 -16.337  -1.948  0.00  0.00    -0.267 OA
ATOM      4  H   UNL d   1      26.016 -17.230   1.097  0.00  0.00     0.169 HD
ENDROOT
BRANCH   2   5
ATOM      5  C   UNL d   1      24.107 -17.339  -0.605  0.00  0.00     0.032 A 
ATOM      6  C   UNL d   1      24.003 -18.678  -0.209  0.00  0.00     0.018 A 
ATOM      7  C   UNL d   1      22.766 -19.326  -0.206  0.00  0.00     0.015 A 
ATOM      8  C   UNL d   1      21.592 -18.619  -0.500  0.00  0.00     0.001 A 
ATOM      9  C   UNL d   1      21.714 -17.269  -0.888  0.00  0.00     0.015 A 
ATOM     10  C   UNL d   1      22.960 -16.628  -0.944  0.00  0.00     0.018 A 
BRANCH   8  11
ATOM     11  C   UNL d   1      20.243 -19.268  -0.355  0.00  0.00     0.104 C 
ATOM     12  S   UNL d   1      19.931 -20.697   0.463  0.00  0.00    -0.060 SA
BRANCH  11  13
ATOM     13  N   UNL d   1      19.167 -18.687  -0.983  0.00  0.00    -0.390 N 
ATOM     14  H   UNL d   1      18.261 -19.108  -1.126  0.00  0.00     0.157 HD
ATOM     15  H   UNL d   1      19.263 -17.725  -1.293  0.00  0.00     0.157 HD
ENDBRANCH  11  13
ENDBRANCH   8  11
ENDBRANCH   2   5
BRANCH   1  16
ATOM     16  C   UNL d   1      27.738 -16.520   0.181  0.00  0.00     0.069 A 
ATOM     17  C   UNL d   1      28.642 -17.280  -0.579  0.00  0.00     0.041 A 
ATOM     18  C   UNL d   1      29.996 -16.951  -0.739  0.00  0.00    -0.038 A 
ATOM     19  C   UNL d   1      30.465 -15.809  -0.096  0.00  0.00     0.042 A 
ATOM     20  C   UNL d   1      30.815 -17.861  -1.614  0.00  0.00     0.050 C 
ATOM     21  C   UNL d   1      29.590 -15.028   0.678  0.00  0.00     0.063 A 
ATOM     22 CL   UNL d   1      32.118 -15.321  -0.221  0.00  0.00    -0.084 Cl
ATOM     23  C   UNL d   1      28.233 -15.381   0.841  0.00  0.00     0.096 A 
BRANCH  23  24
ATOM     24  O   UNL d   1      27.476 -14.479   1.552  0.00  0.00    -0.354 OA
ATOM     25  C   UNL d   1      28.154 -13.367   2.136  0.00  0.00     0.210 C 
ENDBRANCH  23  24
ENDBRANCH   1  16
TORSDOF 5
ENDMDL
MODEL 4
REMARK VINA RESULT:    -6.623      1.724      2.303
REMARK INTER + INTRA:          -8.898
REMARK INTER:                  -8.114
REMARK INTRA:                  -0.784
REMARK CONF_INDEPENDENT:        1.492
REMARK UNBOUND:                -0.784
REMARK  5 active torsions:
REMARK  status: ('A' for Active; 'I' for Inactive)
REMARK    1  A    between atoms: O_2  and  C_3 
REMARK    2  A    between atoms: C_10  and  N_11 
REMARK       I    between atoms: N_11  and  C_12 
REMARK    3  A    between atoms: C_12  and  C_14 
REMARK    4  A    between atoms: C_17  and  C_18 
REMARK    5  A    between atoms: C_18  and  N_19 
ROOT
ATOM      1  N   UNL d   1      25.606 -15.911  -2.258  0.00  0.00    -0.320 N 
ATOM      2  C   UNL d   1      25.508 -16.680  -1.115  0.00  0.00     0.256 C 
ATOM      3  O   UNL d   1      26.402 -16.927  -0.305  0.00  0.00    -0.267 OA
ATOM      4  H   UNL d   1      24.794 -15.865  -2.850  0.00  0.00     0.169 HD
ENDROOT
BRANCH   2   5
ATOM      5  C   UNL d   1      24.191 -17.272  -0.798  0.00  0.00     0.032 A 
ATOM      6  C   UNL d   1      24.150 -18.651  -0.554  0.00  0.00     0.018 A 
ATOM      7  C   UNL d   1      22.929 -19.325  -0.481  0.00  0.00     0.015 A 
ATOM      8  C   UNL d   1      21.721 -18.619  -0.547  0.00  0.00     0.001 A 
ATOM      9  C   UNL d   1      21.780 -17.230  -0.783  0.00  0.00     0.015 A 
ATOM     10  C   UNL d   1      23.003 -16.555  -0.911  0.00  0.00     0.018 A 
BRANCH   8  11
ATOM     11  C   UNL d   1      20.407 -19.314  -0.320  0.00  0.00     0.104 C 
ATOM     12  S   UNL d   1      19.964 -20.133   1.074  0.00  0.00    -0.060 SA
BRANCH  11  13
ATOM     13  N   UNL d   1      19.494 -19.339  -1.349  0.00  0.00    -0.390 N 
ATOM     14  H   UNL d   1      19.707 -19.325  -2.334  0.00  0.00     0.157 HD
ATOM     15  H   UNL d   1      18.512 -19.430  -1.107  0.00  0.00     0.157 HD
ENDBRANCH  11  13
ENDBRANCH   8  11
ENDBRANCH   2   5
BRANCH   1  16
ATOM     16  C   UNL d   1      26.745 -15.176  -2.684  0.00  0.00     0.069 A 
ATOM     17  C   UNL d   1      27.139 -15.215  -4.032  0.00  0.00     0.041 A 
ATOM     18  C   UNL d   1      28.199 -14.461  -4.557  0.00  0.00    -0.038 A 
ATOM     19  C   UNL d   1      28.902 -13.638  -3.683  0.00  0.00     0.042 A 
ATOM     20  C   UNL d   1      28.464 -14.602  -6.031  0.00  0.00     0.050 C 
ATOM     21  C   UNL d   1      28.540 -13.578  -2.326  0.00  0.00     0.063 A 
ATOM     22 CL   UNL d   1      30.231 -12.676  -4.226  0.00  0.00    -0.084 Cl
ATOM     23  C   UNL d   1      27.479 -14.355  -1.810  0.00  0.00     0.096 A 
BRANCH  23  24
ATOM     24  O   UNL d   1      27.181 -14.130  -0.487  0.00  0.00    -0.354 OA
ATOM     25  C   UNL d   1      28.143 -14.541   0.484  0.00  0.00     0.210 C 
ENDBRANCH  23  24
ENDBRANCH   1  16
TORSDOF 5
ENDMDL
MODEL 5
REMARK VINA RESULT:    -6.587      5.196      8.821
REMARK INTER + INTRA:          -8.838
REMARK INTER:                  -8.079
REMARK INTRA:                  -0.759
REMARK CONF_INDEPENDENT:        1.492
REMARK UNBOUND:                -0.759
REMARK  5 active torsions:
REMARK  status: ('A' for Active; 'I' for Inactive)
REMARK    1  A    between atoms: O_2  and  C_3 
REMARK    2  A    between atoms: C_10  and  N_11 
REMARK       I    between atoms: N_11  and  C_12 
REMARK    3  A    between atoms: C_12  and  C_14 
REMARK    4  A    between atoms: C_17  and  C_18 
REMARK    5  A    between atoms: C_18  and  N_19 
ROOT
ATOM      1  N   UNL d   1      27.780 -15.391  -3.693  0.00  0.00    -0.320 N 
ATOM      2  C   UNL d   1      27.662 -15.228  -5.059  0.00  0.00     0.256 C 
ATOM      3  O   UNL d   1      26.719 -15.574  -5.772  0.00  0.00    -0.267 OA
ATOM      4  H   UNL d   1      28.651 -15.113  -3.272  0.00  0.00     0.169 HD
ENDROOT
BRANCH   2   5
ATOM      5  C   UNL d   1      28.771 -14.553  -5.767  0.00  0.00     0.032 A 
ATOM      6  C   UNL d   1      28.429 -13.562  -6.696  0.00  0.00     0.018 A 
ATOM      7  C   UNL d   1      29.388 -13.045  -7.570  0.00  0.00     0.015 A 
ATOM      8  C   UNL d   1      30.730 -13.433  -7.465  0.00  0.00     0.001 A 
ATOM      9  C   UNL d   1      31.059 -14.425  -6.518  0.00  0.00     0.015 A 
ATOM     10  C   UNL d   1      30.090 -14.986  -5.673  0.00  0.00     0.018 A 
BRANCH   8  11
ATOM     11  C   UNL d   1      31.792 -12.773  -8.300  0.00  0.00     0.104 C 
ATOM     12  S   UNL d   1      32.859 -11.594  -7.769  0.00  0.00    -0.060 SA
BRANCH  11  13
ATOM     13  N   UNL d   1      31.882 -13.111  -9.630  0.00  0.00    -0.390 N 
ATOM     14  H   UNL d   1      32.634 -12.868 -10.257  0.00  0.00     0.157 HD
ATOM     15  H   UNL d   1      31.154 -13.701 -10.019  0.00  0.00     0.157 HD
ENDBRANCH  11  13
ENDBRANCH   8  11
ENDBRANCH   2   5
BRANCH   1  16
ATOM     16  C   UNL d   1      26.792 -15.919  -2.819  0.00  0.00     0.069 A 
ATOM     17  C   UNL d   1      27.177 -16.703  -1.718  0.00  0.00     0.041 A 
ATOM     18  C   UNL d   1      26.280 -17.197  -0.761  0.00  0.00    -0.038 A 
ATOM     19  C   UNL d   1      24.931 -16.898  -0.923  0.00  0.00     0.042 A 
ATOM     20  C   UNL d   1      26.869 -17.994   0.371  0.00  0.00     0.050 C 
ATOM     21  C   UNL d   1      24.507 -16.121  -2.016  0.00  0.00     0.063 A 
ATOM     22 CL   UNL d   1      23.742 -17.466   0.195  0.00  0.00    -0.084 Cl
ATOM     23  C   UNL d   1      25.423 -15.643  -2.980  0.00  0.00     0.096 A 
BRANCH  23  24
ATOM     24  O   UNL d   1      24.881 -14.825  -3.943  0.00  0.00    -0.354 OA
ATOM     25  C   UNL d   1      24.908 -13.418  -3.702  0.00  0.00     0.210 C 
ENDBRANCH  23  24
ENDBRANCH   1  16
TORSDOF 5
ENDMDL
MODEL 6
REMARK VINA RESULT:    -6.374      6.618      7.818
REMARK INTER + INTRA:          -8.725
REMARK INTER:                  -7.866
REMARK INTRA:                  -0.859
REMARK CONF_INDEPENDENT:        1.492
REMARK UNBOUND:                -0.859
REMARK  5 active torsions:
REMARK  status: ('A' for Active; 'I' for Inactive)
REMARK    1  A    between atoms: O_2  and  C_3 
REMARK    2  A    between atoms: C_10  and  N_11 
REMARK       I    between atoms: N_11  and  C_12 
REMARK    3  A    between atoms: C_12  and  C_14 
REMARK    4  A    between atoms: C_17  and  C_18 
REMARK    5  A    between atoms: C_18  and  N_19 
ROOT
ATOM      1  N   UNL d   1      27.476 -14.748   1.560  0.00  0.00    -0.320 N 
ATOM      2  C   UNL d   1      27.233 -13.678   2.397  0.00  0.00     0.256 C 
ATOM      3  O   UNL d   1      26.668 -12.622   2.111  0.00  0.00    -0.267 OA
ATOM      4  H   UNL d   1      28.013 -15.511   1.935  0.00  0.00     0.169 HD
ENDROOT
BRANCH   2   5
ATOM      5  C   UNL d   1      27.678 -13.792   3.802  0.00  0.00     0.032 A 
ATOM      6  C   UNL d   1      27.782 -12.606   4.540  0.00  0.00     0.018 A 
ATOM      7  C   UNL d   1      28.413 -12.596   5.786  0.00  0.00     0.015 A 
ATOM      8  C   UNL d   1      28.861 -13.789   6.367  0.00  0.00     0.001 A 
ATOM      9  C   UNL d   1      28.740 -14.976   5.615  0.00  0.00     0.015 A 
ATOM     10  C   UNL d   1      28.155 -14.984   4.340  0.00  0.00     0.018 A 
BRANCH   8  11
ATOM     11  C   UNL d   1      29.405 -13.810   7.769  0.00  0.00     0.104 C 
ATOM     12  S   UNL d   1      28.711 -13.056   9.096  0.00  0.00    -0.060 SA
BRANCH  11  13
ATOM     13  N   UNL d   1      30.600 -14.450   7.997  0.00  0.00    -0.390 N 
ATOM     14  H   UNL d   1      30.724 -15.323   8.487  0.00  0.00     0.157 HD
ATOM     15  H   UNL d   1      31.439 -14.041   7.599  0.00  0.00     0.157 HD
ENDBRANCH  11  13
ENDBRANCH   8  11
ENDBRANCH   2   5
BRANCH   1  16
ATOM     16  C   UNL d   1      27.043 -14.880   0.213  0.00  0.00     0.069 A 
ATOM     17  C   UNL d   1      26.951 -13.743  -0.607  0.00  0.00     0.041 A 
ATOM     18  C   UNL d   1      26.612 -13.788  -1.967  0.00  0.00    -0.038 A 
ATOM     19  C   UNL d   1      26.342 -15.033  -2.527  0.00  0.00     0.042 A 
ATOM     20  C   UNL d   1      26.590 -12.475  -2.703  0.00  0.00     0.050 C 
ATOM     21  C   UNL d   1      26.418 -16.192  -1.735  0.00  0.00     0.063 A 
ATOM     22 CL   UNL d   1      25.905 -15.197  -4.190  0.00  0.00    -0.084 Cl
ATOM     23  C   UNL d   1      26.747 -16.128  -0.363  0.00  0.00     0.096 A 
BRANCH  23  24
ATOM     24  O   UNL d   1      26.871 -17.346   0.265  0.00  0.00    -0.354 OA
ATOM     25  C   UNL d   1      25.729 -18.202   0.270  0.00  0.00     0.210 C 
ENDBRANCH  23  24
ENDBRANCH   1  16
TORSDOF 5
ENDMDL
MODEL 7
REMARK VINA RESULT:    -6.333      1.627      2.068
REMARK INTER + INTRA:          -8.693
REMARK INTER:                  -7.825
REMARK INTRA:                  -0.868
REMARK CONF_INDEPENDENT:        1.492
REMARK UNBOUND:                -0.868
REMARK  5 active torsions:
REMARK  status: ('A' for Active; 'I' for Inactive)
REMARK    1  A    between atoms: O_2  and  C_3 
REMARK    2  A    between atoms: C_10  and  N_11 
REMARK       I    between atoms: N_11  and  C_12 
REMARK    3  A    between atoms: C_12  and  C_14 
REMARK    4  A    between atoms: C_17  and  C_18 
REMARK    5  A    between atoms: C_18  and  N_19 
ROOT
ATOM      1  N   UNL d   1      26.240 -16.231  -1.815  0.00  0.00    -0.320 N 
ATOM      2  C   UNL d   1      25.868 -16.919  -0.677  0.00  0.00     0.256 C 
ATOM      3  O   UNL d   1      26.527 -17.068   0.352  0.00  0.00    -0.267 OA
ATOM      4  H   UNL d   1      25.608 -16.264  -2.597  0.00  0.00     0.169 HD
ENDROOT
BRANCH   2   5
ATOM      5  C   UNL d   1      24.529 -17.545  -0.661  0.00  0.00     0.032 A 
ATOM      6  C   UNL d   1      23.423 -16.697  -0.805  0.00  0.00     0.018 A 
ATOM      7  C   UNL d   1      22.129 -17.168  -0.569  0.00  0.00     0.015 A 
ATOM      8  C   UNL d   1      21.905 -18.522  -0.285  0.00  0.00     0.001 A 
ATOM      9  C   UNL d   1      23.029 -19.364  -0.154  0.00  0.00     0.015 A 
ATOM     10  C   UNL d   1      24.334 -18.885  -0.338  0.00  0.00     0.018 A 
BRANCH   8  11
ATOM     11  C   UNL d   1      20.508 -19.067  -0.177  0.00  0.00     0.104 C 
ATOM     12  S   UNL d   1      20.051 -20.409   0.717  0.00  0.00    -0.060 SA
BRANCH  11  13
ATOM     13  N   UNL d   1      19.512 -18.462  -0.906  0.00  0.00    -0.390 N 
ATOM     14  H   UNL d   1      19.617 -17.661  -1.510  0.00  0.00     0.157 HD
ATOM     15  H   UNL d   1      18.587 -18.881  -0.882  0.00  0.00     0.157 HD
ENDBRANCH  11  13
ENDBRANCH   8  11
ENDBRANCH   2   5
BRANCH   1  16
ATOM     16  C   UNL d   1      27.432 -15.480  -1.993  0.00  0.00     0.069 A 
ATOM     17  C   UNL d   1      28.230 -15.157  -0.882  0.00  0.00     0.041 A 
ATOM     18  C   UNL d   1      29.460 -14.490  -0.973  0.00  0.00    -0.038 A 
ATOM     19  C   UNL d   1      29.905 -14.121  -2.239  0.00  0.00     0.042 A 
ATOM     20  C   UNL d   1      30.197 -14.252   0.317  0.00  0.00     0.050 C 
ATOM     21  C   UNL d   1      29.131 -14.422  -3.373  0.00  0.00     0.063 A 
ATOM     22 CL   UNL d   1      31.402 -13.288  -2.459  0.00  0.00    -0.084 Cl
ATOM     23  C   UNL d   1      27.887 -15.082  -3.263  0.00  0.00     0.096 A 
BRANCH  23  24
ATOM     24  O   UNL d   1      27.281 -15.389  -4.459  0.00  0.00    -0.354 OA
ATOM     25  C   UNL d   1      26.014 -14.790  -4.728  0.00  0.00     0.210 C 
ENDBRANCH  23  24
ENDBRANCH   1  16
TORSDOF 5
ENDMDL
MODEL 8
REMARK VINA RESULT:    -6.156      7.043      8.095
REMARK INTER + INTRA:          -8.471
REMARK INTER:                  -7.648
REMARK INTRA:                  -0.824
REMARK CONF_INDEPENDENT:        1.492
REMARK UNBOUND:                -0.824
REMARK  5 active torsions:
REMARK  status: ('A' for Active; 'I' for Inactive)
REMARK    1  A    between atoms: O_2  and  C_3 
REMARK    2  A    between atoms: C_10  and  N_11 
REMARK       I    between atoms: N_11  and  C_12 
REMARK    3  A    between atoms: C_12  and  C_14 
REMARK    4  A    between atoms: C_17  and  C_18 
REMARK    5  A    between atoms: C_18  and  N_19 
ROOT
ATOM      1  N   UNL d   1      27.899 -14.846   1.941  0.00  0.00    -0.320 N 
ATOM      2  C   UNL d   1      27.535 -13.867   2.845  0.00  0.00     0.256 C 
ATOM      3  O   UNL d   1      26.823 -12.885   2.632  0.00  0.00    -0.267 OA
ATOM      4  H   UNL d   1      28.546 -15.547   2.260  0.00  0.00     0.169 HD
ENDROOT
BRANCH   2   5
ATOM      5  C   UNL d   1      28.030 -13.997   4.232  0.00  0.00     0.032 A 
ATOM      6  C   UNL d   1      27.506 -13.114   5.185  0.00  0.00     0.018 A 
ATOM      7  C   UNL d   1      28.082 -13.012   6.453  0.00  0.00     0.015 A 
ATOM      8  C   UNL d   1      29.129 -13.863   6.830  0.00  0.00     0.001 A 
ATOM      9  C   UNL d   1      29.638 -14.753   5.861  0.00  0.00     0.015 A 
ATOM     10  C   UNL d   1      29.098 -14.823   4.569  0.00  0.00     0.018 A 
BRANCH   8  11
ATOM     11  C   UNL d   1      29.656 -13.863   8.238  0.00  0.00     0.104 C 
ATOM     12  S   UNL d   1      29.038 -12.963   9.510  0.00  0.00    -0.060 SA
BRANCH  11  13
ATOM     13  N   UNL d   1      30.771 -14.616   8.520  0.00  0.00    -0.390 N 
ATOM     14  H   UNL d   1      30.779 -15.577   8.828  0.00  0.00     0.157 HD
ATOM     15  H   UNL d   1      31.680 -14.193   8.360  0.00  0.00     0.157 HD
ENDBRANCH  11  13
ENDBRANCH   8  11
ENDBRANCH   2   5
BRANCH   1  16
ATOM     16  C   UNL d   1      27.452 -14.960   0.597  0.00  0.00     0.069 A 
ATOM     17  C   UNL d   1      26.578 -15.999   0.235  0.00  0.00     0.041 A 
ATOM     18  C   UNL d   1      26.024 -16.141  -1.045  0.00  0.00    -0.038 A 
ATOM     19  C   UNL d   1      26.373 -15.201  -2.010  0.00  0.00     0.042 A 
ATOM     20  C   UNL d   1      25.082 -17.297  -1.250  0.00  0.00     0.050 C 
ATOM     21  C   UNL d   1      27.249 -14.151  -1.686  0.00  0.00     0.063 A 
ATOM     22 CL   UNL d   1      25.753 -15.292  -3.620  0.00  0.00    -0.084 Cl
ATOM     23  C   UNL d   1      27.810 -14.030  -0.395  0.00  0.00     0.096 A 
BRANCH  23  24
ATOM     24  O   UNL d   1      28.579 -12.907  -0.196  0.00  0.00    -0.354 OA
ATOM     25  C   UNL d   1      27.897 -11.669  -0.001  0.00  0.00     0.210 C 
ENDBRANCH  23  24
ENDBRANCH   1  16
TORSDOF 5
ENDMDL
MODEL 9
REMARK VINA RESULT:    -5.957     11.811     13.810
REMARK INTER + INTRA:          -8.262
REMARK INTER:                  -7.449
REMARK INTRA:                  -0.813
REMARK CONF_INDEPENDENT:        1.492
REMARK UNBOUND:                -0.813
REMARK  5 active torsions:
REMARK  status: ('A' for Active; 'I' for Inactive)
REMARK    1  A    between atoms: O_2  and  C_3 
REMARK    2  A    between atoms: C_10  and  N_11 
REMARK       I    between atoms: N_11  and  C_12 
REMARK    3  A    between atoms: C_12  and  C_14 
REMARK    4  A    between atoms: C_17  and  C_18 
REMARK    5  A    between atoms: C_18  and  N_19 
ROOT
ATOM      1  N   UNL d   1      34.030 -21.941   5.735  0.00  0.00    -0.320 N 
ATOM      2  C   UNL d   1      32.765 -21.441   5.498  0.00  0.00     0.256 C 
ATOM      3  O   UNL d   1      31.906 -21.164   6.335  0.00  0.00    -0.267 OA
ATOM      4  H   UNL d   1      34.587 -22.180   4.931  0.00  0.00     0.169 HD
ENDROOT
BRANCH   2   5
ATOM      5  C   UNL d   1      32.380 -21.189   4.094  0.00  0.00     0.032 A 
ATOM      6  C   UNL d   1      31.086 -21.560   3.707  0.00  0.00     0.018 A 
ATOM      7  C   UNL d   1      30.722 -21.575   2.359  0.00  0.00     0.015 A 
ATOM      8  C   UNL d   1      31.612 -21.119   1.377  0.00  0.00     0.001 A 
ATOM      9  C   UNL d   1      32.907 -20.739   1.784  0.00  0.00     0.015 A 
ATOM     10  C   UNL d   1      33.295 -20.773   3.132  0.00  0.00     0.018 A 
BRANCH   8  11
ATOM     11  C   UNL d   1      31.179 -20.991  -0.058  0.00  0.00     0.104 C 
ATOM     12  S   UNL d   1      31.149 -22.232  -1.183  0.00  0.00    -0.060 SA
BRANCH  11  13
ATOM     13  N   UNL d   1      30.822 -19.747  -0.524  0.00  0.00    -0.390 N 
ATOM     14  H   UNL d   1      31.084 -19.346  -1.412  0.00  0.00     0.157 HD
ATOM     15  H   UNL d   1      30.196 -19.189   0.048  0.00  0.00     0.157 HD
ENDBRANCH  11  13
ENDBRANCH   8  11
ENDBRANCH   2   5
BRANCH   1  16
ATOM     16  C   UNL d   1      34.627 -22.157   7.007  0.00  0.00     0.069 A 
ATOM     17  C   UNL d   1      34.928 -21.062   7.834  0.00  0.00     0.041 A 
ATOM     18  C   UNL d   1      35.442 -21.185   9.133  0.00  0.00    -0.038 A 
ATOM     19  C   UNL d   1      35.674 -22.468   9.619  0.00  0.00     0.042 A 
ATOM     20  C   UNL d   1      35.679 -19.906   9.890  0.00  0.00     0.050 C 
ATOM     21  C   UNL d   1      35.390 -23.587   8.818  0.00  0.00     0.063 A 
ATOM     22 CL   UNL d   1      36.314 -22.728  11.203  0.00  0.00    -0.084 Cl
ATOM     23  C   UNL d   1      34.886 -23.446   7.506  0.00  0.00     0.096 A 
BRANCH  23  24
ATOM     24  O   UNL d   1      34.572 -24.625   6.871  0.00  0.00    -0.354 OA
ATOM     25  C   UNL d   1      35.274 -24.931   5.666  0.00  0.00     0.210 C 
ENDBRANCH  23  24
ENDBRANCH   1  16
TORSDOF 5
ENDMDL
