MODEL 1
REMARK VINA RESULT:   -10.697      0.000      0.000
REMARK INTER + INTRA:         -13.773
REMARK INTER:                 -12.785
REMARK INTRA:                  -0.989
REMARK CONF_INDEPENDENT:        2.088
REMARK UNBOUND:                -0.989
REMARK  7 active torsions:
REMARK  status: ('A' for Active; 'I' for Inactive)
REMARK       I    between atoms: N_1  and  C_2 
REMARK       I    between atoms: C_2  and  N_4 
REMARK    1  A    between atoms: N_4  and  C_5 
REMARK    2  A    between atoms: C_5  and  C_6 
REMARK    3  A    between atoms: C_9  and  C_10 
REMARK       I    between atoms: C_10  and  N_12 
REMARK    4  A    between atoms: N_12  and  C_13 
REMARK    5  A    between atoms: C_15  and  C_16 
REMARK    6  A    between atoms: C_19  and  N_20 
REMARK       I    between atoms: N_20  and  C_21 
REMARK    7  A    between atoms: C_21  and  C_23 
ROOT
ATOM      1  C   UNL d   1      28.488 -15.334  -3.025  0.00  0.00     0.173 A 
ATOM      2  N   UNL d   1      27.239 -15.607  -2.745  0.00  0.00    -0.223 NA
ATOM      3  C   UNL d   1      27.160 -16.385  -1.601  0.00  0.00     0.076 A 
ATOM      4  C   UNL d   1      28.373 -16.667  -1.001  0.00  0.00     0.085 A 
ATOM      5  S   UNL d   1      29.649 -16.005  -1.964  0.00  0.00    -0.061 SA
ENDROOT
BRANCH   1   6
ATOM      6  N   UNL d   1      28.970 -14.615  -4.101  0.00  0.00    -0.301 N 
ATOM      7  C   UNL d   1      28.466 -14.864  -5.368  0.00  0.00     0.257 C 
ATOM      8  O   UNL d   1      27.484 -15.571  -5.593  0.00  0.00    -0.267 OA
ATOM      9  H   UNL d   1      29.627 -13.880  -3.904  0.00  0.00     0.171 HD
BRANCH   7  10
ATOM     10  C   UNL d   1      29.116 -14.204  -6.558  0.00  0.00     0.032 A 
ATOM     11  C   UNL d   1      30.438 -14.582  -6.863  0.00  0.00     0.017 A 
ATOM     12  C   UNL d   1      31.189 -13.908  -7.833  0.00  0.00     0.010 A 
ATOM     13  C   UNL d   1      30.624 -12.869  -8.580  0.00  0.00    -0.040 A 
ATOM     14  C   UNL d   1      29.277 -12.547  -8.343  0.00  0.00     0.010 A 
ATOM     15  C   UNL d   1      28.532 -13.199  -7.336  0.00  0.00     0.017 A 
BRANCH  13  16
ATOM     16  C   UNL d   1      31.439 -12.176  -9.653  0.00  0.00     0.162 C 
BRANCH  16  17
ATOM     17  N   UNL d   1      32.816 -11.952  -9.250  0.00  0.00    -0.339 N 
ATOM     18  C   UNL d   1      33.772 -12.896  -9.435  0.00  0.00     0.314 C 
ATOM     19  N   UNL d   1      34.999 -12.537  -8.997  0.00  0.00    -0.352 N 
ATOM     20  O   UNL d   1      33.580 -13.996  -9.950  0.00  0.00    -0.248 OA
ATOM     21  H   UNL d   1      35.745 -13.209  -9.117  0.00  0.00     0.160 HD
ATOM     22  H   UNL d   1      35.212 -11.655  -8.559  0.00  0.00     0.160 HD
ATOM     23  H   UNL d   1      33.070 -11.071  -8.831  0.00  0.00     0.164 HD
ENDBRANCH  16  17
ENDBRANCH  13  16
ENDBRANCH   7  10
ENDBRANCH   1   6
BRANCH   3  24
ATOM     24  C   UNL d   1      25.901 -16.993  -1.203  0.00  0.00    -0.007 A 
ATOM     25  C   UNL d   1      24.743 -16.984  -1.987  0.00  0.00     0.016 A 
ATOM     26  C   UNL d   1      23.547 -17.569  -1.505  0.00  0.00     0.030 A 
ATOM     27  C   UNL d   1      23.517 -18.225  -0.264  0.00  0.00     0.035 A 
ATOM     28  C   UNL d   1      24.681 -18.200   0.505  0.00  0.00     0.030 A 
ATOM     29  C   UNL d   1      25.854 -17.603   0.047  0.00  0.00     0.016 A 
BRANCH  27  30
ATOM     30  N   UNL d   1      22.350 -18.924   0.162  0.00  0.00    -0.323 N 
ATOM     31  C   UNL d   1      21.067 -18.707  -0.339  0.00  0.00     0.256 C 
ATOM     32  O   UNL d   1      20.745 -17.939  -1.242  0.00  0.00    -0.267 OA
ATOM     33  H   UNL d   1      22.465 -19.600   0.908  0.00  0.00     0.169 HD
BRANCH  31  34
ATOM     34  C   UNL d   1      19.943 -19.454   0.271  0.00  0.00     0.032 A 
ATOM     35  C   UNL d   1      19.978 -19.698   1.656  0.00  0.00     0.017 A 
ATOM     36  C   UNL d   1      19.055 -20.565   2.241  0.00  0.00     0.001 A 
ATOM     37  C   UNL d   1      18.063 -21.147   1.456  0.00  0.00     0.000 A 
ATOM     38  C   UNL d   1      18.029 -20.910   0.078  0.00  0.00     0.001 A 
ATOM     39  C   UNL d   1      18.976 -20.075  -0.520  0.00  0.00     0.017 A 
ENDBRANCH  31  34
ENDBRANCH  27  30
ENDBRANCH   3  24
TORSDOF 7
ENDMDL
MODEL 2
REMARK VINA RESULT:   -10.546      1.044      1.044
REMARK INTER + INTRA:         -13.670
REMARK INTER:                 -12.634
REMARK INTRA:                  -1.036
REMARK CONF_INDEPENDENT:        2.088
REMARK UNBOUND:                -1.036
REMARK  7 active torsions:
REMARK  status: ('A' for Active; 'I' for Inactive)
REMARK       I    between atoms: N_1  and  C_2 
REMARK       I    between atoms: C_2  and  N_4 
REMARK    1  A    between atoms: N_4  and  C_5 
REMARK    2  A    between atoms: C_5  and  C_6 
REMARK    3  A    between atoms: C_9  and  C_10 
REMARK       I    between atoms: C_10  and  N_12 
REMARK    4  A    between atoms: N_12  and  C_13 
REMARK    5  A    between atoms: C_15  and  C_16 
REMARK    6  A    between atoms: C_19  and  N_20 
REMARK       I    between atoms: N_20  and  C_21 
REMARK    7  A    between atoms: C_21  and  C_23 
ROOT
ATOM      1  C   UNL d   1      28.444 -15.178  -3.207  0.00  0.00     0.173 A 
ATOM      2  N   UNL d   1      27.211 -15.432  -2.851  0.00  0.00    -0.223 NA
ATOM      3  C   UNL d   1      27.191 -16.266  -1.745  0.00  0.00     0.076 A 
ATOM      4  C   UNL d   1      28.434 -16.611  -1.251  0.00  0.00     0.085 A 
ATOM      5  S   UNL d   1      29.658 -15.933  -2.269  0.00  0.00    -0.061 SA
ENDROOT
BRANCH   1   6
ATOM      6  N   UNL d   1      28.870 -14.416  -4.278  0.00  0.00    -0.301 N 
ATOM      7  C   UNL d   1      28.328 -14.642  -5.534  0.00  0.00     0.257 C 
ATOM      8  O   UNL d   1      27.357 -15.368  -5.745  0.00  0.00    -0.267 OA
ATOM      9  H   UNL d   1      29.514 -13.669  -4.083  0.00  0.00     0.171 HD
BRANCH   7  10
ATOM     10  C   UNL d   1      28.919 -13.932  -6.726  0.00  0.00     0.032 A 
ATOM     11  C   UNL d   1      30.259 -14.218  -7.048  0.00  0.00     0.017 A 
ATOM     12  C   UNL d   1      30.952 -13.488  -8.022  0.00  0.00     0.010 A 
ATOM     13  C   UNL d   1      30.310 -12.484  -8.754  0.00  0.00    -0.040 A 
ATOM     14  C   UNL d   1      28.947 -12.256  -8.500  0.00  0.00     0.010 A 
ATOM     15  C   UNL d   1      28.259 -12.963  -7.490  0.00  0.00     0.017 A 
BRANCH  13  16
ATOM     16  C   UNL d   1      31.064 -11.732  -9.831  0.00  0.00     0.162 C 
BRANCH  16  17
ATOM     17  N   UNL d   1      32.466 -11.543  -9.502  0.00  0.00    -0.339 N 
ATOM     18  C   UNL d   1      32.852 -10.742  -8.477  0.00  0.00     0.314 C 
ATOM     19  N   UNL d   1      34.191 -10.665  -8.308  0.00  0.00    -0.352 N 
ATOM     20  O   UNL d   1      32.085 -10.124  -7.743  0.00  0.00    -0.248 OA
ATOM     21  H   UNL d   1      34.526 -10.082  -7.553  0.00  0.00     0.160 HD
ATOM     22  H   UNL d   1      34.867 -11.140  -8.884  0.00  0.00     0.160 HD
ATOM     23  H   UNL d   1      33.168 -12.023 -10.042  0.00  0.00     0.164 HD
ENDBRANCH  16  17
ENDBRANCH  13  16
ENDBRANCH   7  10
ENDBRANCH   1   6
BRANCH   3  24
ATOM     24  C   UNL d   1      25.946 -16.861  -1.288  0.00  0.00    -0.007 A 
ATOM     25  C   UNL d   1      24.679 -16.467  -1.730  0.00  0.00     0.016 A 
ATOM     26  C   UNL d   1      23.514 -17.076  -1.203  0.00  0.00     0.030 A 
ATOM     27  C   UNL d   1      23.610 -18.129  -0.278  0.00  0.00     0.035 A 
ATOM     28  C   UNL d   1      24.886 -18.486   0.160  0.00  0.00     0.030 A 
ATOM     29  C   UNL d   1      26.034 -17.873  -0.336  0.00  0.00     0.016 A 
BRANCH  27  30
ATOM     30  N   UNL d   1      22.444 -18.827   0.153  0.00  0.00    -0.323 N 
ATOM     31  C   UNL d   1      21.161 -18.616  -0.350  0.00  0.00     0.256 C 
ATOM     32  O   UNL d   1      20.838 -17.857  -1.260  0.00  0.00    -0.267 OA
ATOM     33  H   UNL d   1      22.560 -19.495   0.905  0.00  0.00     0.169 HD
BRANCH  31  34
ATOM     34  C   UNL d   1      20.039 -19.360   0.266  0.00  0.00     0.032 A 
ATOM     35  C   UNL d   1      20.070 -19.587   1.653  0.00  0.00     0.017 A 
ATOM     36  C   UNL d   1      19.149 -20.450   2.247  0.00  0.00     0.001 A 
ATOM     37  C   UNL d   1      18.161 -21.046   1.466  0.00  0.00     0.000 A 
ATOM     38  C   UNL d   1      18.130 -20.825   0.086  0.00  0.00     0.001 A 
ATOM     39  C   UNL d   1      19.076 -19.994  -0.520  0.00  0.00     0.017 A 
ENDBRANCH  31  34
ENDBRANCH  27  30
ENDBRANCH   3  24
TORSDOF 7
ENDMDL
MODEL 3
REMARK VINA RESULT:   -10.511      2.680      3.125
REMARK INTER + INTRA:         -13.563
REMARK INTER:                 -12.599
REMARK INTRA:                  -0.964
REMARK CONF_INDEPENDENT:        2.088
REMARK UNBOUND:                -0.964
REMARK  7 active torsions:
REMARK  status: ('A' for Active; 'I' for Inactive)
REMARK       I    between atoms: N_1  and  C_2 
REMARK       I    between atoms: C_2  and  N_4 
REMARK    1  A    between atoms: N_4  and  C_5 
REMARK    2  A    between atoms: C_5  and  C_6 
REMARK    3  A    between atoms: C_9  and  C_10 
REMARK       I    between atoms: C_10  and  N_12 
REMARK    4  A    between atoms: N_12  and  C_13 
REMARK    5  A    between atoms: C_15  and  C_16 
REMARK    6  A    between atoms: C_19  and  N_20 
REMARK       I    between atoms: N_20  and  C_21 
REMARK    7  A    between atoms: C_21  and  C_23 
ROOT
ATOM      1  C   UNL d   1      28.572 -15.299  -3.135  0.00  0.00     0.173 A 
ATOM      2  N   UNL d   1      27.484 -16.011  -2.987  0.00  0.00    -0.223 NA
ATOM      3  C   UNL d   1      26.767 -15.571  -1.886  0.00  0.00     0.076 A 
ATOM      4  C   UNL d   1      27.317 -14.490  -1.224  0.00  0.00     0.085 A 
ATOM      5  S   UNL d   1      28.826 -14.080  -1.963  0.00  0.00    -0.061 SA
ENDROOT
BRANCH   1   6
ATOM      6  N   UNL d   1      29.554 -15.455  -4.094  0.00  0.00    -0.301 N 
ATOM      7  C   UNL d   1      29.192 -15.587  -5.426  0.00  0.00     0.257 C 
ATOM      8  O   UNL d   1      28.052 -15.404  -5.851  0.00  0.00    -0.267 OA
ATOM      9  H   UNL d   1      30.509 -15.394  -3.786  0.00  0.00     0.171 HD
BRANCH   7  10
ATOM     10  C   UNL d   1      30.252 -15.931  -6.443  0.00  0.00     0.032 A 
ATOM     11  C   UNL d   1      30.621 -17.285  -6.555  0.00  0.00     0.017 A 
ATOM     12  C   UNL d   1      31.711 -17.685  -7.338  0.00  0.00     0.010 A 
ATOM     13  C   UNL d   1      32.433 -16.752  -8.089  0.00  0.00    -0.040 A 
ATOM     14  C   UNL d   1      32.012 -15.413  -8.051  0.00  0.00     0.010 A 
ATOM     15  C   UNL d   1      30.940 -15.002  -7.229  0.00  0.00     0.017 A 
BRANCH  13  16
ATOM     16  C   UNL d   1      33.584 -17.209  -8.961  0.00  0.00     0.162 C 
BRANCH  16  17
ATOM     17  N   UNL d   1      33.740 -18.653  -8.969  0.00  0.00    -0.339 N 
ATOM     18  C   UNL d   1      32.868 -19.457  -9.628  0.00  0.00     0.314 C 
ATOM     19  N   UNL d   1      33.147 -20.776  -9.530  0.00  0.00    -0.352 N 
ATOM     20  O   UNL d   1      31.898 -19.061 -10.270  0.00  0.00    -0.248 OA
ATOM     21  H   UNL d   1      32.525 -21.414 -10.009  0.00  0.00     0.160 HD
ATOM     22  H   UNL d   1      33.921 -21.158  -9.010  0.00  0.00     0.160 HD
ATOM     23  H   UNL d   1      34.518 -19.067  -8.480  0.00  0.00     0.164 HD
ENDBRANCH  16  17
ENDBRANCH  13  16
ENDBRANCH   7  10
ENDBRANCH   1   6
BRANCH   3  24
ATOM     24  C   UNL d   1      25.632 -16.331  -1.389  0.00  0.00    -0.007 A 
ATOM     25  C   UNL d   1      24.296 -15.965  -1.581  0.00  0.00     0.016 A 
ATOM     26  C   UNL d   1      23.252 -16.745  -1.029  0.00  0.00     0.030 A 
ATOM     27  C   UNL d   1      23.533 -17.934  -0.336  0.00  0.00     0.035 A 
ATOM     28  C   UNL d   1      24.875 -18.264  -0.142  0.00  0.00     0.030 A 
ATOM     29  C   UNL d   1      25.907 -17.486  -0.661  0.00  0.00     0.016 A 
BRANCH  27  30
ATOM     30  N   UNL d   1      22.478 -18.785   0.107  0.00  0.00    -0.323 N 
ATOM     31  C   UNL d   1      21.142 -18.657  -0.273  0.00  0.00     0.256 C 
ATOM     32  O   UNL d   1      20.673 -17.850  -1.072  0.00  0.00    -0.267 OA
ATOM     33  H   UNL d   1      22.720 -19.507   0.774  0.00  0.00     0.169 HD
BRANCH  31  34
ATOM     34  C   UNL d   1      20.151 -19.567   0.345  0.00  0.00     0.032 A 
ATOM     35  C   UNL d   1      19.159 -20.130  -0.478  0.00  0.00     0.017 A 
ATOM     36  C   UNL d   1      18.088 -20.825   0.085  0.00  0.00     0.001 A 
ATOM     37  C   UNL d   1      18.035 -21.008   1.465  0.00  0.00     0.000 A 
ATOM     38  C   UNL d   1      19.018 -20.446   2.285  0.00  0.00     0.001 A 
ATOM     39  C   UNL d   1      20.070 -19.713   1.730  0.00  0.00     0.017 A 
ENDBRANCH  31  34
ENDBRANCH  27  30
ENDBRANCH   3  24
TORSDOF 7
ENDMDL
MODEL 4
REMARK VINA RESULT:   -10.440      1.419      1.992
REMARK INTER + INTRA:         -13.484
REMARK INTER:                 -12.529
REMARK INTRA:                  -0.956
REMARK CONF_INDEPENDENT:        2.088
REMARK UNBOUND:                -0.956
REMARK  7 active torsions:
REMARK  status: ('A' for Active; 'I' for Inactive)
REMARK       I    between atoms: N_1  and  C_2 
REMARK       I    between atoms: C_2  and  N_4 
REMARK    1  A    between atoms: N_4  and  C_5 
REMARK    2  A    between atoms: C_5  and  C_6 
REMARK    3  A    between atoms: C_9  and  C_10 
REMARK       I    between atoms: C_10  and  N_12 
REMARK    4  A    between atoms: N_12  and  C_13 
REMARK    5  A    between atoms: C_15  and  C_16 
REMARK    6  A    between atoms: C_19  and  N_20 
REMARK       I    between atoms: N_20  and  C_21 
REMARK    7  A    between atoms: C_21  and  C_23 
ROOT
ATOM      1  C   UNL d   1      28.551 -15.292  -2.923  0.00  0.00     0.173 A 
ATOM      2  N   UNL d   1      27.486 -16.047  -2.832  0.00  0.00    -0.223 NA
ATOM      3  C   UNL d   1      26.800 -15.774  -1.659  0.00  0.00     0.076 A 
ATOM      4  C   UNL d   1      27.350 -14.773  -0.881  0.00  0.00     0.085 A 
ATOM      5  S   UNL d   1      28.821 -14.229  -1.611  0.00  0.00    -0.061 SA
ENDROOT
BRANCH   1   6
ATOM      6  N   UNL d   1      29.500 -15.295  -3.926  0.00  0.00    -0.301 N 
ATOM      7  C   UNL d   1      29.104 -15.501  -5.239  0.00  0.00     0.257 C 
ATOM      8  O   UNL d   1      27.931 -15.516  -5.610  0.00  0.00    -0.267 OA
ATOM      9  H   UNL d   1      30.445 -15.074  -3.664  0.00  0.00     0.171 HD
BRANCH   7  10
ATOM     10  C   UNL d   1      30.158 -15.678  -6.303  0.00  0.00     0.032 A 
ATOM     11  C   UNL d   1      30.621 -16.987  -6.541  0.00  0.00     0.017 A 
ATOM     12  C   UNL d   1      31.715 -17.236  -7.378  0.00  0.00     0.010 A 
ATOM     13  C   UNL d   1      32.348 -16.191  -8.059  0.00  0.00    -0.040 A 
ATOM     14  C   UNL d   1      31.833 -14.895  -7.896  0.00  0.00     0.010 A 
ATOM     15  C   UNL d   1      30.756 -14.636  -7.020  0.00  0.00     0.017 A 
BRANCH  13  16
ATOM     16  C   UNL d   1      33.505 -16.485  -8.991  0.00  0.00     0.162 C 
BRANCH  16  17
ATOM     17  N   UNL d   1      34.682 -15.691  -8.688  0.00  0.00    -0.339 N 
ATOM     18  C   UNL d   1      34.786 -14.397  -9.083  0.00  0.00     0.314 C 
ATOM     19  N   UNL d   1      35.947 -13.801  -8.732  0.00  0.00    -0.352 N 
ATOM     20  O   UNL d   1      33.923 -13.784  -9.708  0.00  0.00    -0.248 OA
ATOM     21  H   UNL d   1      36.067 -12.834  -9.002  0.00  0.00     0.160 HD
ATOM     22  H   UNL d   1      36.692 -14.256  -8.229  0.00  0.00     0.160 HD
ATOM     23  H   UNL d   1      35.437 -16.107  -8.165  0.00  0.00     0.164 HD
ENDBRANCH  16  17
ENDBRANCH  13  16
ENDBRANCH   7  10
ENDBRANCH   1   6
BRANCH   3  24
ATOM     24  C   UNL d   1      25.703 -16.624  -1.227  0.00  0.00    -0.007 A 
ATOM     25  C   UNL d   1      25.862 -17.779  -0.455  0.00  0.00     0.016 A 
ATOM     26  C   UNL d   1      24.740 -18.571  -0.110  0.00  0.00     0.030 A 
ATOM     27  C   UNL d   1      23.443 -18.178  -0.477  0.00  0.00     0.035 A 
ATOM     28  C   UNL d   1      23.317 -17.032  -1.264  0.00  0.00     0.030 A 
ATOM     29  C   UNL d   1      24.420 -16.264  -1.629  0.00  0.00     0.016 A 
BRANCH  27  30
ATOM     30  N   UNL d   1      22.305 -18.904  -0.019  0.00  0.00    -0.323 N 
ATOM     31  C   UNL d   1      20.988 -18.633  -0.387  0.00  0.00     0.256 C 
ATOM     32  O   UNL d   1      20.603 -17.783  -1.187  0.00  0.00    -0.267 OA
ATOM     33  H   UNL d   1      22.473 -19.646   0.650  0.00  0.00     0.169 HD
BRANCH  31  34
ATOM     34  C   UNL d   1      19.909 -19.424   0.245  0.00  0.00     0.032 A 
ATOM     35  C   UNL d   1      19.987 -19.674   1.627  0.00  0.00     0.017 A 
ATOM     36  C   UNL d   1      19.111 -20.578   2.230  0.00  0.00     0.001 A 
ATOM     37  C   UNL d   1      18.122 -21.192   1.466  0.00  0.00     0.000 A 
ATOM     38  C   UNL d   1      18.045 -20.948   0.091  0.00  0.00     0.001 A 
ATOM     39  C   UNL d   1      18.946 -20.076  -0.525  0.00  0.00     0.017 A 
ENDBRANCH  31  34
ENDBRANCH  27  30
ENDBRANCH   3  24
TORSDOF 7
ENDMDL
MODEL 5
REMARK VINA RESULT:   -10.343      4.380      5.583
REMARK INTER + INTRA:         -13.254
REMARK INTER:                 -12.431
REMARK INTRA:                  -0.823
REMARK CONF_INDEPENDENT:        2.088
REMARK UNBOUND:                -0.823
REMARK  7 active torsions:
REMARK  status: ('A' for Active; 'I' for Inactive)
REMARK       I    between atoms: N_1  and  C_2 
REMARK       I    between atoms: C_2  and  N_4 
REMARK    1  A    between atoms: N_4  and  C_5 
REMARK    2  A    between atoms: C_5  and  C_6 
REMARK    3  A    between atoms: C_9  and  C_10 
REMARK       I    between atoms: C_10  and  N_12 
REMARK    4  A    between atoms: N_12  and  C_13 
REMARK    5  A    between atoms: C_15  and  C_16 
REMARK    6  A    between atoms: C_19  and  N_20 
REMARK       I    between atoms: N_20  and  C_21 
REMARK    7  A    between atoms: C_21  and  C_23 
ROOT
ATOM      1  C   UNL d   1      27.134 -13.559  -2.659  0.00  0.00     0.173 A 
ATOM      2  N   UNL d   1      26.120 -14.187  -2.120  0.00  0.00    -0.223 NA
ATOM      3  C   UNL d   1      26.511 -15.439  -1.674  0.00  0.00     0.076 A 
ATOM      4  C   UNL d   1      27.849 -15.733  -1.855  0.00  0.00     0.085 A 
ATOM      5  S   UNL d   1      28.608 -14.425  -2.694  0.00  0.00    -0.061 SA
ENDROOT
BRANCH   1   6
ATOM      6  N   UNL d   1      27.133 -12.307  -3.243  0.00  0.00    -0.301 N 
ATOM      7  C   UNL d   1      25.980 -11.841  -3.855  0.00  0.00     0.257 C 
ATOM      8  O   UNL d   1      24.884 -12.395  -3.772  0.00  0.00    -0.267 OA
ATOM      9  H   UNL d   1      27.963 -11.750  -3.135  0.00  0.00     0.171 HD
BRANCH   7  10
ATOM     10  C   UNL d   1      26.036 -10.555  -4.640  0.00  0.00     0.032 A 
ATOM     11  C   UNL d   1      25.942  -9.352  -3.915  0.00  0.00     0.017 A 
ATOM     12  C   UNL d   1      25.808  -8.116  -4.559  0.00  0.00     0.010 A 
ATOM     13  C   UNL d   1      25.826  -8.031  -5.954  0.00  0.00    -0.040 A 
ATOM     14  C   UNL d   1      26.010  -9.218  -6.682  0.00  0.00     0.010 A 
ATOM     15  C   UNL d   1      26.103 -10.469  -6.035  0.00  0.00     0.017 A 
BRANCH  13  16
ATOM     16  C   UNL d   1      25.719  -6.680  -6.633  0.00  0.00     0.162 C 
BRANCH  16  17
ATOM     17  N   UNL d   1      24.415  -6.457  -7.230  0.00  0.00    -0.339 N 
ATOM     18  C   UNL d   1      23.279  -6.913  -6.645  0.00  0.00     0.314 C 
ATOM     19  N   UNL d   1      22.149  -6.632  -7.332  0.00  0.00    -0.352 N 
ATOM     20  O   UNL d   1      23.237  -7.532  -5.584  0.00  0.00    -0.248 OA
ATOM     21  H   UNL d   1      21.277  -6.950  -6.931  0.00  0.00     0.160 HD
ATOM     22  H   UNL d   1      22.124  -6.139  -8.209  0.00  0.00     0.160 HD
ATOM     23  H   UNL d   1      24.350  -5.945  -8.096  0.00  0.00     0.164 HD
ENDBRANCH  16  17
ENDBRANCH  13  16
ENDBRANCH   7  10
ENDBRANCH   1   6
BRANCH   3  24
ATOM     24  C   UNL d   1      25.523 -16.409  -1.229  0.00  0.00    -0.007 A 
ATOM     25  C   UNL d   1      25.825 -17.548  -0.477  0.00  0.00     0.016 A 
ATOM     26  C   UNL d   1      24.805 -18.462  -0.117  0.00  0.00     0.030 A 
ATOM     27  C   UNL d   1      23.465 -18.209  -0.451  0.00  0.00     0.035 A 
ATOM     28  C   UNL d   1      23.196 -17.076  -1.220  0.00  0.00     0.030 A 
ATOM     29  C   UNL d   1      24.200 -16.187  -1.598  0.00  0.00     0.016 A 
BRANCH  27  30
ATOM     30  N   UNL d   1      22.424 -19.061   0.021  0.00  0.00    -0.323 N 
ATOM     31  C   UNL d   1      21.065 -18.861  -0.214  0.00  0.00     0.256 C 
ATOM     32  O   UNL d   1      20.554 -17.975  -0.896  0.00  0.00    -0.267 OA
ATOM     33  H   UNL d   1      22.700 -19.845   0.601  0.00  0.00     0.169 HD
BRANCH  31  34
ATOM     34  C   UNL d   1      20.101 -19.788   0.421  0.00  0.00     0.032 A 
ATOM     35  C   UNL d   1      19.053 -20.302  -0.364  0.00  0.00     0.017 A 
ATOM     36  C   UNL d   1      18.010 -21.012   0.232  0.00  0.00     0.001 A 
ATOM     37  C   UNL d   1      18.040 -21.258   1.602  0.00  0.00     0.000 A 
ATOM     38  C   UNL d   1      19.079 -20.746   2.385  0.00  0.00     0.001 A 
ATOM     39  C   UNL d   1      20.104 -19.998   1.800  0.00  0.00     0.017 A 
ENDBRANCH  31  34
ENDBRANCH  27  30
ENDBRANCH   3  24
TORSDOF 7
ENDMDL
MODEL 6
REMARK VINA RESULT:   -10.298      1.966      2.448
REMARK INTER + INTRA:         -13.496
REMARK INTER:                 -12.386
REMARK INTRA:                  -1.111
REMARK CONF_INDEPENDENT:        2.088
REMARK UNBOUND:                -1.111
REMARK  7 active torsions:
REMARK  status: ('A' for Active; 'I' for Inactive)
REMARK       I    between atoms: N_1  and  C_2 
REMARK       I    between atoms: C_2  and  N_4 
REMARK    1  A    between atoms: N_4  and  C_5 
REMARK    2  A    between atoms: C_5  and  C_6 
REMARK    3  A    between atoms: C_9  and  C_10 
REMARK       I    between atoms: C_10  and  N_12 
REMARK    4  A    between atoms: N_12  and  C_13 
REMARK    5  A    between atoms: C_15  and  C_16 
REMARK    6  A    between atoms: C_19  and  N_20 
REMARK       I    between atoms: N_20  and  C_21 
REMARK    7  A    between atoms: C_21  and  C_23 
ROOT
ATOM      1  C   UNL d   1      27.917 -14.680  -3.145  0.00  0.00     0.173 A 
ATOM      2  N   UNL d   1      26.763 -15.113  -2.708  0.00  0.00    -0.223 NA
ATOM      3  C   UNL d   1      26.948 -16.042  -1.696  0.00  0.00     0.076 A 
ATOM      4  C   UNL d   1      28.265 -16.278  -1.354  0.00  0.00     0.085 A 
ATOM      5  S   UNL d   1      29.296 -15.366  -2.402  0.00  0.00    -0.061 SA
ENDROOT
BRANCH   1   6
ATOM      6  N   UNL d   1      28.144 -13.777  -4.165  0.00  0.00    -0.301 N 
ATOM      7  C   UNL d   1      27.874 -14.144  -5.474  0.00  0.00     0.257 C 
ATOM      8  O   UNL d   1      27.279 -15.173  -5.792  0.00  0.00    -0.267 OA
ATOM      9  H   UNL d   1      28.434 -12.851  -3.902  0.00  0.00     0.171 HD
BRANCH   7  10
ATOM     10  C   UNL d   1      28.287 -13.223  -6.595  0.00  0.00     0.032 A 
ATOM     11  C   UNL d   1      27.459 -12.114  -6.856  0.00  0.00     0.017 A 
ATOM     12  C   UNL d   1      27.656 -11.301  -7.978  0.00  0.00     0.010 A 
ATOM     13  C   UNL d   1      28.727 -11.529  -8.848  0.00  0.00    -0.040 A 
ATOM     14  C   UNL d   1      29.609 -12.578  -8.542  0.00  0.00     0.010 A 
ATOM     15  C   UNL d   1      29.388 -13.425  -7.434  0.00  0.00     0.017 A 
BRANCH  13  16
ATOM     16  C   UNL d   1      28.947 -10.614 -10.036  0.00  0.00     0.162 C 
BRANCH  16  17
ATOM     17  N   UNL d   1      29.184  -9.237  -9.643  0.00  0.00    -0.339 N 
ATOM     18  C   UNL d   1      30.200  -8.901  -8.809  0.00  0.00     0.314 C 
ATOM     19  N   UNL d   1      30.279  -7.580  -8.534  0.00  0.00    -0.352 N 
ATOM     20  O   UNL d   1      31.001  -9.698  -8.324  0.00  0.00    -0.248 OA
ATOM     21  H   UNL d   1      31.024  -7.283  -7.919  0.00  0.00     0.160 HD
ATOM     22  H   UNL d   1      29.646  -6.884  -8.893  0.00  0.00     0.160 HD
ATOM     23  H   UNL d   1      28.585  -8.511 -10.004  0.00  0.00     0.164 HD
ENDBRANCH  16  17
ENDBRANCH  13  16
ENDBRANCH   7  10
ENDBRANCH   1   6
BRANCH   3  24
ATOM     24  C   UNL d   1      25.830 -16.823  -1.193  0.00  0.00    -0.007 A 
ATOM     25  C   UNL d   1      25.798 -17.425   0.069  0.00  0.00     0.016 A 
ATOM     26  C   UNL d   1      24.682 -18.201   0.465  0.00  0.00     0.030 A 
ATOM     27  C   UNL d   1      23.561 -18.327  -0.372  0.00  0.00     0.035 A 
ATOM     28  C   UNL d   1      23.629 -17.733  -1.633  0.00  0.00     0.030 A 
ATOM     29  C   UNL d   1      24.736 -16.990  -2.038  0.00  0.00     0.016 A 
BRANCH  27  30
ATOM     30  N   UNL d   1      22.388 -18.999   0.079  0.00  0.00    -0.323 N 
ATOM     31  C   UNL d   1      21.098 -18.742  -0.382  0.00  0.00     0.256 C 
ATOM     32  O   UNL d   1      20.771 -17.956  -1.268  0.00  0.00    -0.267 OA
ATOM     33  H   UNL d   1      22.506 -19.686   0.815  0.00  0.00     0.169 HD
BRANCH  31  34
ATOM     34  C   UNL d   1      19.972 -19.466   0.252  0.00  0.00     0.032 A 
ATOM     35  C   UNL d   1      20.025 -19.700   1.637  0.00  0.00     0.017 A 
ATOM     36  C   UNL d   1      19.097 -20.547   2.244  0.00  0.00     0.001 A 
ATOM     37  C   UNL d   1      18.082 -21.118   1.480  0.00  0.00     0.000 A 
ATOM     38  C   UNL d   1      18.030 -20.890   0.101  0.00  0.00     0.001 A 
ATOM     39  C   UNL d   1      18.981 -20.076  -0.518  0.00  0.00     0.017 A 
ENDBRANCH  31  34
ENDBRANCH  27  30
ENDBRANCH   3  24
TORSDOF 7
ENDMDL
MODEL 7
REMARK VINA RESULT:    -9.366      3.566      4.239
REMARK INTER + INTRA:         -12.464
REMARK INTER:                 -11.454
REMARK INTRA:                  -1.010
REMARK CONF_INDEPENDENT:        2.088
REMARK UNBOUND:                -1.010
REMARK  7 active torsions:
REMARK  status: ('A' for Active; 'I' for Inactive)
REMARK       I    between atoms: N_1  and  C_2 
REMARK       I    between atoms: C_2  and  N_4 
REMARK    1  A    between atoms: N_4  and  C_5 
REMARK    2  A    between atoms: C_5  and  C_6 
REMARK    3  A    between atoms: C_9  and  C_10 
REMARK       I    between atoms: C_10  and  N_12 
REMARK    4  A    between atoms: N_12  and  C_13 
REMARK    5  A    between atoms: C_15  and  C_16 
REMARK    6  A    between atoms: C_19  and  N_20 
REMARK       I    between atoms: N_20  and  C_21 
REMARK    7  A    between atoms: C_21  and  C_23 
ROOT
ATOM      1  C   UNL d   1      27.329 -13.776  -2.875  0.00  0.00     0.173 A 
ATOM      2  N   UNL d   1      26.289 -14.344  -2.320  0.00  0.00    -0.223 NA
ATOM      3  C   UNL d   1      26.658 -15.529  -1.704  0.00  0.00     0.076 A 
ATOM      4  C   UNL d   1      28.005 -15.830  -1.777  0.00  0.00     0.085 A 
ATOM      5  S   UNL d   1      28.805 -14.626  -2.726  0.00  0.00    -0.061 SA
ENDROOT
BRANCH   1   6
ATOM      6  N   UNL d   1      27.356 -12.605  -3.606  0.00  0.00    -0.301 N 
ATOM      7  C   UNL d   1      26.308 -12.312  -4.465  0.00  0.00     0.257 C 
ATOM      8  O   UNL d   1      25.253 -12.944  -4.505  0.00  0.00    -0.267 OA
ATOM      9  H   UNL d   1      28.115 -11.970  -3.427  0.00  0.00     0.171 HD
BRANCH   7  10
ATOM     10  C   UNL d   1      26.425 -11.124  -5.387  0.00  0.00     0.032 A 
ATOM     11  C   UNL d   1      25.591 -10.020  -5.126  0.00  0.00     0.017 A 
ATOM     12  C   UNL d   1      25.496  -8.945  -6.018  0.00  0.00     0.010 A 
ATOM     13  C   UNL d   1      26.281  -8.905  -7.175  0.00  0.00    -0.040 A 
ATOM     14  C   UNL d   1      27.182  -9.961  -7.395  0.00  0.00     0.010 A 
ATOM     15  C   UNL d   1      27.247 -11.065  -6.517  0.00  0.00     0.017 A 
BRANCH  13  16
ATOM     16  C   UNL d   1      26.194  -7.715  -8.109  0.00  0.00     0.162 C 
BRANCH  16  17
ATOM     17  N   UNL d   1      27.014  -6.600  -7.669  0.00  0.00    -0.339 N 
ATOM     18  C   UNL d   1      28.364  -6.701  -7.589  0.00  0.00     0.314 C 
ATOM     19  N   UNL d   1      28.979  -5.579  -7.154  0.00  0.00    -0.352 N 
ATOM     20  O   UNL d   1      29.011  -7.706  -7.876  0.00  0.00    -0.248 OA
ATOM     21  H   UNL d   1      29.988  -5.606  -7.081  0.00  0.00     0.160 HD
ATOM     22  H   UNL d   1      28.501  -4.731  -6.895  0.00  0.00     0.160 HD
ATOM     23  H   UNL d   1      26.570  -5.728  -7.426  0.00  0.00     0.164 HD
ENDBRANCH  16  17
ENDBRANCH  13  16
ENDBRANCH   7  10
ENDBRANCH   1   6
BRANCH   3  24
ATOM     24  C   UNL d   1      25.651 -16.447  -1.199  0.00  0.00    -0.007 A 
ATOM     25  C   UNL d   1      25.886 -17.398  -0.201  0.00  0.00     0.016 A 
ATOM     26  C   UNL d   1      24.856 -18.280   0.206  0.00  0.00     0.030 A 
ATOM     27  C   UNL d   1      23.564 -18.174  -0.335  0.00  0.00     0.035 A 
ATOM     28  C   UNL d   1      23.364 -17.230  -1.344  0.00  0.00     0.030 A 
ATOM     29  C   UNL d   1      24.382 -16.378  -1.766  0.00  0.00     0.016 A 
BRANCH  27  30
ATOM     30  N   UNL d   1      22.497 -18.974   0.168  0.00  0.00    -0.323 N 
ATOM     31  C   UNL d   1      21.156 -18.823  -0.185  0.00  0.00     0.256 C 
ATOM     32  O   UNL d   1      20.691 -18.036  -1.005  0.00  0.00    -0.267 OA
ATOM     33  H   UNL d   1      22.735 -19.677   0.858  0.00  0.00     0.169 HD
BRANCH  31  34
ATOM     34  C   UNL d   1      20.155 -19.678   0.493  0.00  0.00     0.032 A 
ATOM     35  C   UNL d   1      19.104 -20.211  -0.274  0.00  0.00     0.017 A 
ATOM     36  C   UNL d   1      18.030 -20.848   0.349  0.00  0.00     0.001 A 
ATOM     37  C   UNL d   1      18.031 -21.004   1.733  0.00  0.00     0.000 A 
ATOM     38  C   UNL d   1      19.073 -20.471   2.498  0.00  0.00     0.001 A 
ATOM     39  C   UNL d   1      20.129 -19.795   1.883  0.00  0.00     0.017 A 
ENDBRANCH  31  34
ENDBRANCH  27  30
ENDBRANCH   3  24
TORSDOF 7
ENDMDL
MODEL 8
REMARK VINA RESULT:    -9.215      5.525      7.406
REMARK INTER + INTRA:         -12.267
REMARK INTER:                 -11.303
REMARK INTRA:                  -0.963
REMARK CONF_INDEPENDENT:        2.088
REMARK UNBOUND:                -0.963
REMARK  7 active torsions:
REMARK  status: ('A' for Active; 'I' for Inactive)
REMARK       I    between atoms: N_1  and  C_2 
REMARK       I    between atoms: C_2  and  N_4 
REMARK    1  A    between atoms: N_4  and  C_5 
REMARK    2  A    between atoms: C_5  and  C_6 
REMARK    3  A    between atoms: C_9  and  C_10 
REMARK       I    between atoms: C_10  and  N_12 
REMARK    4  A    between atoms: N_12  and  C_13 
REMARK    5  A    between atoms: C_15  and  C_16 
REMARK    6  A    between atoms: C_19  and  N_20 
REMARK       I    between atoms: N_20  and  C_21 
REMARK    7  A    between atoms: C_21  and  C_23 
ROOT
ATOM      1  C   UNL d   1      29.223 -15.637  -1.193  0.00  0.00     0.173 A 
ATOM      2  N   UNL d   1      28.267 -16.395  -0.720  0.00  0.00    -0.223 NA
ATOM      3  C   UNL d   1      27.191 -16.414  -1.593  0.00  0.00     0.076 A 
ATOM      4  C   UNL d   1      27.365 -15.682  -2.751  0.00  0.00     0.085 A 
ATOM      5  S   UNL d   1      28.895 -14.878  -2.690  0.00  0.00    -0.061 SA
ENDROOT
BRANCH   1   6
ATOM      6  N   UNL d   1      30.435 -15.345  -0.599  0.00  0.00    -0.301 N 
ATOM      7  C   UNL d   1      30.454 -14.724   0.641  0.00  0.00     0.257 C 
ATOM      8  O   UNL d   1      29.459 -14.560   1.345  0.00  0.00    -0.267 OA
ATOM      9  H   UNL d   1      31.265 -15.664  -1.068  0.00  0.00     0.171 HD
BRANCH   7  10
ATOM     10  C   UNL d   1      31.771 -14.250   1.203  0.00  0.00     0.032 A 
ATOM     11  C   UNL d   1      32.406 -15.080   2.147  0.00  0.00     0.017 A 
ATOM     12  C   UNL d   1      33.536 -14.654   2.855  0.00  0.00     0.010 A 
ATOM     13  C   UNL d   1      34.112 -13.406   2.600  0.00  0.00    -0.040 A 
ATOM     14  C   UNL d   1      33.536 -12.611   1.595  0.00  0.00     0.010 A 
ATOM     15  C   UNL d   1      32.372 -13.021   0.910  0.00  0.00     0.017 A 
BRANCH  13  16
ATOM     16  C   UNL d   1      35.358 -12.979   3.348  0.00  0.00     0.162 C 
BRANCH  16  17
ATOM     17  N   UNL d   1      35.281 -13.264   4.769  0.00  0.00    -0.339 N 
ATOM     18  C   UNL d   1      35.883 -12.466   5.687  0.00  0.00     0.314 C 
ATOM     19  N   UNL d   1      35.726 -12.874   6.966  0.00  0.00    -0.352 N 
ATOM     20  O   UNL d   1      36.525 -11.452   5.420  0.00  0.00    -0.248 OA
ATOM     21  H   UNL d   1      36.155 -12.307   7.685  0.00  0.00     0.160 HD
ATOM     22  H   UNL d   1      35.221 -13.700   7.242  0.00  0.00     0.160 HD
ATOM     23  H   UNL d   1      34.762 -14.069   5.084  0.00  0.00     0.164 HD
ENDBRANCH  16  17
ENDBRANCH  13  16
ENDBRANCH   7  10
ENDBRANCH   1   6
BRANCH   3  24
ATOM     24  C   UNL d   1      25.927 -17.013  -1.197  0.00  0.00    -0.007 A 
ATOM     25  C   UNL d   1      24.727 -16.846  -1.896  0.00  0.00     0.016 A 
ATOM     26  C   UNL d   1      23.531 -17.436  -1.419  0.00  0.00     0.030 A 
ATOM     27  C   UNL d   1      23.539 -18.251  -0.275  0.00  0.00     0.035 A 
ATOM     28  C   UNL d   1      24.746 -18.382   0.413  0.00  0.00     0.030 A 
ATOM     29  C   UNL d   1      25.920 -17.783  -0.038  0.00  0.00     0.016 A 
BRANCH  27  30
ATOM     30  N   UNL d   1      22.363 -18.947   0.130  0.00  0.00    -0.323 N 
ATOM     31  C   UNL d   1      21.077 -18.671  -0.333  0.00  0.00     0.256 C 
ATOM     32  O   UNL d   1      20.758 -17.844  -1.183  0.00  0.00    -0.267 OA
ATOM     33  H   UNL d   1      22.475 -19.669   0.832  0.00  0.00     0.169 HD
BRANCH  31  34
ATOM     34  C   UNL d   1      19.947 -19.428   0.252  0.00  0.00     0.032 A 
ATOM     35  C   UNL d   1      19.968 -19.699   1.632  0.00  0.00     0.017 A 
ATOM     36  C   UNL d   1      19.039 -20.576   2.192  0.00  0.00     0.001 A 
ATOM     37  C   UNL d   1      18.052 -21.139   1.387  0.00  0.00     0.000 A 
ATOM     38  C   UNL d   1      18.030 -20.874   0.014  0.00  0.00     0.001 A 
ATOM     39  C   UNL d   1      18.985 -20.030  -0.559  0.00  0.00     0.017 A 
ENDBRANCH  31  34
ENDBRANCH  27  30
ENDBRANCH   3  24
TORSDOF 7
ENDMDL
MODEL 9
REMARK VINA RESULT:    -9.183      5.803      7.781
REMARK INTER + INTRA:         -12.193
REMARK INTER:                 -11.271
REMARK INTRA:                  -0.922
REMARK CONF_INDEPENDENT:        2.088
REMARK UNBOUND:                -0.922
REMARK  7 active torsions:
REMARK  status: ('A' for Active; 'I' for Inactive)
REMARK       I    between atoms: N_1  and  C_2 
REMARK       I    between atoms: C_2  and  N_4 
REMARK    1  A    between atoms: N_4  and  C_5 
REMARK    2  A    between atoms: C_5  and  C_6 
REMARK    3  A    between atoms: C_9  and  C_10 
REMARK       I    between atoms: C_10  and  N_12 
REMARK    4  A    between atoms: N_12  and  C_13 
REMARK    5  A    between atoms: C_15  and  C_16 
REMARK    6  A    between atoms: C_19  and  N_20 
REMARK       I    between atoms: N_20  and  C_21 
REMARK    7  A    between atoms: C_21  and  C_23 
ROOT
ATOM      1  C   UNL d   1      27.459 -13.436  -1.352  0.00  0.00     0.173 A 
ATOM      2  N   UNL d   1      26.671 -14.263  -0.713  0.00  0.00    -0.223 NA
ATOM      3  C   UNL d   1      26.308 -15.317  -1.536  0.00  0.00     0.076 A 
ATOM      4  C   UNL d   1      26.864 -15.289  -2.800  0.00  0.00     0.085 A 
ATOM      5  S   UNL d   1      27.798 -13.843  -2.978  0.00  0.00    -0.061 SA
ENDROOT
BRANCH   1   6
ATOM      6  N   UNL d   1      28.000 -12.257  -0.880  0.00  0.00    -0.301 N 
ATOM      7  C   UNL d   1      27.854 -11.927   0.459  0.00  0.00     0.257 C 
ATOM      8  O   UNL d   1      27.418 -12.697   1.314  0.00  0.00    -0.267 OA
ATOM      9  H   UNL d   1      28.546 -11.712  -1.525  0.00  0.00     0.171 HD
BRANCH   7  10
ATOM     10  C   UNL d   1      28.292 -10.563   0.930  0.00  0.00     0.032 A 
ATOM     11  C   UNL d   1      29.292 -10.512   1.920  0.00  0.00     0.017 A 
ATOM     12  C   UNL d   1      29.642  -9.310   2.547  0.00  0.00     0.010 A 
ATOM     13  C   UNL d   1      29.049  -8.104   2.163  0.00  0.00    -0.040 A 
ATOM     14  C   UNL d   1      28.115  -8.135   1.114  0.00  0.00     0.010 A 
ATOM     15  C   UNL d   1      27.731  -9.352   0.509  0.00  0.00     0.017 A 
BRANCH  13  16
ATOM     16  C   UNL d   1      29.469  -6.808   2.826  0.00  0.00     0.162 C 
BRANCH  16  17
ATOM     17  N   UNL d   1      29.060  -6.734   4.217  0.00  0.00    -0.339 N 
ATOM     18  C   UNL d   1      27.827  -7.135   4.617  0.00  0.00     0.314 C 
ATOM     19  N   UNL d   1      27.599  -6.993   5.941  0.00  0.00    -0.352 N 
ATOM     20  O   UNL d   1      26.963  -7.593   3.871  0.00  0.00    -0.248 OA
ATOM     21  H   UNL d   1      26.693  -7.283   6.286  0.00  0.00     0.160 HD
ATOM     22  H   UNL d   1      28.264  -6.615   6.597  0.00  0.00     0.160 HD
ATOM     23  H   UNL d   1      29.710  -6.385   4.905  0.00  0.00     0.164 HD
ENDBRANCH  16  17
ENDBRANCH  13  16
ENDBRANCH   7  10
ENDBRANCH   1   6
BRANCH   3  24
ATOM     24  C   UNL d   1      25.274 -16.253  -1.129  0.00  0.00    -0.007 A 
ATOM     25  C   UNL d   1      25.525 -17.467  -0.481  0.00  0.00     0.016 A 
ATOM     26  C   UNL d   1      24.459 -18.339  -0.153  0.00  0.00     0.030 A 
ATOM     27  C   UNL d   1      23.128 -17.974  -0.410  0.00  0.00     0.035 A 
ATOM     28  C   UNL d   1      22.908 -16.767  -1.076  0.00  0.00     0.030 A 
ATOM     29  C   UNL d   1      23.956 -15.917  -1.424  0.00  0.00     0.016 A 
BRANCH  27  30
ATOM     30  N   UNL d   1      22.049 -18.793   0.037  0.00  0.00    -0.323 N 
ATOM     31  C   UNL d   1      20.729 -18.672  -0.394  0.00  0.00     0.256 C 
ATOM     32  O   UNL d   1      20.295 -17.900  -1.246  0.00  0.00    -0.267 OA
ATOM     33  H   UNL d   1      22.261 -19.485   0.746  0.00  0.00     0.169 HD
BRANCH  31  34
ATOM     34  C   UNL d   1      19.707 -19.542   0.233  0.00  0.00     0.032 A 
ATOM     35  C   UNL d   1      19.843 -19.854   1.598  0.00  0.00     0.017 A 
ATOM     36  C   UNL d   1      19.030 -20.825   2.182  0.00  0.00     0.001 A 
ATOM     37  C   UNL d   1      18.043 -21.446   1.420  0.00  0.00     0.000 A 
ATOM     38  C   UNL d   1      17.908 -21.140   0.063  0.00  0.00     0.001 A 
ATOM     39  C   UNL d   1      18.748 -20.199  -0.538  0.00  0.00     0.017 A 
ENDBRANCH  31  34
ENDBRANCH  27  30
ENDBRANCH   3  24
TORSDOF 7
ENDMDL
