MODEL 1
REMARK VINA RESULT:    -9.539      0.000      0.000
REMARK INTER + INTRA:         -12.026
REMARK INTER:                 -11.329
REMARK INTRA:                  -0.697
REMARK CONF_INDEPENDENT:        1.790
REMARK UNBOUND:                -0.697
REMARK  6 active torsions:
REMARK  status: ('A' for Active; 'I' for Inactive)
REMARK    1  A    between atoms: N_1  and  C_2 
REMARK    2  A    between atoms: C_3  and  C_4 
REMARK       I    between atoms: C_4  and  N_6 
REMARK    3  A    between atoms: N_6  and  C_7 
REMARK    4  A    between atoms: C_7  and  C_8 
REMARK    5  A    between atoms: N_27  and  C_28 
REMARK    6  A    between atoms: C_28  and  C_29 
ROOT
ATOM      1  C   UNL d   1      27.996 -14.216   3.860  0.00  0.00     0.121 C 
ATOM      2  C   UNL d   1      27.695 -13.580   2.673  0.00  0.00     0.108 C 
ATOM      3  C   UNL d   1      27.387 -12.248   2.992  0.00  0.00     0.123 C 
ATOM      4  N   UNL d   1      26.704 -11.389   2.209  0.00  0.00    -0.242 NA
ATOM      5  C   UNL d   1      26.712 -10.113   2.511  0.00  0.00     0.086 C 
ATOM      6  C   UNL d   1      25.839  -9.324   1.731  0.00  0.00     0.034 C 
ATOM      7  C   UNL d   1      25.905  -7.942   1.660  0.00  0.00     0.002 C 
ATOM      8  C   UNL d   1      26.894  -7.348   2.404  0.00  0.00     0.002 C 
ATOM      9  C   UNL d   1      27.612  -8.146   3.367  0.00  0.00     0.034 C 
ATOM     10  C   UNL d   1      27.537  -9.607   3.521  0.00  0.00     0.088 C 
ATOM     11  N   UNL d   1      28.121 -10.543   4.511  0.00  0.00    -0.226 NA
ATOM     12  C   UNL d   1      27.922 -11.911   4.235  0.00  0.00     0.162 C 
ATOM     13  N   UNL d   1      28.095 -13.219   4.883  0.00  0.00    -0.311 N 
ENDROOT
BRANCH   2  14
ATOM     14  C   UNL d   1      27.582 -14.101   1.317  0.00  0.00     0.258 C 
ATOM     15  O   UNL d   1      27.224 -13.469   0.359  0.00  0.00    -0.267 OA
ATOM     16  N   UNL d   1      27.967 -15.415   1.231  0.00  0.00    -0.352 N 
ATOM     17  H   UNL d   1      28.544 -15.772   1.943  0.00  0.00     0.163 HD
BRANCH  16  18
ATOM     18  C   UNL d   1      27.980 -16.096   0.008  0.00  0.00     0.161 C 
BRANCH  18  19
ATOM     19  C   UNL d   1      26.619 -16.225  -0.589  0.00  0.00    -0.038 C 
ATOM     20  C   UNL d   1      25.822 -15.363  -1.374  0.00  0.00     0.012 C 
ATOM     21  C   UNL d   1      24.570 -15.839  -1.850  0.00  0.00     0.040 C 
ATOM     22  C   UNL d   1      24.121 -17.014  -1.269  0.00  0.00     0.105 C 
ATOM     23  C   UNL d   1      24.707 -17.366  -0.106  0.00  0.00     0.105 C 
ATOM     24  O   UNL d   1      23.295 -18.067  -1.601  0.00  0.00    -0.323 OA
ATOM     25  C   UNL d   1      26.044 -17.381  -0.154  0.00  0.00     0.048 C 
ATOM     26  O   UNL d   1      24.022 -18.276   0.622  0.00  0.00    -0.323 OA
ATOM     27  C   UNL d   1      23.656 -19.023  -0.520  0.00  0.00     0.352 C 
ENDBRANCH  18  19
ENDBRANCH  16  18
ENDBRANCH   2  14
BRANCH   1  28
ATOM     28  N   UNL d   1      28.156 -15.548   4.151  0.00  0.00    -0.384 N 
ATOM     29  H   UNL d   1      28.873 -15.950   4.730  0.00  0.00     0.157 HD
ATOM     30  H   UNL d   1      27.779 -16.319   3.607  0.00  0.00     0.157 HD
ENDBRANCH   1  28
BRANCH  13  31
ATOM     31  C   UNL d   1      28.184 -13.872   6.263  0.00  0.00     0.171 C 
BRANCH  31  32
ATOM     32  C   UNL d   1      28.607 -13.234   7.542  0.00  0.00    -0.040 A 
ATOM     33  C   UNL d   1      28.905 -14.090   8.574  0.00  0.00     0.009 A 
ATOM     34  C   UNL d   1      29.110 -13.621   9.853  0.00  0.00     0.001 A 
ATOM     35  C   UNL d   1      29.127 -12.256  10.109  0.00  0.00     0.000 A 
ATOM     36  C   UNL d   1      28.913 -11.349   9.074  0.00  0.00     0.001 A 
ATOM     37  C   UNL d   1      28.577 -11.831   7.799  0.00  0.00     0.009 A 
ENDBRANCH  31  32
ENDBRANCH  13  31
TORSDOF 6
ENDMDL
MODEL 2
REMARK VINA RESULT:    -9.292      3.265      9.562
REMARK INTER + INTRA:         -11.698
REMARK INTER:                 -11.082
REMARK INTRA:                  -0.617
REMARK CONF_INDEPENDENT:        1.790
REMARK UNBOUND:                -0.617
REMARK  6 active torsions:
REMARK  status: ('A' for Active; 'I' for Inactive)
REMARK    1  A    between atoms: N_1  and  C_2 
REMARK    2  A    between atoms: C_3  and  C_4 
REMARK       I    between atoms: C_4  and  N_6 
REMARK    3  A    between atoms: N_6  and  C_7 
REMARK    4  A    between atoms: C_7  and  C_8 
REMARK    5  A    between atoms: N_27  and  C_28 
REMARK    6  A    between atoms: C_28  and  C_29 
ROOT
ATOM      1  C   UNL d   1      28.895 -15.874   0.272  0.00  0.00     0.121 C 
ATOM      2  C   UNL d   1      27.667 -15.420   0.707  0.00  0.00     0.108 C 
ATOM      3  C   UNL d   1      26.695 -16.229   0.097  0.00  0.00     0.123 C 
ATOM      4  N   UNL d   1      25.390 -15.921  -0.044  0.00  0.00    -0.242 NA
ATOM      5  C   UNL d   1      24.550 -16.864  -0.394  0.00  0.00     0.086 C 
ATOM      6  C   UNL d   1      23.244 -16.409  -0.674  0.00  0.00     0.034 C 
ATOM      7  C   UNL d   1      22.139 -17.240  -0.758  0.00  0.00     0.002 C 
ATOM      8  C   UNL d   1      22.373 -18.576  -0.546  0.00  0.00     0.002 C 
ATOM      9  C   UNL d   1      23.737 -19.042  -0.500  0.00  0.00     0.034 C 
ATOM     10  C   UNL d   1      24.946 -18.205  -0.464  0.00  0.00     0.088 C 
ATOM     11  N   UNL d   1      26.392 -18.527  -0.519  0.00  0.00    -0.226 NA
ATOM     12  C   UNL d   1      27.260 -17.434  -0.320  0.00  0.00     0.162 C 
ATOM     13  N   UNL d   1      28.689 -17.107  -0.426  0.00  0.00    -0.311 N 
ENDROOT
BRANCH   2  14
ATOM     14  C   UNL d   1      27.316 -14.279   1.542  0.00  0.00     0.258 C 
ATOM     15  O   UNL d   1      26.592 -13.376   1.216  0.00  0.00    -0.267 OA
ATOM     16  N   UNL d   1      27.884 -14.353   2.789  0.00  0.00    -0.352 N 
ATOM     17  H   UNL d   1      28.181 -15.235   3.107  0.00  0.00     0.163 HD
BRANCH  16  18
ATOM     18  C   UNL d   1      27.637 -13.381   3.766  0.00  0.00     0.161 C 
BRANCH  18  19
ATOM     19  C   UNL d   1      28.459 -13.584   4.994  0.00  0.00    -0.038 C 
ATOM     20  C   UNL d   1      29.338 -14.609   5.410  0.00  0.00     0.012 C 
ATOM     21  C   UNL d   1      30.035 -14.449   6.639  0.00  0.00     0.040 C 
ATOM     22  C   UNL d   1      29.580 -13.424   7.452  0.00  0.00     0.105 C 
ATOM     23  C   UNL d   1      28.347 -12.949   7.179  0.00  0.00     0.105 C 
ATOM     24  O   UNL d   1      30.083 -12.603   8.439  0.00  0.00    -0.323 OA
ATOM     25  C   UNL d   1      28.168 -12.607   5.898  0.00  0.00     0.048 C 
ATOM     26  O   UNL d   1      27.777 -12.240   8.179  0.00  0.00    -0.323 OA
ATOM     27  C   UNL d   1      28.990 -11.597   8.512  0.00  0.00     0.352 C 
ENDBRANCH  18  19
ENDBRANCH  16  18
ENDBRANCH   2  14
BRANCH   1  28
ATOM     28  N   UNL d   1      30.148 -15.324   0.384  0.00  0.00    -0.384 N 
ATOM     29  H   UNL d   1      30.743 -15.036  -0.374  0.00  0.00     0.157 HD
ATOM     30  H   UNL d   1      30.757 -15.406   1.193  0.00  0.00     0.157 HD
ENDBRANCH   1  28
BRANCH  13  31
ATOM     31  C   UNL d   1      29.969 -17.540  -1.143  0.00  0.00     0.171 C 
BRANCH  31  32
ATOM     32  C   UNL d   1      30.246 -17.502  -2.606  0.00  0.00    -0.040 A 
ATOM     33  C   UNL d   1      29.657 -16.478  -3.307  0.00  0.00     0.009 A 
ATOM     34  C   UNL d   1      29.673 -16.453  -4.684  0.00  0.00     0.001 A 
ATOM     35  C   UNL d   1      30.382 -17.411  -5.398  0.00  0.00     0.000 A 
ATOM     36  C   UNL d   1      31.066 -18.419  -4.722  0.00  0.00     0.001 A 
ATOM     37  C   UNL d   1      30.942 -18.517  -3.328  0.00  0.00     0.009 A 
ENDBRANCH  31  32
ENDBRANCH  13  31
TORSDOF 6
ENDMDL
MODEL 3
REMARK VINA RESULT:    -9.172      6.407     10.258
REMARK INTER + INTRA:         -11.644
REMARK INTER:                 -10.962
REMARK INTRA:                  -0.682
REMARK CONF_INDEPENDENT:        1.790
REMARK UNBOUND:                -0.682
REMARK  6 active torsions:
REMARK  status: ('A' for Active; 'I' for Inactive)
REMARK    1  A    between atoms: N_1  and  C_2 
REMARK    2  A    between atoms: C_3  and  C_4 
REMARK       I    between atoms: C_4  and  N_6 
REMARK    3  A    between atoms: N_6  and  C_7 
REMARK    4  A    between atoms: C_7  and  C_8 
REMARK    5  A    between atoms: N_27  and  C_28 
REMARK    6  A    between atoms: C_28  and  C_29 
ROOT
ATOM      1  C   UNL d   1      28.611 -15.586  -4.941  0.00  0.00     0.121 C 
ATOM      2  C   UNL d   1      27.566 -14.690  -4.861  0.00  0.00     0.108 C 
ATOM      3  C   UNL d   1      27.817 -13.685  -5.808  0.00  0.00     0.123 C 
ATOM      4  N   UNL d   1      27.262 -12.457  -5.820  0.00  0.00    -0.242 NA
ATOM      5  C   UNL d   1      27.382 -11.716  -6.895  0.00  0.00     0.086 C 
ATOM      6  C   UNL d   1      26.911 -10.393  -6.748  0.00  0.00     0.034 C 
ATOM      7  C   UNL d   1      26.656  -9.544  -7.812  0.00  0.00     0.002 C 
ATOM      8  C   UNL d   1      26.884 -10.061  -9.063  0.00  0.00     0.002 C 
ATOM      9  C   UNL d   1      27.583 -11.317  -9.178  0.00  0.00     0.034 C 
ATOM     10  C   UNL d   1      27.927 -12.229  -8.077  0.00  0.00     0.088 C 
ATOM     11  N   UNL d   1      28.720 -13.481  -8.021  0.00  0.00    -0.226 NA
ATOM     12  C   UNL d   1      28.707 -14.145  -6.778  0.00  0.00     0.162 C 
ATOM     13  N   UNL d   1      29.390 -15.254  -6.096  0.00  0.00    -0.311 N 
ENDROOT
BRANCH   2  14
ATOM     14  C   UNL d   1      26.430 -14.631  -3.949  0.00  0.00     0.258 C 
ATOM     15  O   UNL d   1      25.275 -14.710  -4.272  0.00  0.00    -0.267 OA
ATOM     16  N   UNL d   1      26.821 -14.505  -2.639  0.00  0.00    -0.352 N 
ATOM     17  H   UNL d   1      27.739 -14.771  -2.407  0.00  0.00     0.163 HD
BRANCH  16  18
ATOM     18  C   UNL d   1      25.889 -14.479  -1.595  0.00  0.00     0.161 C 
BRANCH  18  19
ATOM     19  C   UNL d   1      25.684 -15.822  -0.979  0.00  0.00    -0.038 C 
ATOM     20  C   UNL d   1      26.535 -16.702  -0.274  0.00  0.00     0.012 C 
ATOM     21  C   UNL d   1      25.985 -17.901   0.255  0.00  0.00     0.040 C 
ATOM     22  C   UNL d   1      24.721 -18.231  -0.207  0.00  0.00     0.105 C 
ATOM     23  C   UNL d   1      24.318 -17.610  -1.336  0.00  0.00     0.105 C 
ATOM     24  O   UNL d   1      23.628 -18.949   0.230  0.00  0.00    -0.323 OA
ATOM     25  C   UNL d   1      24.441 -16.279  -1.297  0.00  0.00     0.048 C 
ATOM     26  O   UNL d   1      23.280 -18.201  -1.969  0.00  0.00    -0.323 OA
ATOM     27  C   UNL d   1      22.614 -18.493  -0.758  0.00  0.00     0.352 C 
ENDBRANCH  18  19
ENDBRANCH  16  18
ENDBRANCH   2  14
BRANCH   1  28
ATOM     28  N   UNL d   1      28.975 -16.619  -4.115  0.00  0.00    -0.384 N 
ATOM     29  H   UNL d   1      28.569 -16.841  -3.222  0.00  0.00     0.157 HD
ATOM     30  H   UNL d   1      29.867 -17.106  -4.137  0.00  0.00     0.157 HD
ENDBRANCH   1  28
BRANCH  13  31
ATOM     31  C   UNL d   1      30.696 -16.050  -6.110  0.00  0.00     0.171 C 
BRANCH  31  32
ATOM     32  C   UNL d   1      30.898 -17.452  -6.572  0.00  0.00    -0.040 A 
ATOM     33  C   UNL d   1      31.479 -17.604  -7.807  0.00  0.00     0.009 A 
ATOM     34  C   UNL d   1      31.532 -18.835  -8.424  0.00  0.00     0.001 A 
ATOM     35  C   UNL d   1      31.097 -19.975  -7.761  0.00  0.00     0.000 A 
ATOM     36  C   UNL d   1      30.579 -19.877  -6.472  0.00  0.00     0.001 A 
ATOM     37  C   UNL d   1      30.406 -18.608  -5.897  0.00  0.00     0.009 A 
ENDBRANCH  31  32
ENDBRANCH  13  31
TORSDOF 6
ENDMDL
MODEL 4
REMARK VINA RESULT:    -9.158      1.564      2.238
REMARK INTER + INTRA:         -11.687
REMARK INTER:                 -10.948
REMARK INTRA:                  -0.739
REMARK CONF_INDEPENDENT:        1.790
REMARK UNBOUND:                -0.739
REMARK  6 active torsions:
REMARK  status: ('A' for Active; 'I' for Inactive)
REMARK    1  A    between atoms: N_1  and  C_2 
REMARK    2  A    between atoms: C_3  and  C_4 
REMARK       I    between atoms: C_4  and  N_6 
REMARK    3  A    between atoms: N_6  and  C_7 
REMARK    4  A    between atoms: C_7  and  C_8 
REMARK    5  A    between atoms: N_27  and  C_28 
REMARK    6  A    between atoms: C_28  and  C_29 
ROOT
ATOM      1  C   UNL d   1      28.109 -13.868   3.716  0.00  0.00     0.121 C 
ATOM      2  C   UNL d   1      27.852 -13.228   2.521  0.00  0.00     0.108 C 
ATOM      3  C   UNL d   1      27.468 -11.915   2.837  0.00  0.00     0.123 C 
ATOM      4  N   UNL d   1      26.797 -11.075   2.025  0.00  0.00    -0.242 NA
ATOM      5  C   UNL d   1      26.730  -9.804   2.341  0.00  0.00     0.086 C 
ATOM      6  C   UNL d   1      25.872  -9.042   1.520  0.00  0.00     0.034 C 
ATOM      7  C   UNL d   1      25.882  -7.658   1.470  0.00  0.00     0.002 C 
ATOM      8  C   UNL d   1      26.798  -7.033   2.279  0.00  0.00     0.002 C 
ATOM      9  C   UNL d   1      27.491  -7.813   3.274  0.00  0.00     0.034 C 
ATOM     10  C   UNL d   1      27.472  -9.278   3.406  0.00  0.00     0.088 C 
ATOM     11  N   UNL d   1      28.035 -10.203   4.417  0.00  0.00    -0.226 NA
ATOM     12  C   UNL d   1      27.913 -11.574   4.113  0.00  0.00     0.162 C 
ATOM     13  N   UNL d   1      28.103 -12.882   4.755  0.00  0.00    -0.311 N 
ENDROOT
BRANCH   2  14
ATOM     14  C   UNL d   1      27.843 -13.733   1.154  0.00  0.00     0.258 C 
ATOM     15  O   UNL d   1      27.568 -13.088   0.178  0.00  0.00    -0.267 OA
ATOM     16  N   UNL d   1      28.222 -15.050   1.084  0.00  0.00    -0.352 N 
ATOM     17  H   UNL d   1      28.737 -15.421   1.836  0.00  0.00     0.163 HD
BRANCH  16  18
ATOM     18  C   UNL d   1      28.327 -15.718  -0.142  0.00  0.00     0.161 C 
BRANCH  18  19
ATOM     19  C   UNL d   1      27.070 -15.640  -0.944  0.00  0.00    -0.038 C 
ATOM     20  C   UNL d   1      25.743 -16.059  -0.703  0.00  0.00     0.012 C 
ATOM     21  C   UNL d   1      24.749 -15.755  -1.672  0.00  0.00     0.040 C 
ATOM     22  C   UNL d   1      25.225 -15.315  -2.896  0.00  0.00     0.105 C 
ATOM     23  C   UNL d   1      26.526 -15.564  -3.154  0.00  0.00     0.105 C 
ATOM     24  O   UNL d   1      24.781 -14.538  -3.945  0.00  0.00    -0.323 OA
ATOM     25  C   UNL d   1      27.358 -15.164  -2.186  0.00  0.00     0.048 C 
ATOM     26  O   UNL d   1      26.872 -15.477  -4.458  0.00  0.00    -0.323 OA
ATOM     27  C   UNL d   1      26.064 -14.338  -4.672  0.00  0.00     0.352 C 
ENDBRANCH  18  19
ENDBRANCH  16  18
ENDBRANCH   2  14
BRANCH   1  28
ATOM     28  N   UNL d   1      28.309 -15.196   4.000  0.00  0.00    -0.384 N 
ATOM     29  H   UNL d   1      29.136 -15.602   4.403  0.00  0.00     0.157 HD
ATOM     30  H   UNL d   1      27.799 -15.971   3.584  0.00  0.00     0.157 HD
ENDBRANCH   1  28
BRANCH  13  31
ATOM     31  C   UNL d   1      28.139 -13.551   6.130  0.00  0.00     0.171 C 
BRANCH  31  32
ATOM     32  C   UNL d   1      28.528 -12.934   7.429  0.00  0.00    -0.040 A 
ATOM     33  C   UNL d   1      28.645 -11.565   7.437  0.00  0.00     0.009 A 
ATOM     34  C   UNL d   1      29.191 -10.902   8.514  0.00  0.00     0.001 A 
ATOM     35  C   UNL d   1      29.536 -11.594   9.667  0.00  0.00     0.000 A 
ATOM     36  C   UNL d   1      29.354 -12.974   9.733  0.00  0.00     0.001 A 
ATOM     37  C   UNL d   1      28.920 -13.663   8.590  0.00  0.00     0.009 A 
ENDBRANCH  31  32
ENDBRANCH  13  31
TORSDOF 6
ENDMDL
MODEL 5
REMARK VINA RESULT:    -9.130      6.944     10.487
REMARK INTER + INTRA:         -11.569
REMARK INTER:                 -10.920
REMARK INTRA:                  -0.649
REMARK CONF_INDEPENDENT:        1.790
REMARK UNBOUND:                -0.649
REMARK  6 active torsions:
REMARK  status: ('A' for Active; 'I' for Inactive)
REMARK    1  A    between atoms: N_1  and  C_2 
REMARK    2  A    between atoms: C_3  and  C_4 
REMARK       I    between atoms: C_4  and  N_6 
REMARK    3  A    between atoms: N_6  and  C_7 
REMARK    4  A    between atoms: C_7  and  C_8 
REMARK    5  A    between atoms: N_27  and  C_28 
REMARK    6  A    between atoms: C_28  and  C_29 
ROOT
ATOM      1  C   UNL d   1      30.125 -17.553  -1.353  0.00  0.00     0.121 C 
ATOM      2  C   UNL d   1      30.828 -18.592  -1.926  0.00  0.00     0.108 C 
ATOM      3  C   UNL d   1      30.590 -18.532  -3.308  0.00  0.00     0.123 C 
ATOM      4  N   UNL d   1      30.778 -19.538  -4.184  0.00  0.00    -0.242 NA
ATOM      5  C   UNL d   1      30.767 -19.273  -5.468  0.00  0.00     0.086 C 
ATOM      6  C   UNL d   1      30.808 -20.412  -6.300  0.00  0.00     0.034 C 
ATOM      7  C   UNL d   1      31.111 -20.369  -7.651  0.00  0.00     0.002 C 
ATOM      8  C   UNL d   1      31.385 -19.127  -8.167  0.00  0.00     0.002 C 
ATOM      9  C   UNL d   1      31.106 -17.965  -7.361  0.00  0.00     0.034 C 
ATOM     10  C   UNL d   1      30.728 -17.956  -5.940  0.00  0.00     0.088 C 
ATOM     11  N   UNL d   1      30.315 -16.872  -5.017  0.00  0.00    -0.226 NA
ATOM     12  C   UNL d   1      30.160 -17.256  -3.670  0.00  0.00     0.162 C 
ATOM     13  N   UNL d   1      29.637 -16.715  -2.407  0.00  0.00    -0.311 N 
ENDROOT
BRANCH   2  14
ATOM     14  C   UNL d   1      31.608 -19.663  -1.317  0.00  0.00     0.258 C 
ATOM     15  O   UNL d   1      32.748 -19.931  -1.589  0.00  0.00    -0.267 OA
ATOM     16  N   UNL d   1      30.903 -20.335  -0.351  0.00  0.00    -0.352 N 
ATOM     17  H   UNL d   1      30.127 -19.883   0.050  0.00  0.00     0.163 HD
BRANCH  16  18
ATOM     18  C   UNL d   1      31.483 -21.371   0.391  0.00  0.00     0.161 C 
BRANCH  18  19
ATOM     19  C   UNL d   1      30.851 -21.533   1.734  0.00  0.00    -0.038 C 
ATOM     20  C   UNL d   1      29.523 -21.768   2.154  0.00  0.00     0.012 C 
ATOM     21  C   UNL d   1      29.272 -21.950   3.542  0.00  0.00     0.040 C 
ATOM     22  C   UNL d   1      30.316 -21.607   4.385  0.00  0.00     0.105 C 
ATOM     23  C   UNL d   1      31.278 -20.823   3.855  0.00  0.00     0.105 C 
ATOM     24  O   UNL d   1      30.766 -21.946   5.644  0.00  0.00    -0.323 OA
ATOM     25  C   UNL d   1      31.776 -21.279   2.700  0.00  0.00     0.048 C 
ATOM     26  O   UNL d   1      32.065 -20.200   4.761  0.00  0.00    -0.323 OA
ATOM     27  C   UNL d   1      32.122 -21.334   5.601  0.00  0.00     0.352 C 
ENDBRANCH  18  19
ENDBRANCH  16  18
ENDBRANCH   2  14
BRANCH   1  28
ATOM     28  N   UNL d   1      29.836 -17.279  -0.039  0.00  0.00    -0.384 N 
ATOM     29  H   UNL d   1      30.394 -17.530   0.759  0.00  0.00     0.157 HD
ATOM     30  H   UNL d   1      28.914 -17.063   0.329  0.00  0.00     0.157 HD
ENDBRANCH   1  28
BRANCH  13  31
ATOM     31  C   UNL d   1      28.648 -15.685  -1.860  0.00  0.00     0.171 C 
BRANCH  31  32
ATOM     32  C   UNL d   1      27.189 -15.867  -1.621  0.00  0.00    -0.040 A 
ATOM     33  C   UNL d   1      26.846 -16.720  -0.600  0.00  0.00     0.009 A 
ATOM     34  C   UNL d   1      25.541 -17.123  -0.415  0.00  0.00     0.001 A 
ATOM     35  C   UNL d   1      24.521 -16.589  -1.193  0.00  0.00     0.000 A 
ATOM     36  C   UNL d   1      24.816 -15.655  -2.183  0.00  0.00     0.001 A 
ATOM     37  C   UNL d   1      26.157 -15.344  -2.455  0.00  0.00     0.009 A 
ENDBRANCH  31  32
ENDBRANCH  13  31
TORSDOF 6
ENDMDL
MODEL 6
REMARK VINA RESULT:    -8.757      6.532      8.497
REMARK INTER + INTRA:         -11.947
REMARK INTER:                 -10.547
REMARK INTRA:                  -1.400
REMARK CONF_INDEPENDENT:        1.790
REMARK UNBOUND:                -1.400
REMARK  6 active torsions:
REMARK  status: ('A' for Active; 'I' for Inactive)
REMARK    1  A    between atoms: N_1  and  C_2 
REMARK    2  A    between atoms: C_3  and  C_4 
REMARK       I    between atoms: C_4  and  N_6 
REMARK    3  A    between atoms: N_6  and  C_7 
REMARK    4  A    between atoms: C_7  and  C_8 
REMARK    5  A    between atoms: N_27  and  C_28 
REMARK    6  A    between atoms: C_28  and  C_29 
ROOT
ATOM      1  C   UNL d   1      27.850 -16.960  -1.118  0.00  0.00     0.121 C 
ATOM      2  C   UNL d   1      28.521 -16.276  -2.110  0.00  0.00     0.108 C 
ATOM      3  C   UNL d   1      27.625 -15.328  -2.629  0.00  0.00     0.123 C 
ATOM      4  N   UNL d   1      27.736 -14.711  -3.822  0.00  0.00    -0.242 NA
ATOM      5  C   UNL d   1      26.982 -13.668  -4.069  0.00  0.00     0.086 C 
ATOM      6  C   UNL d   1      27.055 -13.196  -5.398  0.00  0.00     0.034 C 
ATOM      7  C   UNL d   1      26.598 -11.952  -5.800  0.00  0.00     0.002 C 
ATOM      8  C   UNL d   1      26.055 -11.163  -4.816  0.00  0.00     0.002 C 
ATOM      9  C   UNL d   1      25.777 -11.753  -3.530  0.00  0.00     0.034 C 
ATOM     10  C   UNL d   1      26.190 -13.088  -3.072  0.00  0.00     0.088 C 
ATOM     11  N   UNL d   1      25.898 -13.862  -1.842  0.00  0.00    -0.226 NA
ATOM     12  C   UNL d   1      26.603 -15.076  -1.715  0.00  0.00     0.162 C 
ATOM     13  N   UNL d   1      26.614 -16.279  -0.870  0.00  0.00    -0.311 N 
ENDROOT
BRANCH   2  14
ATOM     14  C   UNL d   1      29.852 -16.476  -2.668  0.00  0.00     0.258 C 
ATOM     15  O   UNL d   1      30.808 -16.878  -2.060  0.00  0.00    -0.267 OA
ATOM     16  N   UNL d   1      29.904 -16.180  -4.008  0.00  0.00    -0.352 N 
ATOM     17  H   UNL d   1      29.058 -16.178  -4.510  0.00  0.00     0.163 HD
BRANCH  16  18
ATOM     18  C   UNL d   1      31.078 -16.349  -4.750  0.00  0.00     0.161 C 
BRANCH  18  19
ATOM     19  C   UNL d   1      31.011 -17.527  -5.664  0.00  0.00    -0.038 C 
ATOM     20  C   UNL d   1      30.811 -17.660  -7.056  0.00  0.00     0.012 C 
ATOM     21  C   UNL d   1      30.881 -18.958  -7.631  0.00  0.00     0.040 C 
ATOM     22  C   UNL d   1      30.868 -20.010  -6.730  0.00  0.00     0.105 C 
ATOM     23  C   UNL d   1      30.435 -19.724  -5.485  0.00  0.00     0.105 C 
ATOM     24  O   UNL d   1      31.311 -21.315  -6.677  0.00  0.00    -0.323 OA
ATOM     25  C   UNL d   1      31.044 -18.671  -4.926  0.00  0.00     0.048 C 
ATOM     26  O   UNL d   1      30.075 -20.798  -4.747  0.00  0.00    -0.323 OA
ATOM     27  C   UNL d   1      31.156 -21.576  -5.220  0.00  0.00     0.352 C 
ENDBRANCH  18  19
ENDBRANCH  16  18
ENDBRANCH   2  14
BRANCH   1  28
ATOM     28  N   UNL d   1      28.172 -18.110  -0.441  0.00  0.00    -0.384 N 
ATOM     29  H   UNL d   1      27.527 -18.798  -0.092  0.00  0.00     0.157 HD
ATOM     30  H   UNL d   1      29.044 -18.277   0.053  0.00  0.00     0.157 HD
ENDBRANCH   1  28
BRANCH  13  31
ATOM     31  C   UNL d   1      25.713 -17.114   0.040  0.00  0.00     0.171 C 
BRANCH  31  32
ATOM     32  C   UNL d   1      24.292 -17.496  -0.193  0.00  0.00    -0.040 A 
ATOM     33  C   UNL d   1      24.008 -18.838  -0.134  0.00  0.00     0.009 A 
ATOM     34  C   UNL d   1      22.782 -19.327  -0.529  0.00  0.00     0.001 A 
ATOM     35  C   UNL d   1      21.762 -18.459  -0.895  0.00  0.00     0.000 A 
ATOM     36  C   UNL d   1      21.981 -17.083  -0.887  0.00  0.00     0.001 A 
ATOM     37  C   UNL d   1      23.267 -16.595  -0.609  0.00  0.00     0.009 A 
ENDBRANCH  31  32
ENDBRANCH  13  31
TORSDOF 6
ENDMDL
MODEL 7
REMARK VINA RESULT:    -8.528      3.787      7.855
REMARK INTER + INTRA:         -11.739
REMARK INTER:                 -10.318
REMARK INTRA:                  -1.421
REMARK CONF_INDEPENDENT:        1.790
REMARK UNBOUND:                -1.421
REMARK  6 active torsions:
REMARK  status: ('A' for Active; 'I' for Inactive)
REMARK    1  A    between atoms: N_1  and  C_2 
REMARK    2  A    between atoms: C_3  and  C_4 
REMARK       I    between atoms: C_4  and  N_6 
REMARK    3  A    between atoms: N_6  and  C_7 
REMARK    4  A    between atoms: C_7  and  C_8 
REMARK    5  A    between atoms: N_27  and  C_28 
REMARK    6  A    between atoms: C_28  and  C_29 
ROOT
ATOM      1  C   UNL d   1      26.314 -11.822  -3.301  0.00  0.00     0.121 C 
ATOM      2  C   UNL d   1      26.091 -12.978  -2.583  0.00  0.00     0.108 C 
ATOM      3  C   UNL d   1      26.779 -12.842  -1.367  0.00  0.00     0.123 C 
ATOM      4  N   UNL d   1      27.126 -13.849  -0.541  0.00  0.00    -0.242 NA
ATOM      5  C   UNL d   1      27.529 -13.564   0.673  0.00  0.00     0.086 C 
ATOM      6  C   UNL d   1      28.023 -14.670   1.399  0.00  0.00     0.034 C 
ATOM      7  C   UNL d   1      28.209 -14.669   2.772  0.00  0.00     0.002 C 
ATOM      8  C   UNL d   1      27.877 -13.508   3.424  0.00  0.00     0.002 C 
ATOM      9  C   UNL d   1      27.604 -12.327   2.642  0.00  0.00     0.034 C 
ATOM     10  C   UNL d   1      27.451 -12.262   1.181  0.00  0.00     0.088 C 
ATOM     11  N   UNL d   1      27.277 -11.131   0.239  0.00  0.00    -0.226 NA
ATOM     12  C   UNL d   1      27.029 -11.496  -1.100  0.00  0.00     0.162 C 
ATOM     13  N   UNL d   1      26.951 -10.878  -2.431  0.00  0.00    -0.311 N 
ENDROOT
BRANCH   2  14
ATOM     14  C   UNL d   1      25.393 -14.204  -2.948  0.00  0.00     0.258 C 
ATOM     15  O   UNL d   1      24.404 -14.263  -3.629  0.00  0.00    -0.267 OA
ATOM     16  N   UNL d   1      26.011 -15.323  -2.449  0.00  0.00    -0.352 N 
ATOM     17  H   UNL d   1      26.958 -15.249  -2.194  0.00  0.00     0.163 HD
BRANCH  16  18
ATOM     18  C   UNL d   1      25.531 -16.609  -2.723  0.00  0.00     0.161 C 
BRANCH  18  19
ATOM     19  C   UNL d   1      24.927 -17.260  -1.523  0.00  0.00    -0.038 C 
ATOM     20  C   UNL d   1      25.454 -17.666  -0.277  0.00  0.00     0.012 C 
ATOM     21  C   UNL d   1      24.565 -18.200   0.695  0.00  0.00     0.040 C 
ATOM     22  C   UNL d   1      23.302 -18.529   0.230  0.00  0.00     0.105 C 
ATOM     23  C   UNL d   1      23.173 -18.652  -1.108  0.00  0.00     0.105 C 
ATOM     24  O   UNL d   1      22.026 -18.652   0.737  0.00  0.00    -0.323 OA
ATOM     25  C   UNL d   1      23.639 -17.605  -1.798  0.00  0.00     0.048 C 
ATOM     26  O   UNL d   1      22.072 -19.325  -1.512  0.00  0.00    -0.323 OA
ATOM     27  C   UNL d   1      21.254 -18.720  -0.533  0.00  0.00     0.352 C 
ENDBRANCH  18  19
ENDBRANCH  16  18
ENDBRANCH   2  14
BRANCH   1  28
ATOM     28  N   UNL d   1      26.061 -11.515  -4.614  0.00  0.00    -0.384 N 
ATOM     29  H   UNL d   1      25.155 -11.446  -5.047  0.00  0.00     0.157 HD
ATOM     30  H   UNL d   1      26.723 -11.608  -5.379  0.00  0.00     0.157 HD
ENDBRANCH   1  28
BRANCH  13  31
ATOM     31  C   UNL d   1      27.445  -9.667  -3.223  0.00  0.00     0.171 C 
BRANCH  31  32
ATOM     32  C   UNL d   1      26.634  -8.735  -4.056  0.00  0.00    -0.040 A 
ATOM     33  C   UNL d   1      25.282  -8.729  -3.813  0.00  0.00     0.009 A 
ATOM     34  C   UNL d   1      24.410  -8.066  -4.649  0.00  0.00     0.001 A 
ATOM     35  C   UNL d   1      24.890  -7.294  -5.699  0.00  0.00     0.000 A 
ATOM     36  C   UNL d   1      26.260  -7.203  -5.928  0.00  0.00     0.001 A 
ATOM     37  C   UNL d   1      27.137  -7.981  -5.157  0.00  0.00     0.009 A 
ENDBRANCH  31  32
ENDBRANCH  13  31
TORSDOF 6
ENDMDL
MODEL 8
REMARK VINA RESULT:    -8.373      6.833      9.971
REMARK INTER + INTRA:         -11.619
REMARK INTER:                 -10.163
REMARK INTRA:                  -1.456
REMARK CONF_INDEPENDENT:        1.790
REMARK UNBOUND:                -1.456
REMARK  6 active torsions:
REMARK  status: ('A' for Active; 'I' for Inactive)
REMARK    1  A    between atoms: N_1  and  C_2 
REMARK    2  A    between atoms: C_3  and  C_4 
REMARK       I    between atoms: C_4  and  N_6 
REMARK    3  A    between atoms: N_6  and  C_7 
REMARK    4  A    between atoms: C_7  and  C_8 
REMARK    5  A    between atoms: N_27  and  C_28 
REMARK    6  A    between atoms: C_28  and  C_29 
ROOT
ATOM      1  C   UNL d   1      27.402 -13.302  -5.784  0.00  0.00     0.121 C 
ATOM      2  C   UNL d   1      27.921 -14.451  -5.226  0.00  0.00     0.108 C 
ATOM      3  C   UNL d   1      27.118 -14.764  -4.117  0.00  0.00     0.123 C 
ATOM      4  N   UNL d   1      27.464 -15.573  -3.097  0.00  0.00    -0.242 NA
ATOM      5  C   UNL d   1      26.536 -15.982  -2.267  0.00  0.00     0.086 C 
ATOM      6  C   UNL d   1      27.023 -16.686  -1.145  0.00  0.00     0.034 C 
ATOM      7  C   UNL d   1      26.229 -17.463  -0.318  0.00  0.00     0.002 C 
ATOM      8  C   UNL d   1      24.898 -17.526  -0.647  0.00  0.00     0.002 C 
ATOM      9  C   UNL d   1      24.386 -16.618  -1.644  0.00  0.00     0.034 C 
ATOM     10  C   UNL d   1      25.180 -15.733  -2.510  0.00  0.00     0.088 C 
ATOM     11  N   UNL d   1      24.804 -14.687  -3.491  0.00  0.00    -0.226 NA
ATOM     12  C   UNL d   1      25.874 -14.144  -4.230  0.00  0.00     0.162 C 
ATOM     13  N   UNL d   1      26.143 -13.034  -5.156  0.00  0.00    -0.311 N 
ENDROOT
BRANCH   2  14
ATOM     14  C   UNL d   1      29.115 -15.217  -5.561  0.00  0.00     0.258 C 
ATOM     15  O   UNL d   1      29.533 -15.399  -6.673  0.00  0.00    -0.267 OA
ATOM     16  N   UNL d   1      29.753 -15.699  -4.446  0.00  0.00    -0.352 N 
ATOM     17  H   UNL d   1      29.568 -15.261  -3.585  0.00  0.00     0.163 HD
BRANCH  16  18
ATOM     18  C   UNL d   1      30.948 -16.422  -4.542  0.00  0.00     0.161 C 
BRANCH  18  19
ATOM     19  C   UNL d   1      30.756 -17.764  -5.166  0.00  0.00    -0.038 C 
ATOM     20  C   UNL d   1      30.409 -19.030  -4.646  0.00  0.00     0.012 C 
ATOM     21  C   UNL d   1      30.233 -20.111  -5.552  0.00  0.00     0.040 C 
ATOM     22  C   UNL d   1      30.687 -19.888  -6.841  0.00  0.00     0.105 C 
ATOM     23  C   UNL d   1      31.544 -18.858  -7.002  0.00  0.00     0.105 C 
ATOM     24  O   UNL d   1      30.415 -20.344  -8.114  0.00  0.00    -0.323 OA
ATOM     25  C   UNL d   1      31.112 -17.705  -6.479  0.00  0.00     0.048 C 
ATOM     26  O   UNL d   1      32.254 -18.884  -8.152  0.00  0.00    -0.323 OA
ATOM     27  C   UNL d   1      31.147 -19.323  -8.911  0.00  0.00     0.352 C 
ENDBRANCH  18  19
ENDBRANCH  16  18
ENDBRANCH   2  14
BRANCH   1  28
ATOM     28  N   UNL d   1      27.911 -12.457  -6.739  0.00  0.00    -0.384 N 
ATOM     29  H   UNL d   1      28.674 -12.653  -7.364  0.00  0.00     0.157 HD
ATOM     30  H   UNL d   1      27.801 -11.447  -6.750  0.00  0.00     0.157 HD
ENDBRANCH   1  28
BRANCH  13  31
ATOM     31  C   UNL d   1      25.629 -11.649  -5.551  0.00  0.00     0.171 C 
BRANCH  31  32
ATOM     32  C   UNL d   1      25.725 -10.388  -4.764  0.00  0.00    -0.040 A 
ATOM     33  C   UNL d   1      26.284 -10.497  -3.514  0.00  0.00     0.009 A 
ATOM     34  C   UNL d   1      26.243  -9.449  -2.620  0.00  0.00     0.001 A 
ATOM     35  C   UNL d   1      25.730  -8.216  -3.002  0.00  0.00     0.000 A 
ATOM     36  C   UNL d   1      25.232  -8.038  -4.290  0.00  0.00     0.001 A 
ATOM     37  C   UNL d   1      25.156  -9.140  -5.155  0.00  0.00     0.009 A 
ENDBRANCH  31  32
ENDBRANCH  13  31
TORSDOF 6
ENDMDL
MODEL 9
REMARK VINA RESULT:    -8.142      7.024     10.729
REMARK INTER + INTRA:         -11.710
REMARK INTER:                  -9.931
REMARK INTRA:                  -1.778
REMARK CONF_INDEPENDENT:        1.790
REMARK UNBOUND:                -1.778
REMARK  6 active torsions:
REMARK  status: ('A' for Active; 'I' for Inactive)
REMARK    1  A    between atoms: N_1  and  C_2 
REMARK    2  A    between atoms: C_3  and  C_4 
REMARK       I    between atoms: C_4  and  N_6 
REMARK    3  A    between atoms: N_6  and  C_7 
REMARK    4  A    between atoms: C_7  and  C_8 
REMARK    5  A    between atoms: N_27  and  C_28 
REMARK    6  A    between atoms: C_28  and  C_29 
ROOT
ATOM      1  C   UNL d   1      29.374 -14.768  -6.436  0.00  0.00     0.121 C 
ATOM      2  C   UNL d   1      28.727 -15.192  -5.294  0.00  0.00     0.108 C 
ATOM      3  C   UNL d   1      29.705 -15.748  -4.454  0.00  0.00     0.123 C 
ATOM      4  N   UNL d   1      29.475 -16.588  -3.426  0.00  0.00    -0.242 NA
ATOM      5  C   UNL d   1      30.440 -16.823  -2.570  0.00  0.00     0.086 C 
ATOM      6  C   UNL d   1      30.154 -17.836  -1.630  0.00  0.00     0.034 C 
ATOM      7  C   UNL d   1      30.879 -18.035  -0.467  0.00  0.00     0.002 C 
ATOM      8  C   UNL d   1      31.927 -17.173  -0.255  0.00  0.00     0.002 C 
ATOM      9  C   UNL d   1      32.342 -16.310  -1.333  0.00  0.00     0.034 C 
ATOM     10  C   UNL d   1      31.640 -16.102  -2.608  0.00  0.00     0.088 C 
ATOM     11  N   UNL d   1      31.986 -15.343  -3.833  0.00  0.00    -0.226 NA
ATOM     12  C   UNL d   1      30.970 -15.279  -4.808  0.00  0.00     0.162 C 
ATOM     13  N   UNL d   1      30.784 -14.854  -6.203  0.00  0.00    -0.311 N 
ENDROOT
BRANCH   2  14
ATOM     14  C   UNL d   1      27.309 -15.213  -4.956  0.00  0.00     0.258 C 
ATOM     15  O   UNL d   1      26.410 -15.349  -5.742  0.00  0.00    -0.267 OA
ATOM     16  N   UNL d   1      27.095 -15.091  -3.606  0.00  0.00    -0.352 N 
ATOM     17  H   UNL d   1      27.839 -15.311  -3.001  0.00  0.00     0.163 HD
BRANCH  16  18
ATOM     18  C   UNL d   1      25.806 -15.135  -3.062  0.00  0.00     0.161 C 
BRANCH  18  19
ATOM     19  C   UNL d   1      25.686 -16.133  -1.959  0.00  0.00    -0.038 C 
ATOM     20  C   UNL d   1      26.627 -16.736  -1.095  0.00  0.00     0.012 C 
ATOM     21  C   UNL d   1      26.154 -17.612  -0.080  0.00  0.00     0.040 C 
ATOM     22  C   UNL d   1      24.832 -18.008  -0.204  0.00  0.00     0.105 C 
ATOM     23  C   UNL d   1      24.268 -17.832  -1.417  0.00  0.00     0.105 C 
ATOM     24  O   UNL d   1      23.813 -18.438   0.619  0.00  0.00    -0.323 OA
ATOM     25  C   UNL d   1      24.406 -16.594  -1.906  0.00  0.00     0.048 C 
ATOM     26  O   UNL d   1      23.142 -18.549  -1.629  0.00  0.00    -0.323 OA
ATOM     27  C   UNL d   1      22.664 -18.322  -0.319  0.00  0.00     0.352 C 
ENDBRANCH  18  19
ENDBRANCH  16  18
ENDBRANCH   2  14
BRANCH   1  28
ATOM     28  N   UNL d   1      28.880 -14.354  -7.648  0.00  0.00    -0.384 N 
ATOM     29  H   UNL d   1      28.182 -14.823  -8.200  0.00  0.00     0.157 HD
ATOM     30  H   UNL d   1      29.343 -13.709  -8.283  0.00  0.00     0.157 HD
ENDBRANCH   1  28
BRANCH  13  31
ATOM     31  C   UNL d   1      31.558 -14.632  -7.503  0.00  0.00     0.171 C 
BRANCH  31  32
ATOM     32  C   UNL d   1      32.320 -15.643  -8.289  0.00  0.00    -0.040 A 
ATOM     33  C   UNL d   1      31.990 -16.958  -8.062  0.00  0.00     0.009 A 
ATOM     34  C   UNL d   1      32.756 -17.983  -8.573  0.00  0.00     0.001 A 
ATOM     35  C   UNL d   1      33.820 -17.712  -9.424  0.00  0.00     0.000 A 
ATOM     36  C   UNL d   1      34.135 -16.395  -9.748  0.00  0.00     0.001 A 
ATOM     37  C   UNL d   1      33.437 -15.349  -9.125  0.00  0.00     0.009 A 
ENDBRANCH  31  32
ENDBRANCH  13  31
TORSDOF 6
ENDMDL
