MODEL 1
REMARK VINA RESULT:    -8.112      0.000      0.000
REMARK INTER + INTRA:         -16.221
REMARK INTER:                 -12.288
REMARK INTRA:                  -3.933
REMARK CONF_INDEPENDENT:        4.176
REMARK UNBOUND:                -3.933
REMARK  14 active torsions:
REMARK  status: ('A' for Active; 'I' for Inactive)
REMARK       I    between atoms: C_2  and  N_3 
REMARK    1  A    between atoms: C_2  and  C_27 
REMARK    2  A    between atoms: N_3  and  N_4 
REMARK    3  A    between atoms: N_4  and  C_5 
REMARK    4  A    between atoms: N_4  and  C_16 
REMARK    5  A    between atoms: C_6  and  C_5 
REMARK    6  A    between atoms: C_6  and  C_8 
REMARK    7  A    between atoms: C_6  and  O_7 
REMARK    8  A    between atoms: C_8  and  O_9 
REMARK    9  A    between atoms: O_9  and  C_10 
REMARK   10  A    between atoms: C_17  and  C_16 
REMARK   11  A    between atoms: C_17  and  C_19 
REMARK   12  A    between atoms: C_17  and  O_18 
REMARK   13  A    between atoms: C_19  and  O_20 
REMARK   14  A    between atoms: O_20  and  C_21 
ROOT
ATOM      1  N   UNL d   1      24.868 -16.141  -1.101  0.00  0.00    -0.224 NA
ENDROOT
BRANCH   1   2
ATOM      2  N   UNL d   1      25.760 -15.683  -2.147  0.00  0.00    -0.285 N 
ATOM      3  C   UNL d   1      25.273 -14.851  -3.147  0.00  0.00     0.266 C 
ATOM      4  O   UNL d   1      24.114 -14.441  -3.257  0.00  0.00    -0.266 OA
ATOM      5  H   UNL d   1      26.714 -15.463  -1.867  0.00  0.00     0.184 HD
BRANCH   3   6
ATOM      6  C   UNL d   1      26.207 -14.380  -4.180  0.00  0.00     0.033 A 
ATOM      7  C   UNL d   1      26.947 -15.200  -5.034  0.00  0.00     0.017 A 
ATOM      8  C   UNL d   1      27.855 -14.600  -5.913  0.00  0.00     0.001 A 
ATOM      9  C   UNL d   1      27.947 -13.203  -5.995  0.00  0.00     0.000 A 
ATOM     10  C   UNL d   1      27.150 -12.395  -5.194  0.00  0.00     0.001 A 
ATOM     11  C   UNL d   1      26.286 -12.985  -4.293  0.00  0.00     0.017 A 
ENDBRANCH   3   6
ENDBRANCH   1   2
BRANCH   1  12
ATOM     12  C   UNL d   1      23.959 -17.184  -1.642  0.00  0.00     0.147 C 
BRANCH  12  13
ATOM     13  C   UNL d   1      23.156 -17.917  -0.552  0.00  0.00     0.157 C 
BRANCH  13  14
ATOM     14  C   UNL d   1      21.685 -17.986  -0.832  0.00  0.00     0.208 C 
BRANCH  14  15
ATOM     15  O   UNL d   1      21.314 -19.354  -0.898  0.00  0.00    -0.349 OA
BRANCH  15  16
ATOM     16  C   UNL d   1      20.410 -19.700   0.055  0.00  0.00     0.068 A 
ATOM     17  C   UNL d   1      20.729 -19.326   1.355  0.00  0.00     0.037 A 
ATOM     18  C   UNL d   1      19.890 -19.702   2.400  0.00  0.00     0.003 A 
ATOM     19  C   UNL d   1      18.712 -20.398   2.128  0.00  0.00     0.000 A 
ATOM     20  C   UNL d   1      18.400 -20.774   0.825  0.00  0.00     0.003 A 
ATOM     21  C   UNL d   1      19.262 -20.445  -0.211  0.00  0.00     0.037 A 
ENDBRANCH  15  16
ENDBRANCH  14  15
ENDBRANCH  13  14
BRANCH  13  22
ATOM     22  O   UNL d   1      23.577 -19.262  -0.325  0.00  0.00    -0.392 OA
ATOM     23  H   UNL d   1      22.920 -19.708   0.227  0.00  0.00     0.210 HD
ENDBRANCH  13  22
ENDBRANCH  12  13
ENDBRANCH   1  12
BRANCH   1  24
ATOM     24  C   UNL d   1      25.617 -16.737   0.036  0.00  0.00     0.147 C 
BRANCH  24  25
ATOM     25  C   UNL d   1      26.771 -17.664  -0.397  0.00  0.00     0.157 C 
BRANCH  25  26
ATOM     26  C   UNL d   1      28.137 -17.083   0.011  0.00  0.00     0.208 C 
BRANCH  26  27
ATOM     27  O   UNL d   1      28.282 -15.770  -0.515  0.00  0.00    -0.349 OA
BRANCH  27  28
ATOM     28  C   UNL d   1      27.864 -14.736   0.274  0.00  0.00     0.068 A 
ATOM     29  C   UNL d   1      27.652 -13.531  -0.401  0.00  0.00     0.037 A 
ATOM     30  C   UNL d   1      27.416 -12.355   0.309  0.00  0.00     0.003 A 
ATOM     31  C   UNL d   1      27.320 -12.390   1.697  0.00  0.00     0.000 A 
ATOM     32  C   UNL d   1      27.487 -13.598   2.374  0.00  0.00     0.003 A 
ATOM     33  C   UNL d   1      27.766 -14.771   1.665  0.00  0.00     0.037 A 
ENDBRANCH  27  28
ENDBRANCH  26  27
ENDBRANCH  25  26
BRANCH  25  34
ATOM     34  O   UNL d   1      26.636 -18.956   0.225  0.00  0.00    -0.392 OA
ATOM     35  H   UNL d   1      25.689 -19.174   0.228  0.00  0.00     0.210 HD
ENDBRANCH  25  34
ENDBRANCH  24  25
ENDBRANCH   1  24
TORSDOF 14
ENDMDL
MODEL 2
REMARK VINA RESULT:    -7.174      2.048      2.853
REMARK INTER + INTRA:         -16.039
REMARK INTER:                 -11.350
REMARK INTRA:                  -4.689
REMARK CONF_INDEPENDENT:        4.176
REMARK UNBOUND:                -4.689
REMARK  14 active torsions:
REMARK  status: ('A' for Active; 'I' for Inactive)
REMARK       I    between atoms: C_2  and  N_3 
REMARK    1  A    between atoms: C_2  and  C_27 
REMARK    2  A    between atoms: N_3  and  N_4 
REMARK    3  A    between atoms: N_4  and  C_5 
REMARK    4  A    between atoms: N_4  and  C_16 
REMARK    5  A    between atoms: C_6  and  C_5 
REMARK    6  A    between atoms: C_6  and  C_8 
REMARK    7  A    between atoms: C_6  and  O_7 
REMARK    8  A    between atoms: C_8  and  O_9 
REMARK    9  A    between atoms: O_9  and  C_10 
REMARK   10  A    between atoms: C_17  and  C_16 
REMARK   11  A    between atoms: C_17  and  C_19 
REMARK   12  A    between atoms: C_17  and  O_18 
REMARK   13  A    between atoms: C_19  and  O_20 
REMARK   14  A    between atoms: O_20  and  C_21 
ROOT
ATOM      1  N   UNL d   1      25.079 -16.648  -1.210  0.00  0.00    -0.224 NA
ENDROOT
BRANCH   1   2
ATOM      2  N   UNL d   1      26.230 -16.355  -2.039  0.00  0.00    -0.285 N 
ATOM      3  C   UNL d   1      26.089 -15.502  -3.128  0.00  0.00     0.266 C 
ATOM      4  O   UNL d   1      25.051 -14.944  -3.490  0.00  0.00    -0.266 OA
ATOM      5  H   UNL d   1      27.122 -16.255  -1.560  0.00  0.00     0.184 HD
BRANCH   3   6
ATOM      6  C   UNL d   1      27.280 -15.201  -3.937  0.00  0.00     0.033 A 
ATOM      7  C   UNL d   1      28.582 -15.084  -3.445  0.00  0.00     0.017 A 
ATOM      8  C   UNL d   1      29.597 -14.714  -4.333  0.00  0.00     0.001 A 
ATOM      9  C   UNL d   1      29.325 -14.556  -5.698  0.00  0.00     0.000 A 
ATOM     10  C   UNL d   1      28.040 -14.749  -6.190  0.00  0.00     0.001 A 
ATOM     11  C   UNL d   1      27.026 -15.070  -5.309  0.00  0.00     0.017 A 
ENDBRANCH   3   6
ENDBRANCH   1   2
BRANCH   1  12
ATOM     12  C   UNL d   1      24.053 -17.362  -2.013  0.00  0.00     0.147 C 
BRANCH  12  13
ATOM     13  C   UNL d   1      23.203 -18.341  -1.184  0.00  0.00     0.157 C 
BRANCH  13  14
ATOM     14  C   UNL d   1      22.153 -17.670  -0.350  0.00  0.00     0.208 C 
BRANCH  14  15
ATOM     15  O   UNL d   1      20.884 -17.994  -0.896  0.00  0.00    -0.349 OA
BRANCH  15  16
ATOM     16  C   UNL d   1      20.243 -18.966  -0.195  0.00  0.00     0.068 A 
ATOM     17  C   UNL d   1      19.146 -19.543  -0.826  0.00  0.00     0.037 A 
ATOM     18  C   UNL d   1      18.393 -20.496  -0.149  0.00  0.00     0.003 A 
ATOM     19  C   UNL d   1      18.776 -20.906   1.129  0.00  0.00     0.000 A 
ATOM     20  C   UNL d   1      19.871 -20.321   1.758  0.00  0.00     0.003 A 
ATOM     21  C   UNL d   1      20.593 -19.332   1.104  0.00  0.00     0.037 A 
ENDBRANCH  15  16
ENDBRANCH  14  15
ENDBRANCH  13  14
BRANCH  13  22
ATOM     22  O   UNL d   1      22.518 -19.321  -1.965  0.00  0.00    -0.392 OA
ATOM     23  H   UNL d   1      21.695 -18.938  -2.298  0.00  0.00     0.210 HD
ENDBRANCH  13  22
ENDBRANCH  12  13
ENDBRANCH   1  12
BRANCH   1  24
ATOM     24  C   UNL d   1      25.440 -17.518  -0.059  0.00  0.00     0.147 C 
BRANCH  24  25
ATOM     25  C   UNL d   1      26.801 -17.172   0.579  0.00  0.00     0.157 C 
BRANCH  25  26
ATOM     26  C   UNL d   1      27.954 -17.899  -0.137  0.00  0.00     0.208 C 
BRANCH  26  27
ATOM     27  O   UNL d   1      28.663 -16.987  -0.965  0.00  0.00    -0.349 OA
BRANCH  27  28
ATOM     28  C   UNL d   1      30.011 -16.887  -0.765  0.00  0.00     0.068 A 
ATOM     29  C   UNL d   1      30.468 -15.599  -0.477  0.00  0.00     0.037 A 
ATOM     30  C   UNL d   1      31.834 -15.323  -0.446  0.00  0.00     0.003 A 
ATOM     31  C   UNL d   1      32.753 -16.352  -0.632  0.00  0.00     0.000 A 
ATOM     32  C   UNL d   1      32.303 -17.649  -0.875  0.00  0.00     0.003 A 
ATOM     33  C   UNL d   1      30.933 -17.918  -0.949  0.00  0.00     0.037 A 
ENDBRANCH  27  28
ENDBRANCH  26  27
ENDBRANCH  25  26
BRANCH  25  34
ATOM     34  O   UNL d   1      27.049 -15.756   0.493  0.00  0.00    -0.392 OA
ATOM     35  H   UNL d   1      26.294 -15.362   0.024  0.00  0.00     0.210 HD
ENDBRANCH  25  34
ENDBRANCH  24  25
ENDBRANCH   1  24
TORSDOF 14
ENDMDL
MODEL 3
REMARK VINA RESULT:    -7.125      1.752      2.821
REMARK INTER + INTRA:         -16.927
REMARK INTER:                 -11.301
REMARK INTRA:                  -5.626
REMARK CONF_INDEPENDENT:        4.176
REMARK UNBOUND:                -5.626
REMARK  14 active torsions:
REMARK  status: ('A' for Active; 'I' for Inactive)
REMARK       I    between atoms: C_2  and  N_3 
REMARK    1  A    between atoms: C_2  and  C_27 
REMARK    2  A    between atoms: N_3  and  N_4 
REMARK    3  A    between atoms: N_4  and  C_5 
REMARK    4  A    between atoms: N_4  and  C_16 
REMARK    5  A    between atoms: C_6  and  C_5 
REMARK    6  A    between atoms: C_6  and  C_8 
REMARK    7  A    between atoms: C_6  and  O_7 
REMARK    8  A    between atoms: C_8  and  O_9 
REMARK    9  A    between atoms: O_9  and  C_10 
REMARK   10  A    between atoms: C_17  and  C_16 
REMARK   11  A    between atoms: C_17  and  C_19 
REMARK   12  A    between atoms: C_17  and  O_18 
REMARK   13  A    between atoms: C_19  and  O_20 
REMARK   14  A    between atoms: O_20  and  C_21 
ROOT
ATOM      1  N   UNL d   1      25.278 -16.762  -0.684  0.00  0.00    -0.224 NA
ENDROOT
BRANCH   1   2
ATOM      2  N   UNL d   1      25.898 -16.002  -1.750  0.00  0.00    -0.285 N 
ATOM      3  C   UNL d   1      25.122 -15.144  -2.520  0.00  0.00     0.266 C 
ATOM      4  O   UNL d   1      23.910 -14.947  -2.398  0.00  0.00    -0.266 OA
ATOM      5  H   UNL d   1      26.835 -15.649  -1.572  0.00  0.00     0.184 HD
BRANCH   3   6
ATOM      6  C   UNL d   1      25.782 -14.366  -3.578  0.00  0.00     0.033 A 
ATOM      7  C   UNL d   1      26.401 -14.903  -4.709  0.00  0.00     0.017 A 
ATOM      8  C   UNL d   1      27.056 -14.033  -5.586  0.00  0.00     0.001 A 
ATOM      9  C   UNL d   1      27.008 -12.647  -5.380  0.00  0.00     0.000 A 
ATOM     10  C   UNL d   1      26.324 -12.118  -4.294  0.00  0.00     0.001 A 
ATOM     11  C   UNL d   1      25.715 -12.977  -3.400  0.00  0.00     0.017 A 
ENDBRANCH   3   6
ENDBRANCH   1   2
BRANCH   1  12
ATOM     12  C   UNL d   1      24.500 -17.888  -1.259  0.00  0.00     0.147 C 
BRANCH  12  13
ATOM     13  C   UNL d   1      22.980 -17.641  -1.259  0.00  0.00     0.157 C 
BRANCH  13  14
ATOM     14  C   UNL d   1      22.212 -18.616  -0.418  0.00  0.00     0.208 C 
BRANCH  14  15
ATOM     15  O   UNL d   1      20.856 -18.586  -0.838  0.00  0.00    -0.349 OA
BRANCH  15  16
ATOM     16  C   UNL d   1      20.042 -19.325  -0.040  0.00  0.00     0.068 A 
ATOM     17  C   UNL d   1      20.375 -19.345   1.309  0.00  0.00     0.037 A 
ATOM     18  C   UNL d   1      19.633 -20.133   2.184  0.00  0.00     0.003 A 
ATOM     19  C   UNL d   1      18.532 -20.848   1.711  0.00  0.00     0.000 A 
ATOM     20  C   UNL d   1      18.208 -20.829   0.358  0.00  0.00     0.003 A 
ATOM     21  C   UNL d   1      18.978 -20.084  -0.524  0.00  0.00     0.037 A 
ENDBRANCH  15  16
ENDBRANCH  14  15
ENDBRANCH  13  14
BRANCH  13  22
ATOM     22  O   UNL d   1      22.603 -16.342  -0.799  0.00  0.00    -0.392 OA
ATOM     23  H   UNL d   1      23.398 -15.861  -0.530  0.00  0.00     0.210 HD
ENDBRANCH  13  22
ENDBRANCH  12  13
ENDBRANCH   1  12
BRANCH   1  24
ATOM     24  C   UNL d   1      26.291 -17.336   0.241  0.00  0.00     0.147 C 
BRANCH  24  25
ATOM     25  C   UNL d   1      27.409 -16.347   0.630  0.00  0.00     0.157 C 
BRANCH  25  26
ATOM     26  C   UNL d   1      28.610 -16.458  -0.326  0.00  0.00     0.208 C 
BRANCH  26  27
ATOM     27  O   UNL d   1      28.632 -15.345  -1.209  0.00  0.00    -0.349 OA
BRANCH  27  28
ATOM     28  C   UNL d   1      29.238 -15.526  -2.420  0.00  0.00     0.068 A 
ATOM     29  C   UNL d   1      29.832 -14.380  -2.956  0.00  0.00     0.037 A 
ATOM     30  C   UNL d   1      30.309 -14.378  -4.266  0.00  0.00     0.003 A 
ATOM     31  C   UNL d   1      30.261 -15.545  -5.024  0.00  0.00     0.000 A 
ATOM     32  C   UNL d   1      29.710 -16.704  -4.478  0.00  0.00     0.003 A 
ATOM     33  C   UNL d   1      29.192 -16.695  -3.179  0.00  0.00     0.037 A 
ENDBRANCH  27  28
ENDBRANCH  26  27
ENDBRANCH  25  26
BRANCH  25  34
ATOM     34  O   UNL d   1      26.922 -14.992   0.574  0.00  0.00    -0.392 OA
ATOM     35  H   UNL d   1      25.963 -15.041   0.418  0.00  0.00     0.210 HD
ENDBRANCH  25  34
ENDBRANCH  24  25
ENDBRANCH   1  24
TORSDOF 14
ENDMDL
MODEL 4
REMARK VINA RESULT:    -6.481      2.732      8.386
REMARK INTER + INTRA:         -16.953
REMARK INTER:                 -10.657
REMARK INTRA:                  -6.297
REMARK CONF_INDEPENDENT:        4.176
REMARK UNBOUND:                -6.297
REMARK  14 active torsions:
REMARK  status: ('A' for Active; 'I' for Inactive)
REMARK       I    between atoms: C_2  and  N_3 
REMARK    1  A    between atoms: C_2  and  C_27 
REMARK    2  A    between atoms: N_3  and  N_4 
REMARK    3  A    between atoms: N_4  and  C_5 
REMARK    4  A    between atoms: N_4  and  C_16 
REMARK    5  A    between atoms: C_6  and  C_5 
REMARK    6  A    between atoms: C_6  and  C_8 
REMARK    7  A    between atoms: C_6  and  O_7 
REMARK    8  A    between atoms: C_8  and  O_9 
REMARK    9  A    between atoms: O_9  and  C_10 
REMARK   10  A    between atoms: C_17  and  C_16 
REMARK   11  A    between atoms: C_17  and  C_19 
REMARK   12  A    between atoms: C_17  and  O_18 
REMARK   13  A    between atoms: C_19  and  O_20 
REMARK   14  A    between atoms: O_20  and  C_21 
ROOT
ATOM      1  N   UNL d   1      28.230 -14.798   1.311  0.00  0.00    -0.224 NA
ENDROOT
BRANCH   1   2
ATOM      2  N   UNL d   1      28.760 -14.650   2.651  0.00  0.00    -0.285 N 
ATOM      3  C   UNL d   1      27.980 -14.053   3.634  0.00  0.00     0.266 C 
ATOM      4  O   UNL d   1      26.839 -13.609   3.492  0.00  0.00    -0.266 OA
ATOM      5  H   UNL d   1      29.334 -15.415   2.999  0.00  0.00     0.184 HD
BRANCH   3   6
ATOM      6  C   UNL d   1      28.534 -13.940   4.992  0.00  0.00     0.033 A 
ATOM      7  C   UNL d   1      29.678 -14.595   5.454  0.00  0.00     0.017 A 
ATOM      8  C   UNL d   1      30.032 -14.446   6.799  0.00  0.00     0.001 A 
ATOM      9  C   UNL d   1      29.306 -13.586   7.634  0.00  0.00     0.000 A 
ATOM     10  C   UNL d   1      28.215 -12.880   7.144  0.00  0.00     0.001 A 
ATOM     11  C   UNL d   1      27.835 -13.060   5.828  0.00  0.00     0.017 A 
ENDBRANCH   3   6
ENDBRANCH   1   2
BRANCH   1  12
ATOM     12  C   UNL d   1      28.281 -13.491   0.607  0.00  0.00     0.147 C 
BRANCH  12  13
ATOM     13  C   UNL d   1      26.926 -13.064   0.015  0.00  0.00     0.157 C 
BRANCH  13  14
ATOM     14  C   UNL d   1      26.995 -12.676  -1.432  0.00  0.00     0.208 C 
BRANCH  14  15
ATOM     15  O   UNL d   1      26.123 -13.528  -2.158  0.00  0.00    -0.349 OA
BRANCH  15  16
ATOM     16  C   UNL d   1      26.635 -13.904  -3.359  0.00  0.00     0.068 A 
ATOM     17  C   UNL d   1      25.822 -14.725  -4.132  0.00  0.00     0.037 A 
ATOM     18  C   UNL d   1      26.299 -15.210  -5.345  0.00  0.00     0.003 A 
ATOM     19  C   UNL d   1      27.561 -14.825  -5.801  0.00  0.00     0.000 A 
ATOM     20  C   UNL d   1      28.372 -14.007  -5.020  0.00  0.00     0.003 A 
ATOM     21  C   UNL d   1      27.918 -13.564  -3.785  0.00  0.00     0.037 A 
ENDBRANCH  15  16
ENDBRANCH  14  15
ENDBRANCH  13  14
BRANCH  13  22
ATOM     22  O   UNL d   1      25.911 -14.065   0.106  0.00  0.00    -0.392 OA
ATOM     23  H   UNL d   1      26.331 -14.935   0.153  0.00  0.00     0.210 HD
ENDBRANCH  13  22
ENDBRANCH  12  13
ENDBRANCH   1  12
BRANCH   1  24
ATOM     24  C   UNL d   1      29.017 -15.775   0.514  0.00  0.00     0.147 C 
BRANCH  24  25
ATOM     25  C   UNL d   1      28.160 -16.637  -0.435  0.00  0.00     0.157 C 
BRANCH  25  26
ATOM     26  C   UNL d   1      27.012 -17.328   0.323  0.00  0.00     0.208 C 
BRANCH  26  27
ATOM     27  O   UNL d   1      25.825 -16.553   0.216  0.00  0.00    -0.349 OA
BRANCH  27  28
ATOM     28  C   UNL d   1      24.699 -17.198  -0.211  0.00  0.00     0.068 A 
ATOM     29  C   UNL d   1      23.630 -16.359  -0.537  0.00  0.00     0.037 A 
ATOM     30  C   UNL d   1      22.368 -16.890  -0.797  0.00  0.00     0.003 A 
ATOM     31  C   UNL d   1      22.184 -18.270  -0.803  0.00  0.00     0.000 A 
ATOM     32  C   UNL d   1      23.258 -19.114  -0.522  0.00  0.00     0.003 A 
ATOM     33  C   UNL d   1      24.515 -18.580  -0.220  0.00  0.00     0.037 A 
ENDBRANCH  27  28
ENDBRANCH  26  27
ENDBRANCH  25  26
BRANCH  25  34
ATOM     34  O   UNL d   1      27.581 -15.820  -1.469  0.00  0.00    -0.392 OA
ATOM     35  H   UNL d   1      27.021 -15.158  -1.029  0.00  0.00     0.210 HD
ENDBRANCH  25  34
ENDBRANCH  24  25
ENDBRANCH   1  24
TORSDOF 14
ENDMDL
MODEL 5
REMARK VINA RESULT:    -6.102      3.198      6.363
REMARK INTER + INTRA:         -16.267
REMARK INTER:                 -10.278
REMARK INTRA:                  -5.989
REMARK CONF_INDEPENDENT:        4.176
REMARK UNBOUND:                -5.989
REMARK  14 active torsions:
REMARK  status: ('A' for Active; 'I' for Inactive)
REMARK       I    between atoms: C_2  and  N_3 
REMARK    1  A    between atoms: C_2  and  C_27 
REMARK    2  A    between atoms: N_3  and  N_4 
REMARK    3  A    between atoms: N_4  and  C_5 
REMARK    4  A    between atoms: N_4  and  C_16 
REMARK    5  A    between atoms: C_6  and  C_5 
REMARK    6  A    between atoms: C_6  and  C_8 
REMARK    7  A    between atoms: C_6  and  O_7 
REMARK    8  A    between atoms: C_8  and  O_9 
REMARK    9  A    between atoms: O_9  and  C_10 
REMARK   10  A    between atoms: C_17  and  C_16 
REMARK   11  A    between atoms: C_17  and  C_19 
REMARK   12  A    between atoms: C_17  and  O_18 
REMARK   13  A    between atoms: C_19  and  O_20 
REMARK   14  A    between atoms: O_20  and  C_21 
ROOT
ATOM      1  N   UNL d   1      26.080 -12.588  -3.265  0.00  0.00    -0.224 NA
ENDROOT
BRANCH   1   2
ATOM      2  N   UNL d   1      25.499 -11.285  -3.519  0.00  0.00    -0.285 N 
ATOM      3  C   UNL d   1      26.222 -10.342  -4.241  0.00  0.00     0.266 C 
ATOM      4  O   UNL d   1      27.354 -10.490  -4.708  0.00  0.00    -0.266 OA
ATOM      5  H   UNL d   1      24.500 -11.262  -3.711  0.00  0.00     0.184 HD
BRANCH   3   6
ATOM      6  C   UNL d   1      25.598  -9.038  -4.507  0.00  0.00     0.033 A 
ATOM      7  C   UNL d   1      25.797  -7.879  -3.753  0.00  0.00     0.017 A 
ATOM      8  C   UNL d   1      25.067  -6.734  -4.088  0.00  0.00     0.001 A 
ATOM      9  C   UNL d   1      24.227  -6.729  -5.211  0.00  0.00     0.000 A 
ATOM     10  C   UNL d   1      24.096  -7.865  -5.999  0.00  0.00     0.001 A 
ATOM     11  C   UNL d   1      24.780  -9.012  -5.644  0.00  0.00     0.017 A 
ENDBRANCH   3   6
ENDBRANCH   1   2
BRANCH   1  12
ATOM     12  C   UNL d   1      26.586 -12.645  -1.869  0.00  0.00     0.147 C 
BRANCH  12  13
ATOM     13  C   UNL d   1      27.359 -13.938  -1.555  0.00  0.00     0.157 C 
BRANCH  13  14
ATOM     14  C   UNL d   1      26.574 -14.930  -0.751  0.00  0.00     0.208 C 
BRANCH  14  15
ATOM     15  O   UNL d   1      26.067 -15.914  -1.640  0.00  0.00    -0.349 OA
BRANCH  15  16
ATOM     16  C   UNL d   1      25.006 -16.589  -1.127  0.00  0.00     0.068 A 
ATOM     17  C   UNL d   1      25.303 -17.791  -0.495  0.00  0.00     0.037 A 
ATOM     18  C   UNL d   1      24.266 -18.578  -0.003  0.00  0.00     0.003 A 
ATOM     19  C   UNL d   1      22.948 -18.129  -0.096  0.00  0.00     0.000 A 
ATOM     20  C   UNL d   1      22.657 -16.927  -0.734  0.00  0.00     0.003 A 
ATOM     21  C   UNL d   1      23.686 -16.166  -1.272  0.00  0.00     0.037 A 
ENDBRANCH  15  16
ENDBRANCH  14  15
ENDBRANCH  13  14
BRANCH  13  22
ATOM     22  O   UNL d   1      27.813 -14.641  -2.713  0.00  0.00    -0.392 OA
ATOM     23  H   UNL d   1      27.055 -14.819  -3.289  0.00  0.00     0.210 HD
ENDBRANCH  13  22
ENDBRANCH  12  13
ENDBRANCH   1  12
BRANCH   1  24
ATOM     24  C   UNL d   1      25.080 -13.675  -3.431  0.00  0.00     0.147 C 
BRANCH  24  25
ATOM     25  C   UNL d   1      25.350 -14.588  -4.644  0.00  0.00     0.157 C 
BRANCH  25  26
ATOM     26  C   UNL d   1      26.622 -14.155  -5.396  0.00  0.00     0.208 C 
BRANCH  26  27
ATOM     27  O   UNL d   1      27.570 -15.214  -5.395  0.00  0.00    -0.349 OA
BRANCH  27  28
ATOM     28  C   UNL d   1      28.721 -15.016  -6.103  0.00  0.00     0.068 A 
ATOM     29  C   UNL d   1      29.676 -16.026  -5.965  0.00  0.00     0.037 A 
ATOM     30  C   UNL d   1      30.964 -15.857  -6.472  0.00  0.00     0.003 A 
ATOM     31  C   UNL d   1      31.282 -14.704  -7.185  0.00  0.00     0.000 A 
ATOM     32  C   UNL d   1      30.319 -13.711  -7.365  0.00  0.00     0.003 A 
ATOM     33  C   UNL d   1      29.040 -13.863  -6.820  0.00  0.00     0.037 A 
ENDBRANCH  27  28
ENDBRANCH  26  27
ENDBRANCH  25  26
BRANCH  25  34
ATOM     34  O   UNL d   1      25.530 -15.951  -4.216  0.00  0.00    -0.392 OA
ATOM     35  H   UNL d   1      26.390 -15.996  -3.765  0.00  0.00     0.210 HD
ENDBRANCH  25  34
ENDBRANCH  24  25
ENDBRANCH   1  24
TORSDOF 14
ENDMDL
MODEL 6
REMARK VINA RESULT:    -5.877      3.646      7.985
REMARK INTER + INTRA:         -16.038
REMARK INTER:                 -10.053
REMARK INTRA:                  -5.984
REMARK CONF_INDEPENDENT:        4.176
REMARK UNBOUND:                -5.984
REMARK  14 active torsions:
REMARK  status: ('A' for Active; 'I' for Inactive)
REMARK       I    between atoms: C_2  and  N_3 
REMARK    1  A    between atoms: C_2  and  C_27 
REMARK    2  A    between atoms: N_3  and  N_4 
REMARK    3  A    between atoms: N_4  and  C_5 
REMARK    4  A    between atoms: N_4  and  C_16 
REMARK    5  A    between atoms: C_6  and  C_5 
REMARK    6  A    between atoms: C_6  and  C_8 
REMARK    7  A    between atoms: C_6  and  O_7 
REMARK    8  A    between atoms: C_8  and  O_9 
REMARK    9  A    between atoms: O_9  and  C_10 
REMARK   10  A    between atoms: C_17  and  C_16 
REMARK   11  A    between atoms: C_17  and  C_19 
REMARK   12  A    between atoms: C_17  and  O_18 
REMARK   13  A    between atoms: C_19  and  O_20 
REMARK   14  A    between atoms: O_20  and  C_21 
ROOT
ATOM      1  N   UNL d   1      26.429 -12.715  -4.639  0.00  0.00    -0.224 NA
ENDROOT
BRANCH   1   2
ATOM      2  N   UNL d   1      25.610 -11.526  -4.753  0.00  0.00    -0.285 N 
ATOM      3  C   UNL d   1      26.217 -10.277  -4.804  0.00  0.00     0.266 C 
ATOM      4  O   UNL d   1      27.429 -10.051  -4.756  0.00  0.00    -0.266 OA
ATOM      5  H   UNL d   1      24.784 -11.598  -5.344  0.00  0.00     0.184 HD
BRANCH   3   6
ATOM      6  C   UNL d   1      25.362  -9.089  -4.946  0.00  0.00     0.033 A 
ATOM      7  C   UNL d   1      24.388  -8.909  -5.931  0.00  0.00     0.017 A 
ATOM      8  C   UNL d   1      23.710  -7.687  -5.981  0.00  0.00     0.001 A 
ATOM      9  C   UNL d   1      23.942  -6.706  -5.007  0.00  0.00     0.000 A 
ATOM     10  C   UNL d   1      24.858  -6.926  -3.987  0.00  0.00     0.001 A 
ATOM     11  C   UNL d   1      25.562  -8.113  -3.961  0.00  0.00     0.017 A 
ENDBRANCH   3   6
ENDBRANCH   1   2
BRANCH   1  12
ATOM     12  C   UNL d   1      27.353 -12.797  -5.800  0.00  0.00     0.147 C 
BRANCH  12  13
ATOM     13  C   UNL d   1      27.784 -14.237  -6.134  0.00  0.00     0.157 C 
BRANCH  13  14
ATOM     14  C   UNL d   1      29.220 -14.526  -5.815  0.00  0.00     0.208 C 
BRANCH  14  15
ATOM     15  O   UNL d   1      29.256 -15.544  -4.828  0.00  0.00    -0.349 OA
BRANCH  15  16
ATOM     16  C   UNL d   1      29.876 -16.673  -5.259  0.00  0.00     0.068 A 
ATOM     17  C   UNL d   1      30.029 -17.679  -4.312  0.00  0.00     0.037 A 
ATOM     18  C   UNL d   1      30.715 -18.840  -4.653  0.00  0.00     0.003 A 
ATOM     19  C   UNL d   1      31.191 -19.009  -5.954  0.00  0.00     0.000 A 
ATOM     20  C   UNL d   1      31.040 -17.997  -6.897  0.00  0.00     0.003 A 
ATOM     21  C   UNL d   1      30.402 -16.816  -6.542  0.00  0.00     0.037 A 
ENDBRANCH  15  16
ENDBRANCH  14  15
ENDBRANCH  13  14
BRANCH  13  22
ATOM     22  O   UNL d   1      27.022 -15.242  -5.463  0.00  0.00    -0.392 OA
ATOM     23  H   UNL d   1      27.018 -15.051  -4.515  0.00  0.00     0.210 HD
ENDBRANCH  13  22
ENDBRANCH  12  13
ENDBRANCH   1  12
BRANCH   1  24
ATOM     24  C   UNL d   1      27.254 -12.696  -3.403  0.00  0.00     0.147 C 
BRANCH  24  25
ATOM     25  C   UNL d   1      26.940 -13.849  -2.429  0.00  0.00     0.157 C 
BRANCH  25  26
ATOM     26  C   UNL d   1      25.553 -14.455  -2.709  0.00  0.00     0.208 C 
BRANCH  26  27
ATOM     27  O   UNL d   1      25.677 -15.843  -2.988  0.00  0.00    -0.349 OA
BRANCH  27  28
ATOM     28  C   UNL d   1      25.542 -16.702  -1.934  0.00  0.00     0.068 A 
ATOM     29  C   UNL d   1      24.232 -17.114  -1.676  0.00  0.00     0.037 A 
ATOM     30  C   UNL d   1      23.931 -17.829  -0.518  0.00  0.00     0.003 A 
ATOM     31  C   UNL d   1      24.951 -18.198   0.355  0.00  0.00     0.000 A 
ATOM     32  C   UNL d   1      26.267 -17.827   0.080  0.00  0.00     0.003 A 
ATOM     33  C   UNL d   1      26.564 -17.073  -1.060  0.00  0.00     0.037 A 
ENDBRANCH  27  28
ENDBRANCH  26  27
ENDBRANCH  25  26
BRANCH  25  34
ATOM     34  O   UNL d   1      27.917 -14.898  -2.563  0.00  0.00    -0.392 OA
ATOM     35  H   UNL d   1      27.725 -15.361  -3.396  0.00  0.00     0.210 HD
ENDBRANCH  25  34
ENDBRANCH  24  25
ENDBRANCH   1  24
TORSDOF 14
ENDMDL
