MODEL 1
REMARK VINA RESULT:    -7.640      0.000      0.000
REMARK INTER + INTRA:         -10.564
REMARK INTER:                  -9.430
REMARK INTRA:                  -1.134
REMARK CONF_INDEPENDENT:        1.790
REMARK UNBOUND:                -1.134
REMARK  6 active torsions:
REMARK  status: ('A' for Active; 'I' for Inactive)
REMARK    1  A    between atoms: O_2  and  C_3 
REMARK    2  A    between atoms: C_9  and  N_10 
REMARK    3  A    between atoms: N_10  and  C_11 
REMARK    4  A    between atoms: C_11  and  C_13 
REMARK       I    between atoms: C_13  and  N_15 
REMARK       I    between atoms: N_15  and  C_16 
REMARK       I    between atoms: C_16  and  N_18 
REMARK    5  A    between atoms: N_18  and  C_19 
REMARK    6  A    between atoms: C_19  and  C_20 
ROOT
ATOM      1  C   UNL d   1      25.912 -14.702  -3.990  0.00  0.00     0.247 C 
ATOM      2  O   UNL d   1      25.322 -15.046  -5.020  0.00  0.00    -0.271 OA
ATOM      3  N   UNL d   1      27.310 -14.714  -3.846  0.00  0.00    -0.278 N 
ATOM      4  C   UNL d   1      28.148 -15.162  -4.849  0.00  0.00     0.323 C 
ATOM      5  O   UNL d   1      27.751 -15.575  -5.940  0.00  0.00    -0.247 OA
ATOM      6  N   UNL d   1      29.500 -15.122  -4.583  0.00  0.00    -0.339 N 
ATOM      7  H   UNL d   1      27.719 -14.387  -2.984  0.00  0.00     0.173 HD
ATOM      8  H   UNL d   1      29.867 -14.887  -3.674  0.00  0.00     0.164 HD
ENDROOT
BRANCH   1   9
ATOM      9  C   UNL d   1      25.071 -14.241  -2.760  0.00  0.00     0.170 C 
ATOM     10  C   UNL d   1      26.041 -13.635  -1.752  0.00  0.00     0.042 C 
BRANCH   9  11
ATOM     11  N   UNL d   1      24.367 -15.385  -2.129  0.00  0.00    -0.375 N 
ATOM     12  H   UNL d   1      23.364 -15.422  -2.311  0.00  0.00     0.160 HD
BRANCH  11  13
ATOM     13  C   UNL d   1      24.961 -16.373  -1.342  0.00  0.00     0.063 A 
ATOM     14  C   UNL d   1      26.378 -16.466  -1.327  0.00  0.00     0.038 A 
ATOM     15  C   UNL d   1      27.060 -17.408  -0.524  0.00  0.00    -0.060 A 
ATOM     16  C   UNL d   1      26.322 -18.255   0.298  0.00  0.00     0.009 A 
ATOM     17  C   UNL d   1      28.559 -17.531  -0.534  0.00  0.00     0.048 C 
ATOM     18  C   UNL d   1      24.936 -18.190   0.307  0.00  0.00     0.039 A 
ATOM     19  C   UNL d   1      24.255 -17.279  -0.507  0.00  0.00     0.094 A 
BRANCH  19  20
ATOM     20  O   UNL d   1      22.878 -17.361  -0.564  0.00  0.00    -0.354 OA
ATOM     21  C   UNL d   1      22.356 -18.663  -0.857  0.00  0.00     0.210 C 
ENDBRANCH  19  20
ENDBRANCH  11  13
ENDBRANCH   9  11
ENDBRANCH   1   9
BRANCH   6  22
ATOM     22  C   UNL d   1      30.474 -15.530  -5.615  0.00  0.00     0.162 C 
BRANCH  22  23
ATOM     23  C   UNL d   1      30.544 -17.028  -5.856  0.00  0.00    -0.040 A 
ATOM     24  C   UNL d   1      30.782 -17.536  -7.149  0.00  0.00     0.009 A 
ATOM     25  C   UNL d   1      30.851 -18.919  -7.376  0.00  0.00     0.001 A 
ATOM     26  C   UNL d   1      30.681 -19.808  -6.317  0.00  0.00     0.000 A 
ATOM     27  C   UNL d   1      30.450 -19.319  -5.037  0.00  0.00     0.001 A 
ATOM     28  C   UNL d   1      30.386 -17.945  -4.811  0.00  0.00     0.009 A 
ENDBRANCH  22  23
ENDBRANCH   6  22
TORSDOF 6
ENDMDL
MODEL 2
REMARK VINA RESULT:    -7.389      1.733      7.853
REMARK INTER + INTRA:         -10.262
REMARK INTER:                  -9.179
REMARK INTRA:                  -1.083
REMARK CONF_INDEPENDENT:        1.790
REMARK UNBOUND:                -1.083
REMARK  6 active torsions:
REMARK  status: ('A' for Active; 'I' for Inactive)
REMARK    1  A    between atoms: O_2  and  C_3 
REMARK    2  A    between atoms: C_9  and  N_10 
REMARK    3  A    between atoms: N_10  and  C_11 
REMARK    4  A    between atoms: C_11  and  C_13 
REMARK       I    between atoms: C_13  and  N_15 
REMARK       I    between atoms: N_15  and  C_16 
REMARK       I    between atoms: C_16  and  N_18 
REMARK    5  A    between atoms: N_18  and  C_19 
REMARK    6  A    between atoms: C_19  and  C_20 
ROOT
ATOM      1  C   UNL d   1      28.202 -15.215  -5.495  0.00  0.00     0.247 C 
ATOM      2  O   UNL d   1      27.443 -15.115  -6.465  0.00  0.00    -0.271 OA
ATOM      3  N   UNL d   1      27.766 -15.273  -4.161  0.00  0.00    -0.278 N 
ATOM      4  C   UNL d   1      26.430 -15.176  -3.821  0.00  0.00     0.323 C 
ATOM      5  O   UNL d   1      25.521 -15.041  -4.642  0.00  0.00    -0.247 OA
ATOM      6  N   UNL d   1      26.133 -15.247  -2.477  0.00  0.00    -0.339 N 
ATOM      7  H   UNL d   1      28.446 -15.387  -3.425  0.00  0.00     0.173 HD
ATOM      8  H   UNL d   1      26.845 -15.256  -1.763  0.00  0.00     0.164 HD
ENDROOT
BRANCH   1   9
ATOM      9  C   UNL d   1      29.741 -15.263  -5.746  0.00  0.00     0.170 C 
ATOM     10  C   UNL d   1      30.220 -13.823  -5.895  0.00  0.00     0.042 C 
BRANCH   9  11
ATOM     11  N   UNL d   1      30.061 -16.013  -6.986  0.00  0.00    -0.375 N 
ATOM     12  H   UNL d   1      29.732 -15.575  -7.847  0.00  0.00     0.160 HD
BRANCH  11  13
ATOM     13  C   UNL d   1      30.758 -17.221  -7.051  0.00  0.00     0.063 A 
ATOM     14  C   UNL d   1      30.415 -18.250  -6.134  0.00  0.00     0.038 A 
ATOM     15  C   UNL d   1      31.038 -19.518  -6.160  0.00  0.00    -0.060 A 
ATOM     16  C   UNL d   1      32.003 -19.776  -7.132  0.00  0.00     0.009 A 
ATOM     17  C   UNL d   1      30.701 -20.596  -5.168  0.00  0.00     0.048 C 
ATOM     18  C   UNL d   1      32.361 -18.793  -8.042  0.00  0.00     0.039 A 
ATOM     19  C   UNL d   1      31.766 -17.527  -8.003  0.00  0.00     0.094 A 
BRANCH  19  20
ATOM     20  O   UNL d   1      32.268 -16.547  -8.836  0.00  0.00    -0.354 OA
ATOM     21  C   UNL d   1      32.742 -15.367  -8.175  0.00  0.00     0.210 C 
ENDBRANCH  19  20
ENDBRANCH  11  13
ENDBRANCH   9  11
ENDBRANCH   1   9
BRANCH   6  22
ATOM     22  C   UNL d   1      24.728 -15.206  -2.022  0.00  0.00     0.162 C 
BRANCH  22  23
ATOM     23  C   UNL d   1      24.281 -16.436  -1.251  0.00  0.00    -0.040 A 
ATOM     24  C   UNL d   1      25.218 -17.410  -0.848  0.00  0.00     0.009 A 
ATOM     25  C   UNL d   1      24.810 -18.546  -0.133  0.00  0.00     0.001 A 
ATOM     26  C   UNL d   1      23.466 -18.724   0.187  0.00  0.00     0.000 A 
ATOM     27  C   UNL d   1      22.534 -17.768  -0.200  0.00  0.00     0.001 A 
ATOM     28  C   UNL d   1      22.940 -16.637  -0.908  0.00  0.00     0.009 A 
ENDBRANCH  22  23
ENDBRANCH   6  22
TORSDOF 6
ENDMDL
MODEL 3
REMARK VINA RESULT:    -7.363      7.268      9.170
REMARK INTER + INTRA:         -10.679
REMARK INTER:                  -9.153
REMARK INTRA:                  -1.526
REMARK CONF_INDEPENDENT:        1.790
REMARK UNBOUND:                -1.526
REMARK  6 active torsions:
REMARK  status: ('A' for Active; 'I' for Inactive)
REMARK    1  A    between atoms: O_2  and  C_3 
REMARK    2  A    between atoms: C_9  and  N_10 
REMARK    3  A    between atoms: N_10  and  C_11 
REMARK    4  A    between atoms: C_11  and  C_13 
REMARK       I    between atoms: C_13  and  N_15 
REMARK       I    between atoms: N_15  and  C_16 
REMARK       I    between atoms: C_16  and  N_18 
REMARK    5  A    between atoms: N_18  and  C_19 
REMARK    6  A    between atoms: C_19  and  C_20 
ROOT
ATOM      1  C   UNL d   1      27.801 -13.781   3.381  0.00  0.00     0.247 C 
ATOM      2  O   UNL d   1      26.877 -13.013   3.095  0.00  0.00    -0.271 OA
ATOM      3  N   UNL d   1      28.240 -14.825   2.549  0.00  0.00    -0.278 N 
ATOM      4  C   UNL d   1      27.628 -15.109   1.343  0.00  0.00     0.323 C 
ATOM      5  O   UNL d   1      26.669 -14.477   0.895  0.00  0.00    -0.247 OA
ATOM      6  N   UNL d   1      28.153 -16.158   0.620  0.00  0.00    -0.339 N 
ATOM      7  H   UNL d   1      29.023 -15.390   2.839  0.00  0.00     0.173 HD
ATOM      8  H   UNL d   1      28.870 -16.766   0.988  0.00  0.00     0.164 HD
ENDROOT
BRANCH   1   9
ATOM      9  C   UNL d   1      28.528 -13.607   4.751  0.00  0.00     0.170 C 
ATOM     10  C   UNL d   1      28.441 -14.943   5.480  0.00  0.00     0.042 C 
BRANCH   9  11
ATOM     11  N   UNL d   1      27.877 -12.560   5.576  0.00  0.00    -0.375 N 
ATOM     12  H   UNL d   1      27.029 -12.161   5.171  0.00  0.00     0.160 HD
BRANCH  11  13
ATOM     13  C   UNL d   1      28.324 -12.106   6.818  0.00  0.00     0.063 A 
ATOM     14  C   UNL d   1      28.155 -12.950   7.948  0.00  0.00     0.038 A 
ATOM     15  C   UNL d   1      28.619 -12.587   9.233  0.00  0.00    -0.060 A 
ATOM     16  C   UNL d   1      29.287 -11.375   9.392  0.00  0.00     0.009 A 
ATOM     17  C   UNL d   1      28.409 -13.464  10.436  0.00  0.00     0.048 C 
ATOM     18  C   UNL d   1      29.468 -10.528   8.309  0.00  0.00     0.039 A 
ATOM     19  C   UNL d   1      28.987 -10.870   7.041  0.00  0.00     0.094 A 
BRANCH  19  20
ATOM     20  O   UNL d   1      29.067  -9.925   6.038  0.00  0.00    -0.354 OA
ATOM     21  C   UNL d   1      29.897 -10.282   4.926  0.00  0.00     0.210 C 
ENDBRANCH  19  20
ENDBRANCH  11  13
ENDBRANCH   9  11
ENDBRANCH   1   9
BRANCH   6  22
ATOM     22  C   UNL d   1      27.600 -16.501  -0.705  0.00  0.00     0.162 C 
BRANCH  22  23
ATOM     23  C   UNL d   1      26.151 -16.956  -0.683  0.00  0.00    -0.040 A 
ATOM     24  C   UNL d   1      25.785 -18.152  -0.031  0.00  0.00     0.009 A 
ATOM     25  C   UNL d   1      24.448 -18.575  -0.005  0.00  0.00     0.001 A 
ATOM     26  C   UNL d   1      23.463 -17.813  -0.630  0.00  0.00     0.000 A 
ATOM     27  C   UNL d   1      23.811 -16.630  -1.271  0.00  0.00     0.001 A 
ATOM     28  C   UNL d   1      25.139 -16.207  -1.294  0.00  0.00     0.009 A 
ENDBRANCH  22  23
ENDBRANCH   6  22
TORSDOF 6
ENDMDL
MODEL 4
REMARK VINA RESULT:    -7.244      7.333      9.237
REMARK INTER + INTRA:         -10.438
REMARK INTER:                  -9.034
REMARK INTRA:                  -1.405
REMARK CONF_INDEPENDENT:        1.790
REMARK UNBOUND:                -1.405
REMARK  6 active torsions:
REMARK  status: ('A' for Active; 'I' for Inactive)
REMARK    1  A    between atoms: O_2  and  C_3 
REMARK    2  A    between atoms: C_9  and  N_10 
REMARK    3  A    between atoms: N_10  and  C_11 
REMARK    4  A    between atoms: C_11  and  C_13 
REMARK       I    between atoms: C_13  and  N_15 
REMARK       I    between atoms: N_15  and  C_16 
REMARK       I    between atoms: C_16  and  N_18 
REMARK    5  A    between atoms: N_18  and  C_19 
REMARK    6  A    between atoms: C_19  and  C_20 
ROOT
ATOM      1  C   UNL d   1      27.852 -13.785   3.463  0.00  0.00     0.247 C 
ATOM      2  O   UNL d   1      26.927 -13.009   3.203  0.00  0.00    -0.271 OA
ATOM      3  N   UNL d   1      28.276 -14.817   2.609  0.00  0.00    -0.278 N 
ATOM      4  C   UNL d   1      27.649 -15.077   1.405  0.00  0.00     0.323 C 
ATOM      5  O   UNL d   1      26.687 -14.434   0.980  0.00  0.00    -0.247 OA
ATOM      6  N   UNL d   1      28.160 -16.116   0.658  0.00  0.00    -0.339 N 
ATOM      7  H   UNL d   1      29.061 -15.389   2.878  0.00  0.00     0.173 HD
ATOM      8  H   UNL d   1      28.879 -16.732   1.006  0.00  0.00     0.164 HD
ENDROOT
BRANCH   1   9
ATOM      9  C   UNL d   1      28.596 -13.638   4.827  0.00  0.00     0.170 C 
ATOM     10  C   UNL d   1      28.564 -15.002   5.508  0.00  0.00     0.042 C 
BRANCH   9  11
ATOM     11  N   UNL d   1      27.927 -12.642   5.700  0.00  0.00    -0.375 N 
ATOM     12  H   UNL d   1      26.946 -12.470   5.479  0.00  0.00     0.160 HD
BRANCH  11  13
ATOM     13  C   UNL d   1      28.524 -11.958   6.762  0.00  0.00     0.063 A 
ATOM     14  C   UNL d   1      28.908 -10.606   6.565  0.00  0.00     0.038 A 
ATOM     15  C   UNL d   1      29.476  -9.828   7.599  0.00  0.00    -0.060 A 
ATOM     16  C   UNL d   1      29.642 -10.398   8.859  0.00  0.00     0.009 A 
ATOM     17  C   UNL d   1      29.916  -8.407   7.382  0.00  0.00     0.048 C 
ATOM     18  C   UNL d   1      29.277 -11.717   9.084  0.00  0.00     0.039 A 
ATOM     19  C   UNL d   1      28.740 -12.500   8.057  0.00  0.00     0.094 A 
BRANCH  19  20
ATOM     20  O   UNL d   1      28.534 -13.843   8.301  0.00  0.00    -0.354 OA
ATOM     21  C   UNL d   1      29.445 -14.441   9.231  0.00  0.00     0.210 C 
ENDBRANCH  19  20
ENDBRANCH  11  13
ENDBRANCH   9  11
ENDBRANCH   1   9
BRANCH   6  22
ATOM     22  C   UNL d   1      27.589 -16.433  -0.666  0.00  0.00     0.162 C 
BRANCH  22  23
ATOM     23  C   UNL d   1      26.149 -16.913  -0.631  0.00  0.00    -0.040 A 
ATOM     24  C   UNL d   1      25.796 -18.072   0.092  0.00  0.00     0.009 A 
ATOM     25  C   UNL d   1      24.466 -18.517   0.130  0.00  0.00     0.001 A 
ATOM     26  C   UNL d   1      23.476 -17.814  -0.552  0.00  0.00     0.000 A 
ATOM     27  C   UNL d   1      23.810 -16.668  -1.264  0.00  0.00     0.001 A 
ATOM     28  C   UNL d   1      25.131 -16.223  -1.299  0.00  0.00     0.009 A 
ENDBRANCH  22  23
ENDBRANCH   6  22
TORSDOF 6
ENDMDL
MODEL 5
REMARK VINA RESULT:    -7.232      1.623      6.925
REMARK INTER + INTRA:         -10.725
REMARK INTER:                  -9.021
REMARK INTRA:                  -1.703
REMARK CONF_INDEPENDENT:        1.790
REMARK UNBOUND:                -1.703
REMARK  6 active torsions:
REMARK  status: ('A' for Active; 'I' for Inactive)
REMARK    1  A    between atoms: O_2  and  C_3 
REMARK    2  A    between atoms: C_9  and  N_10 
REMARK    3  A    between atoms: N_10  and  C_11 
REMARK    4  A    between atoms: C_11  and  C_13 
REMARK       I    between atoms: C_13  and  N_15 
REMARK       I    between atoms: N_15  and  C_16 
REMARK       I    between atoms: C_16  and  N_18 
REMARK    5  A    between atoms: N_18  and  C_19 
REMARK    6  A    between atoms: C_19  and  C_20 
ROOT
ATOM      1  C   UNL d   1      28.180 -15.195  -5.552  0.00  0.00     0.247 C 
ATOM      2  O   UNL d   1      27.414 -15.139  -6.520  0.00  0.00    -0.271 OA
ATOM      3  N   UNL d   1      27.753 -15.234  -4.214  0.00  0.00    -0.278 N 
ATOM      4  C   UNL d   1      26.417 -15.165  -3.868  0.00  0.00     0.323 C 
ATOM      5  O   UNL d   1      25.500 -15.075  -4.687  0.00  0.00    -0.247 OA
ATOM      6  N   UNL d   1      26.129 -15.214  -2.521  0.00  0.00    -0.339 N 
ATOM      7  H   UNL d   1      28.439 -15.312  -3.480  0.00  0.00     0.173 HD
ATOM      8  H   UNL d   1      26.845 -15.187  -1.812  0.00  0.00     0.164 HD
ENDROOT
BRANCH   1   9
ATOM      9  C   UNL d   1      29.719 -15.208  -5.811  0.00  0.00     0.170 C 
ATOM     10  C   UNL d   1      30.037 -14.010  -6.699  0.00  0.00     0.042 C 
BRANCH   9  11
ATOM     11  N   UNL d   1      30.138 -16.451  -6.504  0.00  0.00    -0.375 N 
ATOM     12  H   UNL d   1      30.218 -16.370  -7.518  0.00  0.00     0.160 HD
BRANCH  11  13
ATOM     13  C   UNL d   1      30.424 -17.671  -5.887  0.00  0.00     0.063 A 
ATOM     14  C   UNL d   1      30.808 -18.768  -6.702  0.00  0.00     0.038 A 
ATOM     15  C   UNL d   1      31.157 -20.024  -6.155  0.00  0.00    -0.060 A 
ATOM     16  C   UNL d   1      31.149 -20.183  -4.771  0.00  0.00     0.009 A 
ATOM     17  C   UNL d   1      31.530 -21.196  -7.018  0.00  0.00     0.048 C 
ATOM     18  C   UNL d   1      30.778 -19.131  -3.947  0.00  0.00     0.039 A 
ATOM     19  C   UNL d   1      30.405 -17.894  -4.484  0.00  0.00     0.094 A 
BRANCH  19  20
ATOM     20  O   UNL d   1      29.906 -16.936  -3.625  0.00  0.00    -0.354 OA
ATOM     21  C   UNL d   1      30.187 -17.154  -2.237  0.00  0.00     0.210 C 
ENDBRANCH  19  20
ENDBRANCH  11  13
ENDBRANCH   9  11
ENDBRANCH   1   9
BRANCH   6  22
ATOM     22  C   UNL d   1      24.726 -15.200  -2.059  0.00  0.00     0.162 C 
BRANCH  22  23
ATOM     23  C   UNL d   1      24.316 -16.426  -1.262  0.00  0.00    -0.040 A 
ATOM     24  C   UNL d   1      22.969 -16.626  -0.895  0.00  0.00     0.009 A 
ATOM     25  C   UNL d   1      22.584 -17.759  -0.163  0.00  0.00     0.001 A 
ATOM     26  C   UNL d   1      23.538 -18.702   0.214  0.00  0.00     0.000 A 
ATOM     27  C   UNL d   1      24.868 -18.519  -0.145  0.00  0.00     0.001 A 
ATOM     28  C   UNL d   1      25.249 -17.395  -0.877  0.00  0.00     0.009 A 
ENDBRANCH  22  23
ENDBRANCH   6  22
TORSDOF 6
ENDMDL
MODEL 6
REMARK VINA RESULT:    -7.214      1.520      2.595
REMARK INTER + INTRA:         -11.465
REMARK INTER:                  -9.004
REMARK INTRA:                  -2.462
REMARK CONF_INDEPENDENT:        1.790
REMARK UNBOUND:                -2.462
REMARK  6 active torsions:
REMARK  status: ('A' for Active; 'I' for Inactive)
REMARK    1  A    between atoms: O_2  and  C_3 
REMARK    2  A    between atoms: C_9  and  N_10 
REMARK    3  A    between atoms: N_10  and  C_11 
REMARK    4  A    between atoms: C_11  and  C_13 
REMARK       I    between atoms: C_13  and  N_15 
REMARK       I    between atoms: N_15  and  C_16 
REMARK       I    between atoms: C_16  and  N_18 
REMARK    5  A    between atoms: N_18  and  C_19 
REMARK    6  A    between atoms: C_19  and  C_20 
ROOT
ATOM      1  C   UNL d   1      26.665 -15.160  -4.535  0.00  0.00     0.247 C 
ATOM      2  O   UNL d   1      26.655 -15.200  -5.770  0.00  0.00    -0.271 OA
ATOM      3  N   UNL d   1      27.750 -15.575  -3.746  0.00  0.00    -0.278 N 
ATOM      4  C   UNL d   1      28.896 -16.113  -4.298  0.00  0.00     0.323 C 
ATOM      5  O   UNL d   1      29.068 -16.265  -5.509  0.00  0.00    -0.247 OA
ATOM      6  N   UNL d   1      29.889 -16.481  -3.416  0.00  0.00    -0.339 N 
ATOM      7  H   UNL d   1      27.694 -15.481  -2.743  0.00  0.00     0.173 HD
ATOM      8  H   UNL d   1      29.758 -16.470  -2.416  0.00  0.00     0.164 HD
ENDROOT
BRANCH   1   9
ATOM      9  C   UNL d   1      25.398 -14.636  -3.789  0.00  0.00     0.170 C 
ATOM     10  C   UNL d   1      25.224 -13.170  -4.172  0.00  0.00     0.042 C 
BRANCH   9  11
ATOM     11  N   UNL d   1      25.559 -14.738  -2.318  0.00  0.00    -0.375 N 
ATOM     12  H   UNL d   1      25.778 -13.858  -1.849  0.00  0.00     0.160 HD
BRANCH  11  13
ATOM     13  C   UNL d   1      25.432 -15.906  -1.564  0.00  0.00     0.063 A 
ATOM     14  C   UNL d   1      24.128 -16.375  -1.256  0.00  0.00     0.038 A 
ATOM     15  C   UNL d   1      23.910 -17.572  -0.537  0.00  0.00    -0.060 A 
ATOM     16  C   UNL d   1      25.008 -18.330  -0.139  0.00  0.00     0.009 A 
ATOM     17  C   UNL d   1      22.530 -18.050  -0.179  0.00  0.00     0.048 C 
ATOM     18  C   UNL d   1      26.296 -17.900  -0.424  0.00  0.00     0.039 A 
ATOM     19  C   UNL d   1      26.518 -16.702  -1.112  0.00  0.00     0.094 A 
BRANCH  19  20
ATOM     20  O   UNL d   1      27.818 -16.255  -1.236  0.00  0.00    -0.354 OA
ATOM     21  C   UNL d   1      28.700 -16.639  -0.174  0.00  0.00     0.210 C 
ENDBRANCH  19  20
ENDBRANCH  11  13
ENDBRANCH   9  11
ENDBRANCH   1   9
BRANCH   6  22
ATOM     22  C   UNL d   1      31.171 -17.016  -3.917  0.00  0.00     0.162 C 
BRANCH  22  23
ATOM     23  C   UNL d   1      31.031 -18.099  -4.972  0.00  0.00    -0.040 A 
ATOM     24  C   UNL d   1      31.354 -17.835  -6.319  0.00  0.00     0.009 A 
ATOM     25  C   UNL d   1      31.229 -18.834  -7.296  0.00  0.00     0.001 A 
ATOM     26  C   UNL d   1      30.779 -20.104  -6.942  0.00  0.00     0.000 A 
ATOM     27  C   UNL d   1      30.462 -20.378  -5.617  0.00  0.00     0.001 A 
ATOM     28  C   UNL d   1      30.590 -19.386  -4.645  0.00  0.00     0.009 A 
ENDBRANCH  22  23
ENDBRANCH   6  22
TORSDOF 6
ENDMDL
MODEL 7
REMARK VINA RESULT:    -7.053      3.897      8.732
REMARK INTER + INTRA:         -10.359
REMARK INTER:                  -8.843
REMARK INTRA:                  -1.516
REMARK CONF_INDEPENDENT:        1.790
REMARK UNBOUND:                -1.516
REMARK  6 active torsions:
REMARK  status: ('A' for Active; 'I' for Inactive)
REMARK    1  A    between atoms: O_2  and  C_3 
REMARK    2  A    between atoms: C_9  and  N_10 
REMARK    3  A    between atoms: N_10  and  C_11 
REMARK    4  A    between atoms: C_11  and  C_13 
REMARK       I    between atoms: C_13  and  N_15 
REMARK       I    between atoms: N_15  and  C_16 
REMARK       I    between atoms: C_16  and  N_18 
REMARK    5  A    between atoms: N_18  and  C_19 
REMARK    6  A    between atoms: C_19  and  C_20 
ROOT
ATOM      1  C   UNL d   1      24.838 -17.584  -0.356  0.00  0.00     0.247 C 
ATOM      2  O   UNL d   1      25.372 -18.682  -0.171  0.00  0.00    -0.271 OA
ATOM      3  N   UNL d   1      23.477 -17.415  -0.662  0.00  0.00    -0.278 N 
ATOM      4  C   UNL d   1      22.624 -18.488  -0.829  0.00  0.00     0.323 C 
ATOM      5  O   UNL d   1      22.972 -19.665  -0.717  0.00  0.00    -0.247 OA
ATOM      6  N   UNL d   1      21.312 -18.189  -1.127  0.00  0.00    -0.339 N 
ATOM      7  H   UNL d   1      23.108 -16.482  -0.767  0.00  0.00     0.173 HD
ATOM      8  H   UNL d   1      21.001 -17.250  -1.327  0.00  0.00     0.164 HD
ENDROOT
BRANCH   1   9
ATOM      9  C   UNL d   1      25.714 -16.296  -0.264  0.00  0.00     0.170 C 
ATOM     10  C   UNL d   1      25.701 -15.642  -1.641  0.00  0.00     0.042 C 
BRANCH   9  11
ATOM     11  N   UNL d   1      27.114 -16.622   0.106  0.00  0.00    -0.375 N 
ATOM     12  H   UNL d   1      27.369 -17.604  -0.010  0.00  0.00     0.160 HD
BRANCH  11  13
ATOM     13  C   UNL d   1      28.064 -15.715   0.577  0.00  0.00     0.063 A 
ATOM     14  C   UNL d   1      27.711 -14.863   1.657  0.00  0.00     0.038 A 
ATOM     15  C   UNL d   1      28.627 -13.948   2.223  0.00  0.00    -0.060 A 
ATOM     16  C   UNL d   1      29.927 -13.897   1.723  0.00  0.00     0.009 A 
ATOM     17  C   UNL d   1      28.244 -13.021   3.343  0.00  0.00     0.048 C 
ATOM     18  C   UNL d   1      30.304 -14.716   0.669  0.00  0.00     0.039 A 
ATOM     19  C   UNL d   1      29.393 -15.604   0.087  0.00  0.00     0.094 A 
BRANCH  19  20
ATOM     20  O   UNL d   1      29.782 -16.283  -1.050  0.00  0.00    -0.354 OA
ATOM     21  C   UNL d   1      30.205 -17.635  -0.840  0.00  0.00     0.210 C 
ENDBRANCH  19  20
ENDBRANCH  11  13
ENDBRANCH   9  11
ENDBRANCH   1   9
BRANCH   6  22
ATOM     22  C   UNL d   1      20.315 -19.269  -1.270  0.00  0.00     0.162 C 
BRANCH  22  23
ATOM     23  C   UNL d   1      19.781 -19.810   0.044  0.00  0.00    -0.040 A 
ATOM     24  C   UNL d   1      18.624 -20.615   0.072  0.00  0.00     0.009 A 
ATOM     25  C   UNL d   1      18.129 -21.120   1.284  0.00  0.00     0.001 A 
ATOM     26  C   UNL d   1      18.780 -20.825   2.480  0.00  0.00     0.000 A 
ATOM     27  C   UNL d   1      19.924 -20.036   2.465  0.00  0.00     0.001 A 
ATOM     28  C   UNL d   1      20.419 -19.538   1.260  0.00  0.00     0.009 A 
ENDBRANCH  22  23
ENDBRANCH   6  22
TORSDOF 6
ENDMDL
MODEL 8
REMARK VINA RESULT:    -5.970      3.906      6.841
REMARK INTER + INTRA:         -10.214
REMARK INTER:                  -7.759
REMARK INTRA:                  -2.454
REMARK CONF_INDEPENDENT:        1.790
REMARK UNBOUND:                -2.454
REMARK  6 active torsions:
REMARK  status: ('A' for Active; 'I' for Inactive)
REMARK    1  A    between atoms: O_2  and  C_3 
REMARK    2  A    between atoms: C_9  and  N_10 
REMARK    3  A    between atoms: N_10  and  C_11 
REMARK    4  A    between atoms: C_11  and  C_13 
REMARK       I    between atoms: C_13  and  N_15 
REMARK       I    between atoms: N_15  and  C_16 
REMARK       I    between atoms: C_16  and  N_18 
REMARK    5  A    between atoms: N_18  and  C_19 
REMARK    6  A    between atoms: C_19  and  C_20 
ROOT
ATOM      1  C   UNL d   1      26.685 -13.605  -1.850  0.00  0.00     0.247 C 
ATOM      2  O   UNL d   1      26.299 -12.438  -1.726  0.00  0.00    -0.271 OA
ATOM      3  N   UNL d   1      27.625 -14.214  -1.002  0.00  0.00    -0.278 N 
ATOM      4  C   UNL d   1      28.236 -13.528   0.030  0.00  0.00     0.323 C 
ATOM      5  O   UNL d   1      28.009 -12.346   0.297  0.00  0.00    -0.247 OA
ATOM      6  N   UNL d   1      29.140 -14.238   0.790  0.00  0.00    -0.339 N 
ATOM      7  H   UNL d   1      27.866 -15.182  -1.148  0.00  0.00     0.173 HD
ATOM      8  H   UNL d   1      29.433 -15.173   0.551  0.00  0.00     0.164 HD
ENDROOT
BRANCH   1   9
ATOM      9  C   UNL d   1      26.119 -14.464  -3.023  0.00  0.00     0.170 C 
ATOM     10  C   UNL d   1      24.625 -14.175  -3.114  0.00  0.00     0.042 C 
BRANCH   9  11
ATOM     11  N   UNL d   1      26.319 -15.913  -2.773  0.00  0.00    -0.375 N 
ATOM     12  H   UNL d   1      26.892 -16.392  -3.469  0.00  0.00     0.160 HD
BRANCH  11  13
ATOM     13  C   UNL d   1      25.802 -16.633  -1.694  0.00  0.00     0.063 A 
ATOM     14  C   UNL d   1      24.436 -17.017  -1.729  0.00  0.00     0.038 A 
ATOM     15  C   UNL d   1      23.845 -17.785  -0.700  0.00  0.00    -0.060 A 
ATOM     16  C   UNL d   1      24.634 -18.200   0.371  0.00  0.00     0.009 A 
ATOM     17  C   UNL d   1      22.390 -18.162  -0.718  0.00  0.00     0.048 C 
ATOM     18  C   UNL d   1      25.972 -17.842   0.434  0.00  0.00     0.039 A 
ATOM     19  C   UNL d   1      26.555 -17.059  -0.568  0.00  0.00     0.094 A 
BRANCH  19  20
ATOM     20  O   UNL d   1      27.847 -16.613  -0.376  0.00  0.00    -0.354 OA
ATOM     21  C   UNL d   1      28.866 -17.610  -0.520  0.00  0.00     0.210 C 
ENDBRANCH  19  20
ENDBRANCH  11  13
ENDBRANCH   9  11
ENDBRANCH   1   9
BRANCH   6  22
ATOM     22  C   UNL d   1      29.802 -13.604   1.947  0.00  0.00     0.162 C 
BRANCH  22  23
ATOM     23  C   UNL d   1      29.221 -13.992   3.295  0.00  0.00    -0.040 A 
ATOM     24  C   UNL d   1      30.060 -14.444   4.335  0.00  0.00     0.009 A 
ATOM     25  C   UNL d   1      29.527 -14.800   5.583  0.00  0.00     0.001 A 
ATOM     26  C   UNL d   1      28.155 -14.712   5.807  0.00  0.00     0.000 A 
ATOM     27  C   UNL d   1      27.319 -14.264   4.792  0.00  0.00     0.001 A 
ATOM     28  C   UNL d   1      27.848 -13.906   3.552  0.00  0.00     0.009 A 
ENDBRANCH  22  23
ENDBRANCH   6  22
TORSDOF 6
ENDMDL
MODEL 9
REMARK VINA RESULT:    -5.914      2.376      3.659
REMARK INTER + INTRA:         -10.265
REMARK INTER:                  -7.704
REMARK INTRA:                  -2.562
REMARK CONF_INDEPENDENT:        1.790
REMARK UNBOUND:                -2.562
REMARK  6 active torsions:
REMARK  status: ('A' for Active; 'I' for Inactive)
REMARK    1  A    between atoms: O_2  and  C_3 
REMARK    2  A    between atoms: C_9  and  N_10 
REMARK    3  A    between atoms: N_10  and  C_11 
REMARK    4  A    between atoms: C_11  and  C_13 
REMARK       I    between atoms: C_13  and  N_15 
REMARK       I    between atoms: N_15  and  C_16 
REMARK       I    between atoms: C_16  and  N_18 
REMARK    5  A    between atoms: N_18  and  C_19 
REMARK    6  A    between atoms: C_19  and  C_20 
ROOT
ATOM      1  C   UNL d   1      26.711 -15.201  -4.279  0.00  0.00     0.247 C 
ATOM      2  O   UNL d   1      26.866 -15.279  -5.502  0.00  0.00    -0.271 OA
ATOM      3  N   UNL d   1      27.683 -15.580  -3.338  0.00  0.00    -0.278 N 
ATOM      4  C   UNL d   1      28.896 -16.122  -3.715  0.00  0.00     0.323 C 
ATOM      5  O   UNL d   1      29.230 -16.309  -4.887  0.00  0.00    -0.247 OA
ATOM      6  N   UNL d   1      29.764 -16.452  -2.696  0.00  0.00    -0.339 N 
ATOM      7  H   UNL d   1      27.493 -15.456  -2.356  0.00  0.00     0.173 HD
ATOM      8  H   UNL d   1      29.500 -16.410  -1.724  0.00  0.00     0.164 HD
ENDROOT
BRANCH   1   9
ATOM      9  C   UNL d   1      25.352 -14.668  -3.726  0.00  0.00     0.170 C 
ATOM     10  C   UNL d   1      25.241 -13.204  -4.136  0.00  0.00     0.042 C 
BRANCH   9  11
ATOM     11  N   UNL d   1      25.297 -14.765  -2.247  0.00  0.00    -0.375 N 
ATOM     12  H   UNL d   1      25.396 -13.876  -1.756  0.00  0.00     0.160 HD
BRANCH  11  13
ATOM     13  C   UNL d   1      25.122 -15.940  -1.513  0.00  0.00     0.063 A 
ATOM     14  C   UNL d   1      23.809 -16.463  -1.376  0.00  0.00     0.038 A 
ATOM     15  C   UNL d   1      23.550 -17.671  -0.689  0.00  0.00    -0.060 A 
ATOM     16  C   UNL d   1      24.618 -18.384  -0.150  0.00  0.00     0.009 A 
ATOM     17  C   UNL d   1      22.157 -18.207  -0.512  0.00  0.00     0.048 C 
ATOM     18  C   UNL d   1      25.913 -17.900  -0.266  0.00  0.00     0.039 A 
ATOM     19  C   UNL d   1      26.172 -16.692  -0.922  0.00  0.00     0.094 A 
BRANCH  19  20
ATOM     20  O   UNL d   1      27.458 -16.191  -0.877  0.00  0.00    -0.354 OA
ATOM     21  C   UNL d   1      28.250 -16.639   0.229  0.00  0.00     0.210 C 
ENDBRANCH  19  20
ENDBRANCH  11  13
ENDBRANCH   9  11
ENDBRANCH   1   9
BRANCH   6  22
ATOM     22  C   UNL d   1      31.106 -16.987  -3.004  0.00  0.00     0.162 C 
BRANCH  22  23
ATOM     23  C   UNL d   1      31.562 -18.107  -2.086  0.00  0.00    -0.040 A 
ATOM     24  C   UNL d   1      31.156 -19.437  -2.320  0.00  0.00     0.009 A 
ATOM     25  C   UNL d   1      31.577 -20.476  -1.476  0.00  0.00     0.001 A 
ATOM     26  C   UNL d   1      32.405 -20.200  -0.390  0.00  0.00     0.000 A 
ATOM     27  C   UNL d   1      32.815 -18.893  -0.151  0.00  0.00     0.001 A 
ATOM     28  C   UNL d   1      32.400 -17.861  -0.992  0.00  0.00     0.009 A 
ENDBRANCH  22  23
ENDBRANCH   6  22
TORSDOF 6
ENDMDL
