MODEL 1
REMARK VINA RESULT:   -29.155      0.000      0.000
REMARK INTER + INTRA:         -31.346
REMARK INTER:                 -30.348
REMARK INTRA:                  -0.998
REMARK CONF_INDEPENDENT:        1.193
REMARK UNBOUND:                -0.998
REMARK  4 active torsions:
REMARK  status: ('A' for Active; 'I' for Inactive)
REMARK    1  A    between atoms: N_1  and  N_2 
REMARK       I    between atoms: N_2  and  C_3 
REMARK    2  A    between atoms: C_3  and  C_5 
REMARK    3  A    between atoms: C_8  and  C_9 
REMARK    4  A    between atoms: C_13  and  C_14 
ROOT
ATOM      1  C   UNL d   1      22.891 -17.791  -0.709  0.00  0.00     0.144 A 
ATOM      2  C   UNL d   1      23.614 -18.482   0.250  0.00  0.00     0.046 A 
ATOM      3  C   UNL d   1      24.971 -18.139   0.080  0.00  0.00     0.041 A 
ATOM      4  C   UNL d   1      25.029 -17.231  -0.954  0.00  0.00     0.086 A 
ATOM      5  O   UNL d   1      23.766 -17.021  -1.456  0.00  0.00    -0.304 OA
ENDROOT
BRANCH   4   6
ATOM      6  C   UNL d   1      26.165 -16.570  -1.591  0.00  0.00    -0.002 A 
ATOM      7  C   UNL d   1      27.464 -16.660  -1.081  0.00  0.00     0.014 A 
ATOM      8  C   UNL d   1      28.528 -16.005  -1.717  0.00  0.00     0.002 A 
ATOM      9  C   UNL d   1      28.318 -15.310  -2.907  0.00  0.00     0.016 A 
ATOM     10  C   UNL d   1      27.034 -15.234  -3.458  0.00  0.00     0.048 A 
ATOM     11  C   UNL d   1      25.971 -15.878  -2.798  0.00  0.00     0.030 A 
BRANCH  10  12
ATOM     12  C   UNL d   1      26.793 -14.421  -4.705  0.00  0.00     0.417 C 
ATOM     13  F   UNL d   1      26.958 -15.159  -5.838  0.00  0.00    -0.166 F 
ATOM     14  F   UNL d   1      25.531 -13.911  -4.772  0.00  0.00    -0.166 F 
ATOM     15  F   UNL d   1      27.632 -13.355  -4.829  0.00  0.00    -0.166 F 
ENDBRANCH  10  12
ENDBRANCH   4   6
BRANCH   1  16
ATOM     16  C   UNL d   1      21.464 -17.825  -1.005  0.00  0.00     0.289 C 
ATOM     17  N   UNL d   1      20.919 -19.123  -1.037  0.00  0.00    -0.288 N 
ATOM     18  H   UNL d   1      21.478 -19.898  -0.689  0.00  0.00     0.183 HD
ATOM     19  O   UNL d   1      20.794 -16.822  -1.268  0.00  0.00    -0.264 OA
BRANCH  17  20
ATOM     20  N   UNL d   1      19.534 -19.325  -1.270  0.00  0.00    -0.247 NA
ATOM     21  H   UNL d   1      19.379 -19.822  -2.148  0.00  0.00     0.143 HD
ATOM     22  H   UNL d   1      19.089 -18.406  -1.373  0.00  0.00     0.143 HD
ENDBRANCH  17  20
ENDBRANCH   1  16
TORSDOF 4
ENDMDL
MODEL 2
REMARK VINA RESULT:   -29.119      1.533      2.335
REMARK INTER + INTRA:         -31.474
REMARK INTER:                 -30.312
REMARK INTRA:                  -1.162
REMARK CONF_INDEPENDENT:        1.193
REMARK UNBOUND:                -1.162
REMARK  4 active torsions:
REMARK  status: ('A' for Active; 'I' for Inactive)
REMARK    1  A    between atoms: N_1  and  N_2 
REMARK       I    between atoms: N_2  and  C_3 
REMARK    2  A    between atoms: C_3  and  C_5 
REMARK    3  A    between atoms: C_8  and  C_9 
REMARK    4  A    between atoms: C_13  and  C_14 
ROOT
ATOM      1  C   UNL d   1      23.315 -18.001  -0.639  0.00  0.00     0.144 A 
ATOM      2  C   UNL d   1      24.538 -18.186  -0.015  0.00  0.00     0.046 A 
ATOM      3  C   UNL d   1      25.458 -17.311  -0.630  0.00  0.00     0.041 A 
ATOM      4  C   UNL d   1      24.763 -16.602  -1.583  0.00  0.00     0.086 A 
ATOM      5  O   UNL d   1      23.454 -17.025  -1.611  0.00  0.00    -0.304 OA
ENDROOT
BRANCH   4   6
ATOM      6  C   UNL d   1      25.203 -15.596  -2.546  0.00  0.00    -0.002 A 
ATOM      7  C   UNL d   1      24.474 -14.428  -2.793  0.00  0.00     0.014 A 
ATOM      8  C   UNL d   1      24.926 -13.489  -3.730  0.00  0.00     0.002 A 
ATOM      9  C   UNL d   1      26.145 -13.673  -4.382  0.00  0.00     0.016 A 
ATOM     10  C   UNL d   1      26.912 -14.816  -4.127  0.00  0.00     0.048 A 
ATOM     11  C   UNL d   1      26.436 -15.761  -3.199  0.00  0.00     0.030 A 
BRANCH  10  12
ATOM     12  C   UNL d   1      28.194 -15.050  -4.885  0.00  0.00     0.417 C 
ATOM     13  F   UNL d   1      29.084 -14.034  -4.714  0.00  0.00    -0.166 F 
ATOM     14  F   UNL d   1      28.842 -16.184  -4.494  0.00  0.00    -0.166 F 
ATOM     15  F   UNL d   1      28.016 -15.168  -6.230  0.00  0.00    -0.166 F 
ENDBRANCH  10  12
ENDBRANCH   4   6
BRANCH   1  16
ATOM     16  C   UNL d   1      22.047 -18.688  -0.426  0.00  0.00     0.289 C 
ATOM     17  N   UNL d   1      20.937 -18.021  -0.980  0.00  0.00    -0.288 N 
ATOM     18  H   UNL d   1      21.098 -17.245  -1.617  0.00  0.00     0.183 HD
ATOM     19  O   UNL d   1      21.931 -19.726   0.232  0.00  0.00    -0.264 OA
BRANCH  17  20
ATOM     20  N   UNL d   1      19.635 -18.580  -0.895  0.00  0.00    -0.247 NA
ATOM     21  H   UNL d   1      19.658 -19.586  -1.067  0.00  0.00     0.143 HD
ATOM     22  H   UNL d   1      19.061 -18.169  -1.639  0.00  0.00     0.143 HD
ENDBRANCH  17  20
ENDBRANCH   1  16
TORSDOF 4
ENDMDL
MODEL 3
REMARK VINA RESULT:   -28.610      2.220      2.762
REMARK INTER + INTRA:         -30.943
REMARK INTER:                 -29.803
REMARK INTRA:                  -1.140
REMARK CONF_INDEPENDENT:        1.193
REMARK UNBOUND:                -1.140
REMARK  4 active torsions:
REMARK  status: ('A' for Active; 'I' for Inactive)
REMARK    1  A    between atoms: N_1  and  N_2 
REMARK       I    between atoms: N_2  and  C_3 
REMARK    2  A    between atoms: C_3  and  C_5 
REMARK    3  A    between atoms: C_8  and  C_9 
REMARK    4  A    between atoms: C_13  and  C_14 
ROOT
ATOM      1  C   UNL d   1      23.588 -18.083  -0.587  0.00  0.00     0.144 A 
ATOM      2  C   UNL d   1      24.748 -18.274   0.147  0.00  0.00     0.046 A 
ATOM      3  C   UNL d   1      25.704 -17.355  -0.334  0.00  0.00     0.041 A 
ATOM      4  C   UNL d   1      25.090 -16.616  -1.320  0.00  0.00     0.086 A 
ATOM      5  O   UNL d   1      23.801 -17.062  -1.497  0.00  0.00    -0.304 OA
ENDROOT
BRANCH   4   6
ATOM      6  C   UNL d   1      25.601 -15.560  -2.190  0.00  0.00    -0.002 A 
ATOM      7  C   UNL d   1      25.520 -15.636  -3.584  0.00  0.00     0.014 A 
ATOM      8  C   UNL d   1      26.028 -14.605  -4.386  0.00  0.00     0.002 A 
ATOM      9  C   UNL d   1      26.562 -13.455  -3.804  0.00  0.00     0.016 A 
ATOM     10  C   UNL d   1      26.622 -13.338  -2.410  0.00  0.00     0.048 A 
ATOM     11  C   UNL d   1      26.128 -14.390  -1.617  0.00  0.00     0.030 A 
BRANCH  10  12
ATOM     12  C   UNL d   1      27.265 -12.129  -1.780  0.00  0.00     0.417 C 
ATOM     13  F   UNL d   1      26.712 -10.966  -2.223  0.00  0.00    -0.166 F 
ATOM     14  F   UNL d   1      27.142 -12.108  -0.424  0.00  0.00    -0.166 F 
ATOM     15  F   UNL d   1      28.599 -12.028  -2.034  0.00  0.00    -0.166 F 
ENDBRANCH  10  12
ENDBRANCH   4   6
BRANCH   1  16
ATOM     16  C   UNL d   1      22.321 -18.802  -0.531  0.00  0.00     0.289 C 
ATOM     17  N   UNL d   1      21.203 -18.014  -0.864  0.00  0.00    -0.288 N 
ATOM     18  H   UNL d   1      21.355 -17.098  -1.280  0.00  0.00     0.183 HD
ATOM     19  O   UNL d   1      22.214 -19.977  -0.166  0.00  0.00    -0.264 OA
BRANCH  17  20
ATOM     20  N   UNL d   1      19.900 -18.576  -0.898  0.00  0.00    -0.247 NA
ATOM     21  H   UNL d   1      19.936 -19.567  -1.140  0.00  0.00     0.143 HD
ATOM     22  H   UNL d   1      19.371 -18.113  -1.645  0.00  0.00     0.143 HD
ENDBRANCH  17  20
ENDBRANCH   1  16
TORSDOF 4
ENDMDL
MODEL 4
REMARK VINA RESULT:   -28.515      2.883      3.328
REMARK INTER + INTRA:         -30.691
REMARK INTER:                 -29.708
REMARK INTRA:                  -0.983
REMARK CONF_INDEPENDENT:        1.193
REMARK UNBOUND:                -0.983
REMARK  4 active torsions:
REMARK  status: ('A' for Active; 'I' for Inactive)
REMARK    1  A    between atoms: N_1  and  N_2 
REMARK       I    between atoms: N_2  and  C_3 
REMARK    2  A    between atoms: C_3  and  C_5 
REMARK    3  A    between atoms: C_8  and  C_9 
REMARK    4  A    between atoms: C_13  and  C_14 
ROOT
ATOM      1  C   UNL d   1      22.953 -17.942  -0.661  0.00  0.00     0.144 A 
ATOM      2  C   UNL d   1      23.734 -18.979  -0.177  0.00  0.00     0.046 A 
ATOM      3  C   UNL d   1      25.062 -18.507  -0.108  0.00  0.00     0.041 A 
ATOM      4  C   UNL d   1      25.043 -17.194  -0.521  0.00  0.00     0.086 A 
ATOM      5  O   UNL d   1      23.762 -16.840  -0.878  0.00  0.00    -0.304 OA
ENDROOT
BRANCH   4   6
ATOM      6  C   UNL d   1      26.121 -16.224  -0.693  0.00  0.00    -0.002 A 
ATOM      7  C   UNL d   1      27.060 -16.327  -1.725  0.00  0.00     0.014 A 
ATOM      8  C   UNL d   1      28.086 -15.379  -1.853  0.00  0.00     0.002 A 
ATOM      9  C   UNL d   1      28.144 -14.282  -0.994  0.00  0.00     0.016 A 
ATOM     10  C   UNL d   1      27.195 -14.137   0.024  0.00  0.00     0.048 A 
ATOM     11  C   UNL d   1      26.184 -15.106   0.155  0.00  0.00     0.030 A 
BRANCH  10  12
ATOM     12  C   UNL d   1      27.301 -12.990   0.998  0.00  0.00     0.417 C 
ATOM     13  F   UNL d   1      28.553 -12.878   1.523  0.00  0.00    -0.166 F 
ATOM     14  F   UNL d   1      27.025 -11.784   0.429  0.00  0.00    -0.166 F 
ATOM     15  F   UNL d   1      26.459 -13.101   2.062  0.00  0.00    -0.166 F 
ENDBRANCH  10  12
ENDBRANCH   4   6
BRANCH   1  16
ATOM     16  C   UNL d   1      21.529 -17.914  -0.972  0.00  0.00     0.289 C 
ATOM     17  N   UNL d   1      20.921 -19.185  -0.975  0.00  0.00    -0.288 N 
ATOM     18  H   UNL d   1      21.438 -19.977  -0.600  0.00  0.00     0.183 HD
ATOM     19  O   UNL d   1      20.912 -16.887  -1.270  0.00  0.00    -0.264 OA
BRANCH  17  20
ATOM     20  N   UNL d   1      19.530 -19.325  -1.218  0.00  0.00    -0.247 NA
ATOM     21  H   UNL d   1      19.359 -19.915  -2.032  0.00  0.00     0.143 HD
ATOM     22  H   UNL d   1      19.150 -18.399  -1.443  0.00  0.00     0.143 HD
ENDBRANCH  17  20
ENDBRANCH   1  16
TORSDOF 4
ENDMDL
MODEL 5
REMARK VINA RESULT:   -28.501      2.422      3.030
REMARK INTER + INTRA:         -30.694
REMARK INTER:                 -29.694
REMARK INTRA:                  -1.000
REMARK CONF_INDEPENDENT:        1.193
REMARK UNBOUND:                -1.000
REMARK  4 active torsions:
REMARK  status: ('A' for Active; 'I' for Inactive)
REMARK    1  A    between atoms: N_1  and  N_2 
REMARK       I    between atoms: N_2  and  C_3 
REMARK    2  A    between atoms: C_3  and  C_5 
REMARK    3  A    between atoms: C_8  and  C_9 
REMARK    4  A    between atoms: C_13  and  C_14 
ROOT
ATOM      1  C   UNL d   1      23.102 -17.825  -0.659  0.00  0.00     0.144 A 
ATOM      2  C   UNL d   1      23.841 -18.562   0.253  0.00  0.00     0.046 A 
ATOM      3  C   UNL d   1      25.196 -18.215   0.072  0.00  0.00     0.041 A 
ATOM      4  C   UNL d   1      25.237 -17.259  -0.918  0.00  0.00     0.086 A 
ATOM      5  O   UNL d   1      23.965 -17.022  -1.385  0.00  0.00    -0.304 OA
ENDROOT
BRANCH   4   6
ATOM      6  C   UNL d   1      26.362 -16.571  -1.545  0.00  0.00    -0.002 A 
ATOM      7  C   UNL d   1      26.184 -15.561  -2.497  0.00  0.00     0.014 A 
ATOM      8  C   UNL d   1      27.290 -14.929  -3.082  0.00  0.00     0.002 A 
ATOM      9  C   UNL d   1      28.585 -15.250  -2.675  0.00  0.00     0.016 A 
ATOM     10  C   UNL d   1      28.789 -16.232  -1.698  0.00  0.00     0.048 A 
ATOM     11  C   UNL d   1      27.671 -16.874  -1.134  0.00  0.00     0.030 A 
BRANCH  10  12
ATOM     12  C   UNL d   1      30.190 -16.631  -1.310  0.00  0.00     0.417 C 
ATOM     13  F   UNL d   1      30.324 -17.981  -1.190  0.00  0.00    -0.166 F 
ATOM     14  F   UNL d   1      31.125 -16.244  -2.223  0.00  0.00    -0.166 F 
ATOM     15  F   UNL d   1      30.594 -16.109  -0.119  0.00  0.00    -0.166 F 
ENDBRANCH  10  12
ENDBRANCH   4   6
BRANCH   1  16
ATOM     16  C   UNL d   1      21.670 -17.841  -0.928  0.00  0.00     0.289 C 
ATOM     17  N   UNL d   1      21.127 -19.135  -1.049  0.00  0.00    -0.288 N 
ATOM     18  H   UNL d   1      21.694 -19.933  -0.773  0.00  0.00     0.183 HD
ATOM     19  O   UNL d   1      20.992 -16.823  -1.099  0.00  0.00    -0.264 OA
BRANCH  17  20
ATOM     20  N   UNL d   1      19.737 -19.323  -1.270  0.00  0.00    -0.247 NA
ATOM     21  H   UNL d   1      19.565 -19.725  -2.192  0.00  0.00     0.143 HD
ATOM     22  H   UNL d   1      19.285 -18.402  -1.263  0.00  0.00     0.143 HD
ENDBRANCH  17  20
ENDBRANCH   1  16
TORSDOF 4
ENDMDL
MODEL 6
REMARK VINA RESULT:   -28.101      1.828      2.320
REMARK INTER + INTRA:         -30.199
REMARK INTER:                 -29.294
REMARK INTRA:                  -0.904
REMARK CONF_INDEPENDENT:        1.193
REMARK UNBOUND:                -0.904
REMARK  4 active torsions:
REMARK  status: ('A' for Active; 'I' for Inactive)
REMARK    1  A    between atoms: N_1  and  N_2 
REMARK       I    between atoms: N_2  and  C_3 
REMARK    2  A    between atoms: C_3  and  C_5 
REMARK    3  A    between atoms: C_8  and  C_9 
REMARK    4  A    between atoms: C_13  and  C_14 
ROOT
ATOM      1  C   UNL d   1      22.915 -17.805  -0.846  0.00  0.00     0.144 A 
ATOM      2  C   UNL d   1      22.801 -16.424  -0.856  0.00  0.00     0.046 A 
ATOM      3  C   UNL d   1      24.108 -15.897  -0.921  0.00  0.00     0.041 A 
ATOM      4  C   UNL d   1      24.971 -16.968  -0.979  0.00  0.00     0.086 A 
ATOM      5  O   UNL d   1      24.256 -18.142  -0.918  0.00  0.00    -0.304 OA
ENDROOT
BRANCH   4   6
ATOM      6  C   UNL d   1      26.429 -17.028  -1.016  0.00  0.00    -0.002 A 
ATOM      7  C   UNL d   1      27.169 -17.798  -0.112  0.00  0.00     0.014 A 
ATOM      8  C   UNL d   1      28.569 -17.824  -0.174  0.00  0.00     0.002 A 
ATOM      9  C   UNL d   1      29.244 -17.136  -1.183  0.00  0.00     0.016 A 
ATOM     10  C   UNL d   1      28.525 -16.386  -2.122  0.00  0.00     0.048 A 
ATOM     11  C   UNL d   1      27.121 -16.352  -2.034  0.00  0.00     0.030 A 
BRANCH  10  12
ATOM     12  C   UNL d   1      29.258 -15.584  -3.167  0.00  0.00     0.417 C 
ATOM     13  F   UNL d   1      30.530 -16.029  -3.357  0.00  0.00    -0.166 F 
ATOM     14  F   UNL d   1      28.659 -15.632  -4.390  0.00  0.00    -0.166 F 
ATOM     15  F   UNL d   1      29.367 -14.262  -2.859  0.00  0.00    -0.166 F 
ENDBRANCH  10  12
ENDBRANCH   4   6
BRANCH   1  16
ATOM     16  C   UNL d   1      21.878 -18.824  -0.735  0.00  0.00     0.289 C 
ATOM     17  N   UNL d   1      20.633 -18.431  -1.262  0.00  0.00    -0.288 N 
ATOM     18  H   UNL d   1      20.583 -17.583  -1.821  0.00  0.00     0.183 HD
ATOM     19  O   UNL d   1      22.044 -19.913  -0.177  0.00  0.00    -0.264 OA
BRANCH  17  20
ATOM     20  N   UNL d   1      19.531 -19.325  -1.268  0.00  0.00    -0.247 NA
ATOM     21  H   UNL d   1      19.823 -20.268  -1.009  0.00  0.00     0.143 HD
ATOM     22  H   UNL d   1      19.173 -19.384  -2.228  0.00  0.00     0.143 HD
ENDBRANCH  17  20
ENDBRANCH   1  16
TORSDOF 4
ENDMDL
MODEL 7
REMARK VINA RESULT:   -27.246      3.491      4.073
REMARK INTER + INTRA:         -29.425
REMARK INTER:                 -28.439
REMARK INTRA:                  -0.986
REMARK CONF_INDEPENDENT:        1.193
REMARK UNBOUND:                -0.986
REMARK  4 active torsions:
REMARK  status: ('A' for Active; 'I' for Inactive)
REMARK    1  A    between atoms: N_1  and  N_2 
REMARK       I    between atoms: N_2  and  C_3 
REMARK    2  A    between atoms: C_3  and  C_5 
REMARK    3  A    between atoms: C_8  and  C_9 
REMARK    4  A    between atoms: C_13  and  C_14 
ROOT
ATOM      1  C   UNL d   1      23.403 -17.854  -0.724  0.00  0.00     0.144 A 
ATOM      2  C   UNL d   1      23.893 -17.833  -2.019  0.00  0.00     0.046 A 
ATOM      3  C   UNL d   1      25.147 -17.189  -1.982  0.00  0.00     0.041 A 
ATOM      4  C   UNL d   1      25.394 -16.867  -0.666  0.00  0.00     0.086 A 
ATOM      5  O   UNL d   1      24.328 -17.254   0.113  0.00  0.00    -0.304 OA
ENDROOT
BRANCH   4   6
ATOM      6  C   UNL d   1      26.508 -16.160  -0.041  0.00  0.00    -0.002 A 
ATOM      7  C   UNL d   1      27.820 -16.644  -0.086  0.00  0.00     0.014 A 
ATOM      8  C   UNL d   1      28.863 -15.940   0.533  0.00  0.00     0.002 A 
ATOM      9  C   UNL d   1      28.619 -14.710   1.144  0.00  0.00     0.016 A 
ATOM     10  C   UNL d   1      27.321 -14.186   1.172  0.00  0.00     0.048 A 
ATOM     11  C   UNL d   1      26.280 -14.913   0.566  0.00  0.00     0.030 A 
BRANCH  10  12
ATOM     12  C   UNL d   1      27.044 -12.892   1.895  0.00  0.00     0.417 C 
ATOM     13  F   UNL d   1      26.737 -13.095   3.206  0.00  0.00    -0.166 F 
ATOM     14  F   UNL d   1      28.108 -12.042   1.888  0.00  0.00    -0.166 F 
ATOM     15  F   UNL d   1      26.002 -12.189   1.372  0.00  0.00    -0.166 F 
ENDBRANCH  10  12
ENDBRANCH   4   6
BRANCH   1  16
ATOM     16  C   UNL d   1      22.129 -18.353  -0.217  0.00  0.00     0.289 C 
ATOM     17  N   UNL d   1      21.167 -18.583  -1.219  0.00  0.00    -0.288 N 
ATOM     18  H   UNL d   1      21.461 -18.567  -2.193  0.00  0.00     0.183 HD
ATOM     19  O   UNL d   1      21.880 -18.504   0.983  0.00  0.00    -0.264 OA
BRANCH  17  20
ATOM     20  N   UNL d   1      19.890 -19.109  -0.895  0.00  0.00    -0.247 NA
ATOM     21  H   UNL d   1      19.152 -18.439  -1.115  0.00  0.00     0.143 HD
ATOM     22  H   UNL d   1      19.854 -19.260   0.119  0.00  0.00     0.143 HD
ENDBRANCH  17  20
ENDBRANCH   1  16
TORSDOF 4
ENDMDL
