MODEL 1
REMARK VINA RESULT:    -9.504      0.000      0.000
REMARK INTER + INTRA:         -12.325
REMARK INTER:                 -11.294
REMARK INTRA:                  -1.031
REMARK CONF_INDEPENDENT:        1.790
REMARK UNBOUND:                -1.031
REMARK  6 active torsions:
REMARK  status: ('A' for Active; 'I' for Inactive)
REMARK    1  A    between atoms: C_2  and  C_30 
REMARK    2  A    between atoms: C_2  and  N_3 
REMARK       I    between atoms: N_3  and  C_4 
REMARK    3  A    between atoms: C_4  and  C_6 
REMARK    4  A    between atoms: N_19  and  C_20 
REMARK    5  A    between atoms: C_20  and  C_21 
REMARK    6  A    between atoms: C_28  and  N_29 
ROOT
ATOM      1  C   UNL d   1      27.564 -14.141   1.285  0.00  0.00     0.076 A 
ATOM      2  C   UNL d   1      27.522 -12.945   0.618  0.00  0.00     0.042 A 
ATOM      3  C   UNL d   1      27.050 -12.979  -0.686  0.00  0.00     0.080 A 
ATOM      4  C   UNL d   1      27.030 -11.740  -1.461  0.00  0.00     0.267 A 
ATOM      5  O   UNL d   1      27.449 -10.713  -0.913  0.00  0.00    -0.267 OA
ATOM      6  N   UNL d   1      26.535 -11.819  -2.747  0.00  0.00    -0.273 N 
ATOM      7  C   UNL d   1      26.485 -10.650  -3.501  0.00  0.00     0.102 A 
ATOM      8  C   UNL d   1      26.013 -10.633  -4.749  0.00  0.00     0.018 A 
ATOM      9  C   UNL d   1      25.542 -11.853  -5.346  0.00  0.00     0.005 A 
ATOM     10  C   UNL d   1      25.570 -13.007  -4.664  0.00  0.00     0.051 A 
ATOM     11  C   UNL d   1      26.093 -13.039  -3.266  0.00  0.00     0.139 A 
ATOM     12  N   UNL d   1      26.109 -14.167  -2.607  0.00  0.00    -0.212 NA
ATOM     13  C   UNL d   1      26.600 -14.162  -1.294  0.00  0.00     0.149 A 
ATOM     14  N   UNL d   1      26.645 -15.353  -0.602  0.00  0.00    -0.312 N 
ATOM     15  C   UNL d   1      27.187 -15.356   0.657  0.00  0.00     0.118 A 
ENDROOT
BRANCH   1  16
ATOM     16  C   UNL d   1      28.235 -14.270   2.586  0.00  0.00     0.256 C 
ATOM     17  N   UNL d   1      27.505 -14.279   3.743  0.00  0.00    -0.348 N 
ATOM     18  H   UNL d   1      26.521 -14.044   3.746  0.00  0.00     0.163 HD
ATOM     19  O   UNL d   1      29.446 -14.449   2.521  0.00  0.00    -0.268 OA
BRANCH  17  20
ATOM     20  C   UNL d   1      28.131 -14.436   5.070  0.00  0.00     0.114 C 
ATOM     21  C   UNL d   1      29.469 -15.200   5.082  0.00  0.00     0.037 C 
BRANCH  20  22
ATOM     22  C   UNL d   1      28.335 -13.065   5.678  0.00  0.00    -0.036 A 
ATOM     23  C   UNL d   1      28.202 -11.933   4.860  0.00  0.00     0.009 A 
ATOM     24  C   UNL d   1      28.520 -10.668   5.337  0.00  0.00     0.001 A 
ATOM     25  C   UNL d   1      28.868 -10.504   6.673  0.00  0.00     0.000 A 
ATOM     26  C   UNL d   1      28.905 -11.608   7.525  0.00  0.00     0.001 A 
ATOM     27  C   UNL d   1      28.700 -12.894   7.020  0.00  0.00     0.009 A 
ENDBRANCH  20  22
ENDBRANCH  17  20
ENDBRANCH   1  16
BRANCH  15  28
ATOM     28  N   UNL d   1      27.405 -16.514   1.376  0.00  0.00    -0.384 N 
ATOM     29  H   UNL d   1      27.155 -17.431   1.055  0.00  0.00     0.157 HD
ATOM     30  H   UNL d   1      28.153 -16.545   2.070  0.00  0.00     0.157 HD
ENDBRANCH  15  28
BRANCH  14  31
ATOM     31  C   UNL d   1      26.072 -16.607  -1.280  0.00  0.00     0.171 C 
BRANCH  31  32
ATOM     32  C   UNL d   1      24.742 -17.160  -0.738  0.00  0.00    -0.040 C 
ATOM     33  C   UNL d   1      24.602 -18.543  -0.465  0.00  0.00     0.010 C 
ATOM     34  C   UNL d   1      23.331 -19.145  -0.550  0.00  0.00     0.024 C 
ATOM     35  C   UNL d   1      22.187 -18.358  -0.660  0.00  0.00     0.034 C 
ATOM     36 CL   UNL d   1      20.653 -19.099  -0.895  0.00  0.00    -0.084 Cl
ATOM     37  C   UNL d   1      22.302 -16.969  -0.689  0.00  0.00     0.024 C 
ATOM     38  C   UNL d   1      23.570 -16.371  -0.785  0.00  0.00     0.010 C 
ENDBRANCH  31  32
ENDBRANCH  14  31
TORSDOF 6
ENDMDL
MODEL 2
REMARK VINA RESULT:    -9.052      2.024      7.813
REMARK INTER + INTRA:         -12.103
REMARK INTER:                 -10.842
REMARK INTRA:                  -1.261
REMARK CONF_INDEPENDENT:        1.790
REMARK UNBOUND:                -1.261
REMARK  6 active torsions:
REMARK  status: ('A' for Active; 'I' for Inactive)
REMARK    1  A    between atoms: C_2  and  C_30 
REMARK    2  A    between atoms: C_2  and  N_3 
REMARK       I    between atoms: N_3  and  C_4 
REMARK    3  A    between atoms: C_4  and  C_6 
REMARK    4  A    between atoms: N_19  and  C_20 
REMARK    5  A    between atoms: C_20  and  C_21 
REMARK    6  A    between atoms: C_28  and  N_29 
ROOT
ATOM      1  C   UNL d   1      26.250 -13.421  -2.496  0.00  0.00     0.076 A 
ATOM      2  C   UNL d   1      26.724 -12.529  -1.571  0.00  0.00     0.042 A 
ATOM      3  C   UNL d   1      26.968 -13.025  -0.299  0.00  0.00     0.080 A 
ATOM      4  C   UNL d   1      27.428 -12.106   0.740  0.00  0.00     0.267 A 
ATOM      5  O   UNL d   1      27.569 -10.917   0.434  0.00  0.00    -0.267 OA
ATOM      6  N   UNL d   1      27.675 -12.650   1.984  0.00  0.00    -0.273 N 
ATOM      7  C   UNL d   1      28.134 -11.801   2.988  0.00  0.00     0.102 A 
ATOM      8  C   UNL d   1      28.407 -12.243   4.218  0.00  0.00     0.018 A 
ATOM      9  C   UNL d   1      28.222 -13.634   4.529  0.00  0.00     0.005 A 
ATOM     10  C   UNL d   1      27.780 -14.493   3.600  0.00  0.00     0.051 A 
ATOM     11  C   UNL d   1      27.474 -14.013   2.219  0.00  0.00     0.139 A 
ATOM     12  N   UNL d   1      27.051 -14.859   1.319  0.00  0.00    -0.212 NA
ATOM     13  C   UNL d   1      26.779 -14.377   0.031  0.00  0.00     0.149 A 
ATOM     14  N   UNL d   1      26.307 -15.258  -0.917  0.00  0.00    -0.312 N 
ATOM     15  C   UNL d   1      25.979 -14.770  -2.156  0.00  0.00     0.118 A 
ENDROOT
BRANCH   1  16
ATOM     16  C   UNL d   1      25.758 -12.976  -3.808  0.00  0.00     0.256 C 
ATOM     17  N   UNL d   1      26.377 -11.951  -4.469  0.00  0.00    -0.348 N 
ATOM     18  H   UNL d   1      27.077 -11.379  -4.014  0.00  0.00     0.163 HD
ATOM     19  O   UNL d   1      24.837 -13.646  -4.263  0.00  0.00    -0.268 OA
BRANCH  17  20
ATOM     20  C   UNL d   1      25.938 -11.490  -5.799  0.00  0.00     0.114 C 
ATOM     21  C   UNL d   1      25.557 -10.000  -5.888  0.00  0.00     0.037 C 
BRANCH  20  22
ATOM     22  C   UNL d   1      27.030 -11.785  -6.804  0.00  0.00    -0.036 A 
ATOM     23  C   UNL d   1      27.042 -11.087  -8.021  0.00  0.00     0.009 A 
ATOM     24  C   UNL d   1      27.935 -11.425  -9.028  0.00  0.00     0.001 A 
ATOM     25  C   UNL d   1      28.906 -12.392  -8.790  0.00  0.00     0.000 A 
ATOM     26  C   UNL d   1      28.972 -13.024  -7.549  0.00  0.00     0.001 A 
ATOM     27  C   UNL d   1      28.002 -12.768  -6.577  0.00  0.00     0.009 A 
ENDBRANCH  20  22
ENDBRANCH  17  20
ENDBRANCH   1  16
BRANCH  15  28
ATOM     28  N   UNL d   1      25.371 -15.541  -3.127  0.00  0.00    -0.384 N 
ATOM     29  H   UNL d   1      24.386 -15.725  -3.164  0.00  0.00     0.157 HD
ATOM     30  H   UNL d   1      25.811 -15.638  -4.043  0.00  0.00     0.157 HD
ENDBRANCH  15  28
BRANCH  14  31
ATOM     31  C   UNL d   1      26.189 -16.741  -0.533  0.00  0.00     0.171 C 
BRANCH  31  32
ATOM     32  C   UNL d   1      24.781 -17.289  -0.246  0.00  0.00    -0.040 C 
ATOM     33  C   UNL d   1      24.565 -18.686  -0.145  0.00  0.00     0.010 C 
ATOM     34  C   UNL d   1      23.303 -19.222  -0.472  0.00  0.00     0.024 C 
ATOM     35  C   UNL d   1      22.209 -18.380  -0.657  0.00  0.00     0.034 C 
ATOM     36 CL   UNL d   1      20.705 -19.027  -1.183  0.00  0.00    -0.084 Cl
ATOM     37  C   UNL d   1      22.365 -17.001  -0.520  0.00  0.00     0.024 C 
ATOM     38  C   UNL d   1      23.650 -16.451  -0.372  0.00  0.00     0.010 C 
ENDBRANCH  31  32
ENDBRANCH  14  31
TORSDOF 6
ENDMDL
MODEL 3
REMARK VINA RESULT:    -8.601      5.418      8.572
REMARK INTER + INTRA:         -12.000
REMARK INTER:                 -10.391
REMARK INTRA:                  -1.609
REMARK CONF_INDEPENDENT:        1.790
REMARK UNBOUND:                -1.609
REMARK  6 active torsions:
REMARK  status: ('A' for Active; 'I' for Inactive)
REMARK    1  A    between atoms: C_2  and  C_30 
REMARK    2  A    between atoms: C_2  and  N_3 
REMARK       I    between atoms: N_3  and  C_4 
REMARK    3  A    between atoms: C_4  and  C_6 
REMARK    4  A    between atoms: N_19  and  C_20 
REMARK    5  A    between atoms: C_20  and  C_21 
REMARK    6  A    between atoms: C_28  and  N_29 
ROOT
ATOM      1  C   UNL d   1      30.223 -17.472  -3.286  0.00  0.00     0.076 A 
ATOM      2  C   UNL d   1      29.820 -16.621  -4.281  0.00  0.00     0.042 A 
ATOM      3  C   UNL d   1      28.860 -15.680  -3.942  0.00  0.00     0.080 A 
ATOM      4  C   UNL d   1      28.357 -14.779  -4.977  0.00  0.00     0.267 A 
ATOM      5  O   UNL d   1      28.812 -14.908  -6.121  0.00  0.00    -0.267 OA
ATOM      6  N   UNL d   1      27.417 -13.847  -4.588  0.00  0.00    -0.273 N 
ATOM      7  C   UNL d   1      26.937 -12.963  -5.550  0.00  0.00     0.102 A 
ATOM      8  C   UNL d   1      26.033 -12.024  -5.259  0.00  0.00     0.018 A 
ATOM      9  C   UNL d   1      25.530 -11.915  -3.917  0.00  0.00     0.005 A 
ATOM     10  C   UNL d   1      25.958 -12.744  -2.954  0.00  0.00     0.051 A 
ATOM     11  C   UNL d   1      26.971 -13.796  -3.264  0.00  0.00     0.139 A 
ATOM     12  N   UNL d   1      27.387 -14.593  -2.317  0.00  0.00    -0.212 NA
ATOM     13  C   UNL d   1      28.343 -15.566  -2.641  0.00  0.00     0.149 A 
ATOM     14  N   UNL d   1      28.767 -16.429  -1.654  0.00  0.00    -0.312 N 
ATOM     15  C   UNL d   1      29.652 -17.421  -1.989  0.00  0.00     0.118 A 
ENDROOT
BRANCH   1  16
ATOM     16  C   UNL d   1      31.071 -18.638  -3.571  0.00  0.00     0.256 C 
ATOM     17  N   UNL d   1      30.709 -19.538  -4.536  0.00  0.00    -0.348 N 
ATOM     18  H   UNL d   1      29.791 -19.512  -4.961  0.00  0.00     0.163 HD
ATOM     19  O   UNL d   1      32.126 -18.668  -2.947  0.00  0.00    -0.268 OA
BRANCH  17  20
ATOM     20  C   UNL d   1      31.542 -20.706  -4.878  0.00  0.00     0.114 C 
ATOM     21  C   UNL d   1      31.083 -22.044  -4.267  0.00  0.00     0.037 C 
BRANCH  20  22
ATOM     22  C   UNL d   1      31.600 -20.841  -6.384  0.00  0.00    -0.036 A 
ATOM     23  C   UNL d   1      32.278 -21.935  -6.943  0.00  0.00     0.009 A 
ATOM     24  C   UNL d   1      32.481 -22.023  -8.314  0.00  0.00     0.001 A 
ATOM     25  C   UNL d   1      31.910 -21.074  -9.156  0.00  0.00     0.000 A 
ATOM     26  C   UNL d   1      31.147 -20.036  -8.622  0.00  0.00     0.001 A 
ATOM     27  C   UNL d   1      31.040 -19.881  -7.238  0.00  0.00     0.009 A 
ENDBRANCH  20  22
ENDBRANCH  17  20
ENDBRANCH   1  16
BRANCH  15  28
ATOM     28  N   UNL d   1      30.030 -18.415  -1.110  0.00  0.00    -0.384 N 
ATOM     29  H   UNL d   1      30.851 -18.981  -1.218  0.00  0.00     0.157 HD
ATOM     30  H   UNL d   1      29.726 -18.371  -0.136  0.00  0.00     0.157 HD
ENDBRANCH  15  28
BRANCH  14  31
ATOM     31  C   UNL d   1      28.232 -16.218  -0.228  0.00  0.00     0.171 C 
BRANCH  31  32
ATOM     32  C   UNL d   1      26.787 -16.659   0.059  0.00  0.00    -0.040 C 
ATOM     33  C   UNL d   1      26.519 -17.972   0.519  0.00  0.00     0.010 C 
ATOM     34  C   UNL d   1      25.278 -18.573   0.229  0.00  0.00     0.024 C 
ATOM     35  C   UNL d   1      24.232 -17.811  -0.286  0.00  0.00     0.034 C 
ATOM     36 CL   UNL d   1      22.764 -18.572  -0.759  0.00  0.00    -0.084 Cl
ATOM     37  C   UNL d   1      24.417 -16.449  -0.521  0.00  0.00     0.024 C 
ATOM     38  C   UNL d   1      25.699 -15.884  -0.404  0.00  0.00     0.010 C 
ENDBRANCH  31  32
ENDBRANCH  14  31
TORSDOF 6
ENDMDL
MODEL 4
REMARK VINA RESULT:    -8.487      1.674      2.414
REMARK INTER + INTRA:         -12.079
REMARK INTER:                 -10.277
REMARK INTRA:                  -1.802
REMARK CONF_INDEPENDENT:        1.790
REMARK UNBOUND:                -1.802
REMARK  6 active torsions:
REMARK  status: ('A' for Active; 'I' for Inactive)
REMARK    1  A    between atoms: C_2  and  C_30 
REMARK    2  A    between atoms: C_2  and  N_3 
REMARK       I    between atoms: N_3  and  C_4 
REMARK    3  A    between atoms: C_4  and  C_6 
REMARK    4  A    between atoms: N_19  and  C_20 
REMARK    5  A    between atoms: C_20  and  C_21 
REMARK    6  A    between atoms: C_28  and  N_29 
ROOT
ATOM      1  C   UNL d   1      27.447 -13.053   1.057  0.00  0.00     0.076 A 
ATOM      2  C   UNL d   1      27.409 -12.282  -0.075  0.00  0.00     0.042 A 
ATOM      3  C   UNL d   1      27.516 -12.951  -1.285  0.00  0.00     0.080 A 
ATOM      4  C   UNL d   1      27.530 -12.173  -2.522  0.00  0.00     0.267 A 
ATOM      5  O   UNL d   1      27.455 -10.942  -2.428  0.00  0.00    -0.267 OA
ATOM      6  N   UNL d   1      27.619 -12.884  -3.702  0.00  0.00    -0.273 N 
ATOM      7  C   UNL d   1      27.614 -12.169  -4.897  0.00  0.00     0.102 A 
ATOM      8  C   UNL d   1      27.687 -12.775  -6.084  0.00  0.00     0.018 A 
ATOM      9  C   UNL d   1      27.779 -14.209  -6.144  0.00  0.00     0.005 A 
ATOM     10  C   UNL d   1      27.790 -14.944  -5.023  0.00  0.00     0.051 A 
ATOM     11  C   UNL d   1      27.705 -14.279  -3.689  0.00  0.00     0.139 A 
ATOM     12  N   UNL d   1      27.709 -15.004  -2.603  0.00  0.00    -0.212 NA
ATOM     13  C   UNL d   1      27.622 -14.349  -1.366  0.00  0.00     0.149 A 
ATOM     14  N   UNL d   1      27.653 -15.106  -0.215  0.00  0.00    -0.312 N 
ATOM     15  C   UNL d   1      27.634 -14.457   0.993  0.00  0.00     0.118 A 
ENDROOT
BRANCH   1  16
ATOM     16  C   UNL d   1      27.555 -12.449   2.392  0.00  0.00     0.256 C 
ATOM     17  N   UNL d   1      28.546 -11.547   2.666  0.00  0.00    -0.348 N 
ATOM     18  H   UNL d   1      29.310 -11.392   2.020  0.00  0.00     0.163 HD
ATOM     19  O   UNL d   1      26.655 -12.756   3.167  0.00  0.00    -0.268 OA
BRANCH  17  20
ATOM     20  C   UNL d   1      28.676 -10.892   3.982  0.00  0.00     0.114 C 
ATOM     21  C   UNL d   1      27.536  -9.927   4.354  0.00  0.00     0.037 C 
BRANCH  20  22
ATOM     22  C   UNL d   1      28.793 -11.960   5.048  0.00  0.00    -0.036 A 
ATOM     23  C   UNL d   1      29.481 -13.146   4.749  0.00  0.00     0.009 A 
ATOM     24  C   UNL d   1      29.490 -14.209   5.643  0.00  0.00     0.001 A 
ATOM     25  C   UNL d   1      28.906 -14.059   6.896  0.00  0.00     0.000 A 
ATOM     26  C   UNL d   1      28.306 -12.850   7.246  0.00  0.00     0.001 A 
ATOM     27  C   UNL d   1      28.194 -11.822   6.307  0.00  0.00     0.009 A 
ENDBRANCH  20  22
ENDBRANCH  17  20
ENDBRANCH   1  16
BRANCH  15  28
ATOM     28  N   UNL d   1      27.800 -15.112   2.196  0.00  0.00    -0.384 N 
ATOM     29  H   UNL d   1      28.640 -15.589   2.467  0.00  0.00     0.157 HD
ATOM     30  H   UNL d   1      27.247 -14.829   3.007  0.00  0.00     0.157 HD
ENDBRANCH  15  28
BRANCH  14  31
ATOM     31  C   UNL d   1      27.692 -16.636  -0.354  0.00  0.00     0.171 C 
BRANCH  31  32
ATOM     32  C   UNL d   1      26.365 -17.355  -0.648  0.00  0.00    -0.040 C 
ATOM     33  C   UNL d   1      25.544 -16.929  -1.722  0.00  0.00     0.010 C 
ATOM     34  C   UNL d   1      24.151 -17.132  -1.657  0.00  0.00     0.024 C 
ATOM     35  C   UNL d   1      23.606 -17.954  -0.674  0.00  0.00     0.034 C 
ATOM     36 CL   UNL d   1      21.899 -18.094  -0.520  0.00  0.00    -0.084 Cl
ATOM     37  C   UNL d   1      24.443 -18.575   0.252  0.00  0.00     0.024 C 
ATOM     38  C   UNL d   1      25.805 -18.237   0.304  0.00  0.00     0.010 C 
ENDBRANCH  31  32
ENDBRANCH  14  31
TORSDOF 6
ENDMDL
MODEL 5
REMARK VINA RESULT:    -8.378      3.472      9.124
REMARK INTER + INTRA:         -11.715
REMARK INTER:                 -10.168
REMARK INTRA:                  -1.547
REMARK CONF_INDEPENDENT:        1.790
REMARK UNBOUND:                -1.547
REMARK  6 active torsions:
REMARK  status: ('A' for Active; 'I' for Inactive)
REMARK    1  A    between atoms: C_2  and  C_30 
REMARK    2  A    between atoms: C_2  and  N_3 
REMARK       I    between atoms: N_3  and  C_4 
REMARK    3  A    between atoms: C_4  and  C_6 
REMARK    4  A    between atoms: N_19  and  C_20 
REMARK    5  A    between atoms: C_20  and  C_21 
REMARK    6  A    between atoms: C_28  and  N_29 
ROOT
ATOM      1  C   UNL d   1      27.745 -13.533   2.648  0.00  0.00     0.076 A 
ATOM      2  C   UNL d   1      27.853 -14.278   3.792  0.00  0.00     0.042 A 
ATOM      3  C   UNL d   1      28.222 -13.598   4.943  0.00  0.00     0.080 A 
ATOM      4  C   UNL d   1      28.400 -14.352   6.182  0.00  0.00     0.267 A 
ATOM      5  O   UNL d   1      28.220 -15.575   6.141  0.00  0.00    -0.267 OA
ATOM      6  N   UNL d   1      28.749 -13.630   7.305  0.00  0.00    -0.273 N 
ATOM      7  C   UNL d   1      28.905 -14.320   8.503  0.00  0.00     0.102 A 
ATOM      8  C   UNL d   1      29.232 -13.700   9.639  0.00  0.00     0.018 A 
ATOM      9  C   UNL d   1      29.437 -12.277   9.637  0.00  0.00     0.005 A 
ATOM     10  C   UNL d   1      29.302 -11.565   8.509  0.00  0.00     0.051 A 
ATOM     11  C   UNL d   1      28.932 -12.246   7.233  0.00  0.00     0.139 A 
ATOM     12  N   UNL d   1      28.795 -11.542   6.141  0.00  0.00    -0.212 NA
ATOM     13  C   UNL d   1      28.442 -12.211   4.960  0.00  0.00     0.149 A 
ATOM     14  N   UNL d   1      28.322 -11.479   3.799  0.00  0.00    -0.312 N 
ATOM     15  C   UNL d   1      28.041 -12.146   2.634  0.00  0.00     0.118 A 
ENDROOT
BRANCH   1  16
ATOM     16  C   UNL d   1      27.569 -14.167   1.334  0.00  0.00     0.256 C 
ATOM     17  N   UNL d   1      28.194 -15.349   1.046  0.00  0.00    -0.348 N 
ATOM     18  H   UNL d   1      28.904 -15.730   1.658  0.00  0.00     0.163 HD
ATOM     19  O   UNL d   1      26.771 -13.599   0.594  0.00  0.00    -0.268 OA
BRANCH  17  20
ATOM     20  C   UNL d   1      28.024 -16.038  -0.247  0.00  0.00     0.114 C 
ATOM     21  C   UNL d   1      29.038 -17.161  -0.534  0.00  0.00     0.037 C 
BRANCH  20  22
ATOM     22  C   UNL d   1      26.622 -16.602  -0.319  0.00  0.00    -0.036 A 
ATOM     23  C   UNL d   1      25.663 -15.941  -1.102  0.00  0.00     0.009 A 
ATOM     24  C   UNL d   1      24.332 -16.338  -1.083  0.00  0.00     0.001 A 
ATOM     25  C   UNL d   1      23.963 -17.472  -0.369  0.00  0.00     0.000 A 
ATOM     26  C   UNL d   1      24.924 -18.200   0.332  0.00  0.00     0.001 A 
ATOM     27  C   UNL d   1      26.239 -17.736   0.409  0.00  0.00     0.009 A 
ENDBRANCH  20  22
ENDBRANCH  17  20
ENDBRANCH   1  16
BRANCH  15  28
ATOM     28  N   UNL d   1      28.037 -11.527   1.400  0.00  0.00    -0.384 N 
ATOM     29  H   UNL d   1      28.848 -11.425   0.819  0.00  0.00     0.157 HD
ATOM     30  H   UNL d   1      27.173 -11.489   0.857  0.00  0.00     0.157 HD
ENDBRANCH  15  28
BRANCH  14  31
ATOM     31  C   UNL d   1      28.496  -9.955   3.881  0.00  0.00     0.171 C 
BRANCH  31  32
ATOM     32  C   UNL d   1      27.483  -9.084   3.119  0.00  0.00    -0.040 C 
ATOM     33  C   UNL d   1      26.177  -9.568   2.861  0.00  0.00     0.010 C 
ATOM     34  C   UNL d   1      25.474  -9.106   1.730  0.00  0.00     0.024 C 
ATOM     35  C   UNL d   1      25.944  -8.011   1.009  0.00  0.00     0.034 C 
ATOM     36 CL   UNL d   1      25.155  -7.534  -0.443  0.00  0.00    -0.084 Cl
ATOM     37  C   UNL d   1      27.119  -7.373   1.406  0.00  0.00     0.024 C 
ATOM     38  C   UNL d   1      27.916  -7.935   2.417  0.00  0.00     0.010 C 
ENDBRANCH  31  32
ENDBRANCH  14  31
TORSDOF 6
ENDMDL
MODEL 6
REMARK VINA RESULT:    -8.310      1.571      7.238
REMARK INTER + INTRA:         -11.682
REMARK INTER:                 -10.099
REMARK INTRA:                  -1.583
REMARK CONF_INDEPENDENT:        1.790
REMARK UNBOUND:                -1.583
REMARK  6 active torsions:
REMARK  status: ('A' for Active; 'I' for Inactive)
REMARK    1  A    between atoms: C_2  and  C_30 
REMARK    2  A    between atoms: C_2  and  N_3 
REMARK       I    between atoms: N_3  and  C_4 
REMARK    3  A    between atoms: C_4  and  C_6 
REMARK    4  A    between atoms: N_19  and  C_20 
REMARK    5  A    between atoms: C_20  and  C_21 
REMARK    6  A    between atoms: C_28  and  N_29 
ROOT
ATOM      1  C   UNL d   1      26.974 -12.688  -1.897  0.00  0.00     0.076 A 
ATOM      2  C   UNL d   1      27.342 -11.975  -0.787  0.00  0.00     0.042 A 
ATOM      3  C   UNL d   1      27.463 -12.688   0.396  0.00  0.00     0.080 A 
ATOM      4  C   UNL d   1      27.806 -11.970   1.622  0.00  0.00     0.267 A 
ATOM      5  O   UNL d   1      27.964 -10.745   1.544  0.00  0.00    -0.267 OA
ATOM      6  N   UNL d   1      27.934 -12.724   2.770  0.00  0.00    -0.273 N 
ATOM      7  C   UNL d   1      28.281 -12.068   3.948  0.00  0.00     0.102 A 
ATOM      8  C   UNL d   1      28.434 -12.720   5.102  0.00  0.00     0.018 A 
ATOM      9  C   UNL d   1      28.234 -14.143   5.145  0.00  0.00     0.005 A 
ATOM     10  C   UNL d   1      27.898 -14.823   4.039  0.00  0.00     0.051 A 
ATOM     11  C   UNL d   1      27.726 -14.106   2.741  0.00  0.00     0.139 A 
ATOM     12  N   UNL d   1      27.405 -14.778   1.668  0.00  0.00    -0.212 NA
ATOM     13  C   UNL d   1      27.258 -14.076   0.464  0.00  0.00     0.149 A 
ATOM     14  N   UNL d   1      26.893 -14.774  -0.667  0.00  0.00    -0.312 N 
ATOM     15  C   UNL d   1      26.685 -14.074  -1.828  0.00  0.00     0.118 A 
ENDROOT
BRANCH   1  16
ATOM     16  C   UNL d   1      26.610 -12.017  -3.153  0.00  0.00     0.256 C 
ATOM     17  N   UNL d   1      27.566 -11.397  -3.909  0.00  0.00    -0.348 N 
ATOM     18  H   UNL d   1      28.503 -11.250  -3.555  0.00  0.00     0.163 HD
ATOM     19  O   UNL d   1      25.434 -12.143  -3.479  0.00  0.00    -0.268 OA
BRANCH  17  20
ATOM     20  C   UNL d   1      27.255 -10.737  -5.191  0.00  0.00     0.114 C 
ATOM     21  C   UNL d   1      26.742 -11.668  -6.305  0.00  0.00     0.037 C 
BRANCH  20  22
ATOM     22  C   UNL d   1      26.233  -9.648  -4.943  0.00  0.00    -0.036 A 
ATOM     23  C   UNL d   1      25.158  -9.509  -5.834  0.00  0.00     0.009 A 
ATOM     24  C   UNL d   1      24.280  -8.439  -5.729  0.00  0.00     0.001 A 
ATOM     25  C   UNL d   1      24.397  -7.554  -4.663  0.00  0.00     0.000 A 
ATOM     26  C   UNL d   1      25.400  -7.737  -3.711  0.00  0.00     0.001 A 
ATOM     27  C   UNL d   1      26.354  -8.744  -3.879  0.00  0.00     0.009 A 
ENDBRANCH  20  22
ENDBRANCH  17  20
ENDBRANCH   1  16
BRANCH  15  28
ATOM     28  N   UNL d   1      26.187 -14.659  -2.974  0.00  0.00    -0.384 N 
ATOM     29  H   UNL d   1      26.083 -14.182  -3.850  0.00  0.00     0.157 HD
ATOM     30  H   UNL d   1      26.259 -15.670  -3.099  0.00  0.00     0.157 HD
ENDBRANCH  15  28
BRANCH  14  31
ATOM     31  C   UNL d   1      26.754 -16.301  -0.562  0.00  0.00     0.171 C 
BRANCH  31  32
ATOM     32  C   UNL d   1      25.365 -16.865  -0.220  0.00  0.00    -0.040 C 
ATOM     33  C   UNL d   1      25.212 -18.232   0.117  0.00  0.00     0.010 C 
ATOM     34  C   UNL d   1      23.989 -18.882  -0.145  0.00  0.00     0.024 C 
ATOM     35  C   UNL d   1      22.863 -18.144  -0.501  0.00  0.00     0.034 C 
ATOM     36 CL   UNL d   1      21.410 -18.950  -0.945  0.00  0.00    -0.084 Cl
ATOM     37  C   UNL d   1      22.949 -16.756  -0.603  0.00  0.00     0.024 C 
ATOM     38  C   UNL d   1      24.200 -16.122  -0.520  0.00  0.00     0.010 C 
ENDBRANCH  31  32
ENDBRANCH  14  31
TORSDOF 6
ENDMDL
MODEL 7
REMARK VINA RESULT:    -8.083      4.801      7.461
REMARK INTER + INTRA:         -11.570
REMARK INTER:                  -9.873
REMARK INTRA:                  -1.698
REMARK CONF_INDEPENDENT:        1.790
REMARK UNBOUND:                -1.698
REMARK  6 active torsions:
REMARK  status: ('A' for Active; 'I' for Inactive)
REMARK    1  A    between atoms: C_2  and  C_30 
REMARK    2  A    between atoms: C_2  and  N_3 
REMARK       I    between atoms: N_3  and  C_4 
REMARK    3  A    between atoms: C_4  and  C_6 
REMARK    4  A    between atoms: N_19  and  C_20 
REMARK    5  A    between atoms: C_20  and  C_21 
REMARK    6  A    between atoms: C_28  and  N_29 
ROOT
ATOM      1  C   UNL d   1      30.249 -17.611  -2.699  0.00  0.00     0.076 A 
ATOM      2  C   UNL d   1      30.051 -16.836  -3.811  0.00  0.00     0.042 A 
ATOM      3  C   UNL d   1      29.087 -15.845  -3.712  0.00  0.00     0.080 A 
ATOM      4  C   UNL d   1      28.800 -15.020  -4.884  0.00  0.00     0.267 A 
ATOM      5  O   UNL d   1      29.431 -15.257  -5.921  0.00  0.00    -0.267 OA
ATOM      6  N   UNL d   1      27.847 -14.034  -4.732  0.00  0.00    -0.273 N 
ATOM      7  C   UNL d   1      27.568 -13.220  -5.827  0.00  0.00     0.102 A 
ATOM      8  C   UNL d   1      26.668 -12.237  -5.766  0.00  0.00     0.018 A 
ATOM      9  C   UNL d   1      25.954 -12.003  -4.540  0.00  0.00     0.005 A 
ATOM     10  C   UNL d   1      26.183 -12.759  -3.457  0.00  0.00     0.051 A 
ATOM     11  C   UNL d   1      27.190 -13.860  -3.511  0.00  0.00     0.139 A 
ATOM     12  N   UNL d   1      27.411 -14.587  -2.448  0.00  0.00    -0.212 NA
ATOM     13  C   UNL d   1      28.367 -15.609  -2.530  0.00  0.00     0.149 A 
ATOM     14  N   UNL d   1      28.587 -16.397  -1.421  0.00  0.00    -0.312 N 
ATOM     15  C   UNL d   1      29.475 -17.437  -1.524  0.00  0.00     0.118 A 
ENDROOT
BRANCH   1  16
ATOM     16  C   UNL d   1      31.085 -18.820  -2.746  0.00  0.00     0.256 C 
ATOM     17  N   UNL d   1      30.981 -19.694  -3.793  0.00  0.00    -0.348 N 
ATOM     18  H   UNL d   1      30.231 -19.617  -4.469  0.00  0.00     0.163 HD
ATOM     19  O   UNL d   1      31.906 -18.909  -1.839  0.00  0.00    -0.268 OA
BRANCH  17  20
ATOM     20  C   UNL d   1      31.818 -20.903  -3.898  0.00  0.00     0.114 C 
ATOM     21  C   UNL d   1      33.307 -20.707  -3.556  0.00  0.00     0.037 C 
BRANCH  20  22
ATOM     22  C   UNL d   1      31.239 -21.977  -3.003  0.00  0.00    -0.036 A 
ATOM     23  C   UNL d   1      30.408 -22.957  -3.567  0.00  0.00     0.009 A 
ATOM     24  C   UNL d   1      29.740 -23.873  -2.765  0.00  0.00     0.001 A 
ATOM     25  C   UNL d   1      29.983 -23.894  -1.396  0.00  0.00     0.000 A 
ATOM     26  C   UNL d   1      30.885 -22.992  -0.833  0.00  0.00     0.001 A 
ATOM     27  C   UNL d   1      31.468 -21.996  -1.621  0.00  0.00     0.009 A 
ENDBRANCH  20  22
ENDBRANCH  17  20
ENDBRANCH   1  16
BRANCH  15  28
ATOM     28  N   UNL d   1      29.661 -18.364  -0.519  0.00  0.00    -0.384 N 
ATOM     29  H   UNL d   1      30.556 -18.615  -0.143  0.00  0.00     0.157 HD
ATOM     30  H   UNL d   1      28.906 -18.551   0.142  0.00  0.00     0.157 HD
ENDBRANCH  15  28
BRANCH  14  31
ATOM     31  C   UNL d   1      27.833 -16.053  -0.127  0.00  0.00     0.171 C 
BRANCH  31  32
ATOM     32  C   UNL d   1      26.392 -16.575   0.014  0.00  0.00    -0.040 C 
ATOM     33  C   UNL d   1      26.150 -17.874   0.526  0.00  0.00     0.010 C 
ATOM     34  C   UNL d   1      24.992 -18.574   0.130  0.00  0.00     0.024 C 
ATOM     35  C   UNL d   1      23.975 -17.917  -0.557  0.00  0.00     0.034 C 
ATOM     36 CL   UNL d   1      22.626 -18.804  -1.151  0.00  0.00    -0.084 Cl
ATOM     37  C   UNL d   1      24.105 -16.562  -0.859  0.00  0.00     0.024 C 
ATOM     38  C   UNL d   1      25.325 -15.905  -0.628  0.00  0.00     0.010 C 
ENDBRANCH  31  32
ENDBRANCH  14  31
TORSDOF 6
ENDMDL
MODEL 8
REMARK VINA RESULT:    -7.924      4.090      6.501
REMARK INTER + INTRA:         -11.309
REMARK INTER:                  -9.714
REMARK INTRA:                  -1.595
REMARK CONF_INDEPENDENT:        1.790
REMARK UNBOUND:                -1.595
REMARK  6 active torsions:
REMARK  status: ('A' for Active; 'I' for Inactive)
REMARK    1  A    between atoms: C_2  and  C_30 
REMARK    2  A    between atoms: C_2  and  N_3 
REMARK       I    between atoms: N_3  and  C_4 
REMARK    3  A    between atoms: C_4  and  C_6 
REMARK    4  A    between atoms: N_19  and  C_20 
REMARK    5  A    between atoms: C_20  and  C_21 
REMARK    6  A    between atoms: C_28  and  N_29 
ROOT
ATOM      1  C   UNL d   1      27.048 -13.066  -3.754  0.00  0.00     0.076 A 
ATOM      2  C   UNL d   1      27.689 -13.468  -4.896  0.00  0.00     0.042 A 
ATOM      3  C   UNL d   1      28.369 -14.675  -4.833  0.00  0.00     0.080 A 
ATOM      4  C   UNL d   1      29.112 -15.128  -6.007  0.00  0.00     0.267 A 
ATOM      5  O   UNL d   1      29.106 -14.400  -7.007  0.00  0.00    -0.267 OA
ATOM      6  N   UNL d   1      29.756 -16.344  -5.904  0.00  0.00    -0.273 N 
ATOM      7  C   UNL d   1      30.455 -16.810  -7.014  0.00  0.00     0.102 A 
ATOM      8  C   UNL d   1      31.099 -17.979  -7.005  0.00  0.00     0.018 A 
ATOM      9  C   UNL d   1      31.083 -18.789  -5.818  0.00  0.00     0.005 A 
ATOM     10  C   UNL d   1      30.427 -18.385  -4.720  0.00  0.00     0.051 A 
ATOM     11  C   UNL d   1      29.699 -17.082  -4.718  0.00  0.00     0.139 A 
ATOM     12  N   UNL d   1      29.057 -16.701  -3.646  0.00  0.00    -0.212 NA
ATOM     13  C   UNL d   1      28.379 -15.475  -3.679  0.00  0.00     0.149 A 
ATOM     14  N   UNL d   1      27.722 -15.054  -2.543  0.00  0.00    -0.312 N 
ATOM     15  C   UNL d   1      27.116 -13.824  -2.558  0.00  0.00     0.118 A 
ENDROOT
BRANCH   1  16
ATOM     16  C   UNL d   1      26.475 -11.718  -3.630  0.00  0.00     0.256 C 
ATOM     17  N   UNL d   1      27.223 -10.617  -3.946  0.00  0.00    -0.348 N 
ATOM     18  H   UNL d   1      28.218 -10.688  -4.117  0.00  0.00     0.163 HD
ATOM     19  O   UNL d   1      25.290 -11.692  -3.318  0.00  0.00    -0.268 OA
BRANCH  17  20
ATOM     20  C   UNL d   1      26.683  -9.246  -3.866  0.00  0.00     0.114 C 
ATOM     21  C   UNL d   1      25.335  -9.025  -4.577  0.00  0.00     0.037 C 
BRANCH  20  22
ATOM     22  C   UNL d   1      26.546  -8.860  -2.409  0.00  0.00    -0.036 A 
ATOM     23  C   UNL d   1      27.433  -9.415  -1.473  0.00  0.00     0.009 A 
ATOM     24  C   UNL d   1      27.255  -9.204  -0.112  0.00  0.00     0.001 A 
ATOM     25  C   UNL d   1      26.256  -8.342   0.326  0.00  0.00     0.000 A 
ATOM     26  C   UNL d   1      25.431  -7.702  -0.599  0.00  0.00     0.001 A 
ATOM     27  C   UNL d   1      25.533  -8.004  -1.959  0.00  0.00     0.009 A 
ENDBRANCH  20  22
ENDBRANCH  17  20
ENDBRANCH   1  16
BRANCH  15  28
ATOM     28  N   UNL d   1      26.553 -13.254  -1.434  0.00  0.00    -0.384 N 
ATOM     29  H   UNL d   1      25.840 -12.549  -1.457  0.00  0.00     0.157 HD
ATOM     30  H   UNL d   1      26.546 -13.773  -0.554  0.00  0.00     0.157 HD
ENDBRANCH  15  28
BRANCH  14  31
ATOM     31  C   UNL d   1      27.696 -15.996  -1.330  0.00  0.00     0.171 C 
BRANCH  31  32
ATOM     32  C   UNL d   1      26.319 -16.435  -0.803  0.00  0.00    -0.040 C 
ATOM     33  C   UNL d   1      26.220 -17.456   0.175  0.00  0.00     0.010 C 
ATOM     34  C   UNL d   1      25.062 -18.257   0.231  0.00  0.00     0.024 C 
ATOM     35  C   UNL d   1      23.926 -17.902  -0.492  0.00  0.00     0.034 C 
ATOM     36 CL   UNL d   1      22.563 -18.950  -0.522  0.00  0.00    -0.084 Cl
ATOM     37  C   UNL d   1      23.938 -16.752  -1.280  0.00  0.00     0.024 C 
ATOM     38  C   UNL d   1      25.140 -16.051  -1.482  0.00  0.00     0.010 C 
ENDBRANCH  31  32
ENDBRANCH  14  31
TORSDOF 6
ENDMDL
MODEL 9
REMARK VINA RESULT:    -7.853      4.081      9.674
REMARK INTER + INTRA:         -11.431
REMARK INTER:                  -9.643
REMARK INTRA:                  -1.788
REMARK CONF_INDEPENDENT:        1.790
REMARK UNBOUND:                -1.788
REMARK  6 active torsions:
REMARK  status: ('A' for Active; 'I' for Inactive)
REMARK    1  A    between atoms: C_2  and  C_30 
REMARK    2  A    between atoms: C_2  and  N_3 
REMARK       I    between atoms: N_3  and  C_4 
REMARK    3  A    between atoms: C_4  and  C_6 
REMARK    4  A    between atoms: N_19  and  C_20 
REMARK    5  A    between atoms: C_20  and  C_21 
REMARK    6  A    between atoms: C_28  and  N_29 
ROOT
ATOM      1  C   UNL d   1      27.403 -13.799   2.376  0.00  0.00     0.076 A 
ATOM      2  C   UNL d   1      27.780 -14.453   3.519  0.00  0.00     0.042 A 
ATOM      3  C   UNL d   1      27.998 -13.667   4.640  0.00  0.00     0.080 A 
ATOM      4  C   UNL d   1      28.449 -14.307   5.874  0.00  0.00     0.267 A 
ATOM      5  O   UNL d   1      28.625 -15.531   5.855  0.00  0.00    -0.267 OA
ATOM      6  N   UNL d   1      28.634 -13.486   6.968  0.00  0.00    -0.273 N 
ATOM      7  C   UNL d   1      29.044 -14.073   8.163  0.00  0.00     0.102 A 
ATOM      8  C   UNL d   1      29.238 -13.357   9.272  0.00  0.00     0.018 A 
ATOM      9  C   UNL d   1      29.026 -11.935   9.245  0.00  0.00     0.005 A 
ATOM     10  C   UNL d   1      28.634 -11.321   8.120  0.00  0.00     0.051 A 
ATOM     11  C   UNL d   1      28.409 -12.110   6.873  0.00  0.00     0.139 A 
ATOM     12  N   UNL d   1      28.020 -11.503   5.784  0.00  0.00    -0.212 NA
ATOM     13  C   UNL d   1      27.811 -12.275   4.632  0.00  0.00     0.149 A 
ATOM     14  N   UNL d   1      27.427 -11.638   3.472  0.00  0.00    -0.312 N 
ATOM     15  C   UNL d   1      27.288 -12.387   2.332  0.00  0.00     0.118 A 
ENDROOT
BRANCH   1  16
ATOM     16  C   UNL d   1      27.348 -14.490   1.080  0.00  0.00     0.256 C 
ATOM     17  N   UNL d   1      28.149 -15.573   0.838  0.00  0.00    -0.348 N 
ATOM     18  H   UNL d   1      28.897 -15.825   1.471  0.00  0.00     0.163 HD
ATOM     19  O   UNL d   1      26.488 -14.071   0.313  0.00  0.00    -0.268 OA
BRANCH  17  20
ATOM     20  C   UNL d   1      28.108 -16.316  -0.435  0.00  0.00     0.114 C 
ATOM     21  C   UNL d   1      29.150 -17.442  -0.576  0.00  0.00     0.037 C 
BRANCH  20  22
ATOM     22  C   UNL d   1      26.722 -16.896  -0.617  0.00  0.00    -0.036 A 
ATOM     23  C   UNL d   1      25.907 -16.397  -1.646  0.00  0.00     0.009 A 
ATOM     24  C   UNL d   1      24.581 -16.795  -1.760  0.00  0.00     0.001 A 
ATOM     25  C   UNL d   1      24.084 -17.781  -0.916  0.00  0.00     0.000 A 
ATOM     26  C   UNL d   1      24.911 -18.360   0.045  0.00  0.00     0.001 A 
ATOM     27  C   UNL d   1      26.209 -17.880   0.238  0.00  0.00     0.009 A 
ENDBRANCH  20  22
ENDBRANCH  17  20
ENDBRANCH   1  16
BRANCH  15  28
ATOM     28  N   UNL d   1      27.043 -11.826   1.094  0.00  0.00    -0.384 N 
ATOM     29  H   UNL d   1      27.714 -11.293   0.575  0.00  0.00     0.157 HD
ATOM     30  H   UNL d   1      26.330 -12.234   0.488  0.00  0.00     0.157 HD
ENDBRANCH  15  28
BRANCH  14  31
ATOM     31  C   UNL d   1      27.161 -10.126   3.530  0.00  0.00     0.171 C 
BRANCH  31  32
ATOM     32  C   UNL d   1      28.247  -9.239   4.162  0.00  0.00    -0.040 C 
ATOM     33  C   UNL d   1      29.614  -9.597   4.055  0.00  0.00     0.010 C 
ATOM     34  C   UNL d   1      30.520  -9.192   5.055  0.00  0.00     0.024 C 
ATOM     35  C   UNL d   1      30.141  -8.250   6.008  0.00  0.00     0.034 C 
ATOM     36 CL   UNL d   1      31.205  -7.857   7.300  0.00  0.00    -0.084 Cl
ATOM     37  C   UNL d   1      28.856  -7.709   5.974  0.00  0.00     0.024 C 
ATOM     38  C   UNL d   1      27.895  -8.237   5.096  0.00  0.00     0.010 C 
ENDBRANCH  31  32
ENDBRANCH  14  31
TORSDOF 6
ENDMDL
