MODEL 1
REMARK VINA RESULT:   -31.992      0.000      0.000
REMARK INTER + INTRA:         -36.209
REMARK INTER:                 -34.677
REMARK INTRA:                  -1.533
REMARK CONF_INDEPENDENT:        2.685
REMARK UNBOUND:                -1.533
REMARK  9 active torsions:
REMARK  status: ('A' for Active; 'I' for Inactive)
REMARK    1  A    between atoms: C_2  and  O_3 
REMARK    2  A    between atoms: O_3  and  C_4 
REMARK    3  A    between atoms: C_6  and  C_7 
REMARK    4  A    between atoms: C_7  and  N_8 
REMARK    5  A    between atoms: C_10  and  S_11 
REMARK    6  A    between atoms: S_11  and  C_12 
REMARK    7  A    between atoms: C_19  and  C_20 
REMARK       I    between atoms: C_20  and  N_22 
REMARK    8  A    between atoms: N_22  and  C_23 
REMARK    9  A    between atoms: C_35  and  O_36 
ROOT
ATOM      1  N   UNL d   1      25.319 -16.617  -1.863  0.00  0.00    -0.053 N 
ATOM      2  C   UNL d   1      24.429 -17.824  -2.184  0.00  0.00     0.252 C 
ATOM      3  C   UNL d   1      23.636 -18.192  -0.921  0.00  0.00     0.082 C 
ATOM      4  C   UNL d   1      24.659 -17.803   0.241  0.00  0.00     0.060 C 
ATOM      5  C   UNL d   1      25.721 -16.777  -0.342  0.00  0.00     0.281 C 
ATOM      6  H   UNL d   1      26.192 -16.742  -2.409  0.00  0.00     0.281 HD
ENDROOT
BRANCH   5   7
ATOM      7  C   UNL d   1      27.153 -17.208  -0.064  0.00  0.00     0.253 C 
ATOM      8  O   UNL d   1      27.341 -18.271   0.488  0.00  0.00    -0.271 OA
ATOM      9  N   UNL d   1      28.118 -16.280  -0.500  0.00  0.00    -0.325 N 
ATOM     10  H   UNL d   1      27.861 -15.355  -0.831  0.00  0.00     0.169 HD
BRANCH   9  11
ATOM     11  C   UNL d   1      29.493 -16.481  -0.246  0.00  0.00     0.037 A 
ATOM     12  C   UNL d   1      30.149 -17.565  -0.818  0.00  0.00     0.031 A 
ATOM     13  C   UNL d   1      31.481 -17.847  -0.523  0.00  0.00     0.023 A 
ATOM     14  C   UNL d   1      32.151 -17.007   0.375  0.00  0.00     0.035 A 
ATOM     15  S   UNL d   1      33.765 -17.122   0.951  0.00  0.00    -0.073 SA
ATOM     16  C   UNL d   1      31.534 -15.891   0.942  0.00  0.00     0.077 A 
ATOM     17  C   UNL d   1      33.523 -15.722   1.910  0.00  0.00     0.072 A 
ATOM     18  C   UNL d   1      34.631 -15.198   2.760  0.00  0.00     0.079 C 
ATOM     19  N   UNL d   1      32.327 -15.174   1.827  0.00  0.00    -0.245 NA
ATOM     20  C   UNL d   1      30.189 -15.602   0.599  0.00  0.00     0.062 A 
ENDBRANCH   9  11
ENDBRANCH   5   7
BRANCH   1  21
ATOM     21  C   UNL d   1      24.778 -15.144  -2.286  0.00  0.00     0.274 C 
BRANCH  21  22
ATOM     22  C   UNL d   1      25.565 -14.393  -3.349  0.00  0.00    -0.030 C 
ATOM     23  C   UNL d   1      26.296 -14.813  -4.423  0.00  0.00     0.048 C 
ATOM     24  C   UNL d   1      26.760 -13.842  -5.384  0.00  0.00     0.102 C 
ATOM     25  C   UNL d   1      26.463 -12.461  -5.290  0.00  0.00     0.099 C 
ATOM     26  C   UNL d   1      25.953 -12.021  -4.138  0.00  0.00     0.040 C 
ATOM     27  C   UNL d   1      25.541 -13.026  -3.304  0.00  0.00     0.012 C 
BRANCH  24  28
ATOM     28  O   UNL d   1      27.538 -14.406  -6.347  0.00  0.00    -0.349 OA
BRANCH  28  29
ATOM     29  C   UNL d   1      28.865 -13.913  -6.444  0.00  0.00     0.171 C 
ATOM     30  C   UNL d   1      29.763 -14.983  -5.871  0.00  0.00     0.034 C 
ENDBRANCH  28  29
ENDBRANCH  24  28
BRANCH  25  31
ATOM     31  O   UNL d   1      26.546 -11.523  -6.272  0.00  0.00    -0.358 OA
ATOM     32  H   UNL d   1      26.125 -11.836  -7.094  0.00  0.00     0.217 HD
ENDBRANCH  25  31
ENDBRANCH  21  22
ENDBRANCH   1  21
BRANCH   3  33
ATOM     33  S   UNL d   1      21.812 -17.596  -0.771  0.00  0.00    -0.104 SA
BRANCH  33  34
ATOM     34  C   UNL d   1      20.765 -18.980  -0.322  0.00  0.00     0.093 A 
ATOM     35  C   UNL d   1      20.844 -19.373   0.994  0.00  0.00     0.039 A 
ATOM     36  C   UNL d   1      19.769 -20.031   1.561  0.00  0.00     0.004 A 
ATOM     37  C   UNL d   1      18.655 -20.324   0.787  0.00  0.00     0.019 A 
ATOM     38  C   UNL d   1      18.686 -19.988  -0.557  0.00  0.00     0.118 A 
ATOM     39  N   UNL d   1      19.728 -19.325  -1.131  0.00  0.00    -0.254 NA
ENDBRANCH  33  34
ENDBRANCH   3  33
TORSDOF 9
ENDMDL
MODEL 2
REMARK VINA RESULT:   -31.248      1.384      2.463
REMARK INTER + INTRA:         -35.332
REMARK INTER:                 -33.933
REMARK INTRA:                  -1.399
REMARK CONF_INDEPENDENT:        2.685
REMARK UNBOUND:                -1.399
REMARK  9 active torsions:
REMARK  status: ('A' for Active; 'I' for Inactive)
REMARK    1  A    between atoms: C_2  and  O_3 
REMARK    2  A    between atoms: O_3  and  C_4 
REMARK    3  A    between atoms: C_6  and  C_7 
REMARK    4  A    between atoms: C_7  and  N_8 
REMARK    5  A    between atoms: C_10  and  S_11 
REMARK    6  A    between atoms: S_11  and  C_12 
REMARK    7  A    between atoms: C_19  and  C_20 
REMARK       I    between atoms: C_20  and  N_22 
REMARK    8  A    between atoms: N_22  and  C_23 
REMARK    9  A    between atoms: C_35  and  O_36 
ROOT
ATOM      1  N   UNL d   1      25.348 -16.421  -1.816  0.00  0.00    -0.053 N 
ATOM      2  C   UNL d   1      24.466 -17.584  -2.290  0.00  0.00     0.252 C 
ATOM      3  C   UNL d   1      23.659 -18.102  -1.090  0.00  0.00     0.082 C 
ATOM      4  C   UNL d   1      24.667 -17.852   0.123  0.00  0.00     0.060 C 
ATOM      5  C   UNL d   1      25.732 -16.761  -0.320  0.00  0.00     0.281 C 
ATOM      6  H   UNL d   1      26.228 -16.478  -2.362  0.00  0.00     0.281 HD
ENDROOT
BRANCH   5   7
ATOM      7  C   UNL d   1      27.162 -17.219  -0.078  0.00  0.00     0.253 C 
ATOM      8  O   UNL d   1      27.344 -18.274   0.488  0.00  0.00    -0.271 OA
ATOM      9  N   UNL d   1      28.133 -16.321  -0.561  0.00  0.00    -0.325 N 
ATOM     10  H   UNL d   1      27.886 -15.396  -0.902  0.00  0.00     0.169 HD
BRANCH   9  11
ATOM     11  C   UNL d   1      29.510 -16.547  -0.345  0.00  0.00     0.037 A 
ATOM     12  C   UNL d   1      30.313 -15.515   0.125  0.00  0.00     0.031 A 
ATOM     13  C   UNL d   1      31.690 -15.672   0.269  0.00  0.00     0.023 A 
ATOM     14  C   UNL d   1      32.254 -16.906  -0.077  0.00  0.00     0.035 A 
ATOM     15  S   UNL d   1      33.905 -17.380  -0.040  0.00  0.00    -0.073 SA
ATOM     16  C   UNL d   1      31.474 -17.975  -0.521  0.00  0.00     0.077 A 
ATOM     17  C   UNL d   1      33.473 -18.931  -0.627  0.00  0.00     0.072 A 
ATOM     18  C   UNL d   1      34.526 -19.963  -0.853  0.00  0.00     0.079 C 
ATOM     19  N   UNL d   1      32.187 -19.121  -0.842  0.00  0.00    -0.245 NA
ATOM     20  C   UNL d   1      30.070 -17.804  -0.624  0.00  0.00     0.062 A 
ENDBRANCH   9  11
ENDBRANCH   5   7
BRANCH   1  21
ATOM     21  C   UNL d   1      24.805 -14.910  -2.067  0.00  0.00     0.274 C 
BRANCH  21  22
ATOM     22  C   UNL d   1      25.473 -14.107  -3.173  0.00  0.00    -0.030 C 
ATOM     23  C   UNL d   1      25.736 -12.775  -3.315  0.00  0.00     0.048 C 
ATOM     24  C   UNL d   1      26.581 -12.335  -4.399  0.00  0.00     0.102 C 
ATOM     25  C   UNL d   1      27.190 -13.227  -5.314  0.00  0.00     0.099 C 
ATOM     26  C   UNL d   1      26.758 -14.488  -5.319  0.00  0.00     0.040 C 
ATOM     27  C   UNL d   1      25.968 -14.800  -4.245  0.00  0.00     0.012 C 
BRANCH  24  28
ATOM     28  O   UNL d   1      26.680 -10.979  -4.452  0.00  0.00    -0.349 OA
BRANCH  28  29
ATOM     29  C   UNL d   1      25.826 -10.327  -5.377  0.00  0.00     0.171 C 
ATOM     30  C   UNL d   1      26.132  -8.852  -5.279  0.00  0.00     0.034 C 
ENDBRANCH  28  29
ENDBRANCH  24  28
BRANCH  25  31
ATOM     31  O   UNL d   1      28.243 -12.981  -6.141  0.00  0.00    -0.358 OA
ATOM     32  H   UNL d   1      29.018 -13.518  -5.892  0.00  0.00     0.217 HD
ENDBRANCH  25  31
ENDBRANCH  21  22
ENDBRANCH   1  21
BRANCH   3  33
ATOM     33  S   UNL d   1      21.831 -17.532  -0.892  0.00  0.00    -0.104 SA
BRANCH  33  34
ATOM     34  C   UNL d   1      20.830 -18.916  -0.346  0.00  0.00     0.093 A 
ATOM     35  C   UNL d   1      20.963 -19.247   0.982  0.00  0.00     0.039 A 
ATOM     36  C   UNL d   1      19.922 -19.900   1.616  0.00  0.00     0.004 A 
ATOM     37  C   UNL d   1      18.788 -20.248   0.895  0.00  0.00     0.019 A 
ATOM     38  C   UNL d   1      18.766 -19.972  -0.462  0.00  0.00     0.118 A 
ATOM     39  N   UNL d   1      19.773 -19.316  -1.102  0.00  0.00    -0.254 NA
ENDBRANCH  33  34
ENDBRANCH   3  33
TORSDOF 9
ENDMDL
MODEL 3
REMARK VINA RESULT:   -29.996      3.693      9.289
REMARK INTER + INTRA:         -34.827
REMARK INTER:                 -32.681
REMARK INTRA:                  -2.145
REMARK CONF_INDEPENDENT:        2.685
REMARK UNBOUND:                -2.145
REMARK  9 active torsions:
REMARK  status: ('A' for Active; 'I' for Inactive)
REMARK    1  A    between atoms: C_2  and  O_3 
REMARK    2  A    between atoms: O_3  and  C_4 
REMARK    3  A    between atoms: C_6  and  C_7 
REMARK    4  A    between atoms: C_7  and  N_8 
REMARK    5  A    between atoms: C_10  and  S_11 
REMARK    6  A    between atoms: S_11  and  C_12 
REMARK    7  A    between atoms: C_19  and  C_20 
REMARK       I    between atoms: C_20  and  N_22 
REMARK    8  A    between atoms: N_22  and  C_23 
REMARK    9  A    between atoms: C_35  and  O_36 
ROOT
ATOM      1  N   UNL d   1      27.392 -14.462  -2.280  0.00  0.00    -0.053 N 
ATOM      2  C   UNL d   1      28.062 -14.871  -3.598  0.00  0.00     0.252 C 
ATOM      3  C   UNL d   1      27.083 -14.588  -4.748  0.00  0.00     0.082 C 
ATOM      4  C   UNL d   1      25.669 -14.850  -4.055  0.00  0.00     0.060 C 
ATOM      5  C   UNL d   1      25.848 -14.744  -2.481  0.00  0.00     0.281 C 
ATOM      6  H   UNL d   1      27.719 -15.136  -1.562  0.00  0.00     0.281 HD
ENDROOT
BRANCH   5   7
ATOM      7  C   UNL d   1      25.283 -15.954  -1.754  0.00  0.00     0.253 C 
ATOM      8  O   UNL d   1      26.033 -16.862  -1.469  0.00  0.00    -0.271 OA
ATOM      9  N   UNL d   1      23.902 -15.862  -1.493  0.00  0.00    -0.325 N 
ATOM     10  H   UNL d   1      23.330 -15.123  -1.889  0.00  0.00     0.169 HD
BRANCH   9  11
ATOM     11  C   UNL d   1      23.198 -16.934  -0.902  0.00  0.00     0.037 A 
ATOM     12  C   UNL d   1      23.870 -17.832  -0.080  0.00  0.00     0.031 A 
ATOM     13  C   UNL d   1      23.231 -18.950   0.451  0.00  0.00     0.023 A 
ATOM     14  C   UNL d   1      21.882 -19.153   0.135  0.00  0.00     0.035 A 
ATOM     15  S   UNL d   1      20.852 -20.445   0.606  0.00  0.00    -0.073 SA
ATOM     16  C   UNL d   1      21.167 -18.256  -0.660  0.00  0.00     0.077 A 
ATOM     17  C   UNL d   1      19.564 -19.741  -0.280  0.00  0.00     0.072 A 
ATOM     18  C   UNL d   1      18.229 -20.405  -0.310  0.00  0.00     0.079 C 
ATOM     19  N   UNL d   1      19.848 -18.612  -0.897  0.00  0.00    -0.245 NA
ATOM     20  C   UNL d   1      21.828 -17.105  -1.160  0.00  0.00     0.062 A 
ENDBRANCH   9  11
ENDBRANCH   5   7
BRANCH   1  21
ATOM     21  C   UNL d   1      27.755 -13.001  -1.668  0.00  0.00     0.274 C 
BRANCH  21  22
ATOM     22  C   UNL d   1      27.736 -12.858  -0.153  0.00  0.00    -0.030 C 
ATOM     23  C   UNL d   1      27.430 -11.812   0.670  0.00  0.00     0.048 C 
ATOM     24  C   UNL d   1      27.301 -12.046   2.088  0.00  0.00     0.102 C 
ATOM     25  C   UNL d   1      27.440 -13.327   2.675  0.00  0.00     0.099 C 
ATOM     26  C   UNL d   1      27.957 -14.294   1.917  0.00  0.00     0.040 C 
ATOM     27  C   UNL d   1      28.031 -13.969   0.589  0.00  0.00     0.012 C 
BRANCH  24  28
ATOM     28  O   UNL d   1      27.074 -10.895   2.777  0.00  0.00    -0.349 OA
BRANCH  28  29
ATOM     29  C   UNL d   1      25.907 -10.173   2.419  0.00  0.00     0.171 C 
ATOM     30  C   UNL d   1      26.304  -8.718   2.361  0.00  0.00     0.034 C 
ENDBRANCH  28  29
ENDBRANCH  24  28
BRANCH  25  31
ATOM     31  O   UNL d   1      27.020 -13.728   3.906  0.00  0.00    -0.358 OA
ATOM     32  H   UNL d   1      27.576 -13.344   4.609  0.00  0.00     0.217 HD
ENDBRANCH  25  31
ENDBRANCH  21  22
ENDBRANCH   1  21
BRANCH   3  33
ATOM     33  S   UNL d   1      27.313 -12.980  -5.779  0.00  0.00    -0.104 SA
BRANCH  33  34
ATOM     34  C   UNL d   1      26.174 -11.725  -5.193  0.00  0.00     0.093 A 
ATOM     35  C   UNL d   1      26.260 -11.436  -3.851  0.00  0.00     0.039 A 
ATOM     36  C   UNL d   1      25.844 -10.195  -3.406  0.00  0.00     0.004 A 
ATOM     37  C   UNL d   1      25.307  -9.286  -4.307  0.00  0.00     0.019 A 
ATOM     38  C   UNL d   1      25.158  -9.683  -5.626  0.00  0.00     0.118 A 
ATOM     39  N   UNL d   1      25.576 -10.894  -6.088  0.00  0.00    -0.254 NA
ENDBRANCH  33  34
ENDBRANCH   3  33
TORSDOF 9
ENDMDL
MODEL 4
REMARK VINA RESULT:   -29.656      3.739      9.145
REMARK INTER + INTRA:         -35.023
REMARK INTER:                 -32.340
REMARK INTRA:                  -2.683
REMARK CONF_INDEPENDENT:        2.685
REMARK UNBOUND:                -2.683
REMARK  9 active torsions:
REMARK  status: ('A' for Active; 'I' for Inactive)
REMARK    1  A    between atoms: C_2  and  O_3 
REMARK    2  A    between atoms: O_3  and  C_4 
REMARK    3  A    between atoms: C_6  and  C_7 
REMARK    4  A    between atoms: C_7  and  N_8 
REMARK    5  A    between atoms: C_10  and  S_11 
REMARK    6  A    between atoms: S_11  and  C_12 
REMARK    7  A    between atoms: C_19  and  C_20 
REMARK       I    between atoms: C_20  and  N_22 
REMARK    8  A    between atoms: N_22  and  C_23 
REMARK    9  A    between atoms: C_35  and  O_36 
ROOT
ATOM      1  N   UNL d   1      27.686 -14.826  -2.404  0.00  0.00    -0.053 N 
ATOM      2  C   UNL d   1      28.121 -15.252  -3.812  0.00  0.00     0.252 C 
ATOM      3  C   UNL d   1      27.046 -14.797  -4.811  0.00  0.00     0.082 C 
ATOM      4  C   UNL d   1      25.712 -14.916  -3.942  0.00  0.00     0.060 C 
ATOM      5  C   UNL d   1      26.106 -14.907  -2.404  0.00  0.00     0.281 C 
ATOM      6  H   UNL d   1      28.015 -15.567  -1.758  0.00  0.00     0.281 HD
ENDROOT
BRANCH   5   7
ATOM      7  C   UNL d   1      25.491 -16.072  -1.644  0.00  0.00     0.253 C 
ATOM      8  O   UNL d   1      26.229 -16.889  -1.138  0.00  0.00    -0.271 OA
ATOM      9  N   UNL d   1      24.083 -16.053  -1.625  0.00  0.00    -0.325 N 
ATOM     10  H   UNL d   1      23.547 -15.402  -2.193  0.00  0.00     0.169 HD
BRANCH   9  11
ATOM     11  C   UNL d   1      23.346 -17.105  -1.037  0.00  0.00     0.037 A 
ATOM     12  C   UNL d   1      24.004 -18.077  -0.293  0.00  0.00     0.031 A 
ATOM     13  C   UNL d   1      23.327 -19.176   0.230  0.00  0.00     0.023 A 
ATOM     14  C   UNL d   1      21.953 -19.283  -0.016  0.00  0.00     0.035 A 
ATOM     15  S   UNL d   1      20.871 -20.529   0.463  0.00  0.00    -0.073 SA
ATOM     16  C   UNL d   1      21.253 -18.310  -0.731  0.00  0.00     0.077 A 
ATOM     17  C   UNL d   1      19.583 -19.711  -0.318  0.00  0.00     0.072 A 
ATOM     18  C   UNL d   1      18.209 -20.291  -0.297  0.00  0.00     0.079 C 
ATOM     19  N   UNL d   1      19.902 -18.575  -0.905  0.00  0.00    -0.245 NA
ATOM     20  C   UNL d   1      21.956 -17.181  -1.222  0.00  0.00     0.062 A 
ENDBRANCH   9  11
ENDBRANCH   5   7
BRANCH   1  21
ATOM     21  C   UNL d   1      28.309 -13.451  -1.803  0.00  0.00     0.274 C 
BRANCH  21  22
ATOM     22  C   UNL d   1      27.777 -12.976  -0.459  0.00  0.00    -0.030 C 
ATOM     23  C   UNL d   1      27.596 -13.609   0.737  0.00  0.00     0.048 C 
ATOM     24  C   UNL d   1      27.263 -12.829   1.904  0.00  0.00     0.102 C 
ATOM     25  C   UNL d   1      27.147 -11.418   1.882  0.00  0.00     0.099 C 
ATOM     26  C   UNL d   1      27.096 -10.827   0.688  0.00  0.00     0.040 C 
ATOM     27  C   UNL d   1      27.434 -11.656  -0.348  0.00  0.00     0.012 C 
BRANCH  24  28
ATOM     28  O   UNL d   1      27.038 -13.611   2.994  0.00  0.00    -0.349 OA
BRANCH  28  29
ATOM     29  C   UNL d   1      28.142 -14.375   3.452  0.00  0.00     0.171 C 
ATOM     30  C   UNL d   1      27.829 -14.772   4.874  0.00  0.00     0.034 C 
ENDBRANCH  28  29
ENDBRANCH  24  28
BRANCH  25  31
ATOM     31  O   UNL d   1      27.174 -10.565   2.942  0.00  0.00    -0.358 OA
ATOM     32  H   UNL d   1      26.482 -10.789   3.592  0.00  0.00     0.217 HD
ENDBRANCH  25  31
ENDBRANCH  21  22
ENDBRANCH   1  21
BRANCH   3  33
ATOM     33  S   UNL d   1      27.343 -13.183  -5.815  0.00  0.00    -0.104 SA
BRANCH  33  34
ATOM     34  C   UNL d   1      26.947 -11.762  -4.795  0.00  0.00     0.093 A 
ATOM     35  C   UNL d   1      27.010 -10.546  -5.433  0.00  0.00     0.039 A 
ATOM     36  C   UNL d   1      26.258  -9.494  -4.944  0.00  0.00     0.004 A 
ATOM     37  C   UNL d   1      25.496  -9.668  -3.796  0.00  0.00     0.019 A 
ATOM     38  C   UNL d   1      25.561 -10.891  -3.148  0.00  0.00     0.118 A 
ATOM     39  N   UNL d   1      26.281 -11.945  -3.623  0.00  0.00    -0.254 NA
ENDBRANCH  33  34
ENDBRANCH   3  33
TORSDOF 9
ENDMDL
MODEL 5
REMARK VINA RESULT:   -29.461      3.437      9.536
REMARK INTER + INTRA:         -34.345
REMARK INTER:                 -32.146
REMARK INTRA:                  -2.199
REMARK CONF_INDEPENDENT:        2.685
REMARK UNBOUND:                -2.199
REMARK  9 active torsions:
REMARK  status: ('A' for Active; 'I' for Inactive)
REMARK    1  A    between atoms: C_2  and  O_3 
REMARK    2  A    between atoms: O_3  and  C_4 
REMARK    3  A    between atoms: C_6  and  C_7 
REMARK    4  A    between atoms: C_7  and  N_8 
REMARK    5  A    between atoms: C_10  and  S_11 
REMARK    6  A    between atoms: S_11  and  C_12 
REMARK    7  A    between atoms: C_19  and  C_20 
REMARK       I    between atoms: C_20  and  N_22 
REMARK    8  A    between atoms: N_22  and  C_23 
REMARK    9  A    between atoms: C_35  and  O_36 
ROOT
ATOM      1  N   UNL d   1      27.292 -14.950  -3.014  0.00  0.00    -0.053 N 
ATOM      2  C   UNL d   1      26.928 -14.936  -4.505  0.00  0.00     0.252 C 
ATOM      3  C   UNL d   1      25.752 -13.969  -4.708  0.00  0.00     0.082 C 
ATOM      4  C   UNL d   1      24.949 -14.127  -3.338  0.00  0.00     0.060 C 
ATOM      5  C   UNL d   1      25.930 -14.726  -2.242  0.00  0.00     0.281 C 
ATOM      6  H   UNL d   1      27.594 -15.918  -2.795  0.00  0.00     0.281 HD
ENDROOT
BRANCH   5   7
ATOM      7  C   UNL d   1      25.341 -15.943  -1.545  0.00  0.00     0.253 C 
ATOM      8  O   UNL d   1      26.096 -16.790  -1.120  0.00  0.00    -0.271 OA
ATOM      9  N   UNL d   1      23.934 -15.932  -1.481  0.00  0.00    -0.325 N 
ATOM     10  H   UNL d   1      23.380 -15.246  -1.985  0.00  0.00     0.169 HD
BRANCH   9  11
ATOM     11  C   UNL d   1      23.219 -17.025  -0.944  0.00  0.00     0.037 A 
ATOM     12  C   UNL d   1      23.896 -18.014  -0.240  0.00  0.00     0.031 A 
ATOM     13  C   UNL d   1      23.241 -19.150   0.230  0.00  0.00     0.023 A 
ATOM     14  C   UNL d   1      21.870 -19.277  -0.028  0.00  0.00     0.035 A 
ATOM     15  S   UNL d   1      20.815 -20.566   0.390  0.00  0.00    -0.073 SA
ATOM     16  C   UNL d   1      21.152 -18.288  -0.702  0.00  0.00     0.077 A 
ATOM     17  C   UNL d   1      19.512 -19.743  -0.361  0.00  0.00     0.072 A 
ATOM     18  C   UNL d   1      18.151 -20.353  -0.372  0.00  0.00     0.079 C 
ATOM     19  N   UNL d   1      19.808 -18.575  -0.895  0.00  0.00    -0.245 NA
ATOM     20  C   UNL d   1      21.832 -17.123  -1.139  0.00  0.00     0.062 A 
ENDBRANCH   9  11
ENDBRANCH   5   7
BRANCH   1  21
ATOM     21  C   UNL d   1      28.527 -14.013  -2.528  0.00  0.00     0.274 C 
BRANCH  21  22
ATOM     22  C   UNL d   1      28.748 -13.879  -1.029  0.00  0.00    -0.030 C 
ATOM     23  C   UNL d   1      27.887 -13.817   0.029  0.00  0.00     0.048 C 
ATOM     24  C   UNL d   1      28.410 -13.902   1.371  0.00  0.00     0.102 C 
ATOM     25  C   UNL d   1      29.785 -14.085   1.653  0.00  0.00     0.099 C 
ATOM     26  C   UNL d   1      30.644 -13.918   0.646  0.00  0.00     0.040 C 
ATOM     27  C   UNL d   1      30.041 -13.854  -0.582  0.00  0.00     0.012 C 
BRANCH  24  28
ATOM     28  O   UNL d   1      27.438 -13.744   2.310  0.00  0.00    -0.349 OA
BRANCH  28  29
ATOM     29  C   UNL d   1      27.876 -13.351   3.600  0.00  0.00     0.171 C 
ATOM     30  C   UNL d   1      27.418 -14.427   4.555  0.00  0.00     0.034 C 
ENDBRANCH  28  29
ENDBRANCH  24  28
BRANCH  25  31
ATOM     31  O   UNL d   1      30.347 -14.508   2.819  0.00  0.00    -0.358 OA
ATOM     32  H   UNL d   1      30.295 -15.478   2.902  0.00  0.00     0.217 HD
ENDBRANCH  25  31
ENDBRANCH  21  22
ENDBRANCH   1  21
BRANCH   3  33
ATOM     33  S   UNL d   1      26.119 -12.194  -5.355  0.00  0.00    -0.104 SA
BRANCH  33  34
ATOM     34  C   UNL d   1      27.833 -12.087  -5.871  0.00  0.00     0.093 A 
ATOM     35  C   UNL d   1      28.697 -11.572  -4.932  0.00  0.00     0.039 A 
ATOM     36  C   UNL d   1      30.035 -11.912  -4.998  0.00  0.00     0.004 A 
ATOM     37  C   UNL d   1      30.490 -12.722  -6.030  0.00  0.00     0.019 A 
ATOM     38  C   UNL d   1      29.581 -13.121  -6.997  0.00  0.00     0.118 A 
ATOM     39  N   UNL d   1      28.256 -12.811  -6.941  0.00  0.00    -0.254 NA
ENDBRANCH  33  34
ENDBRANCH   3  33
TORSDOF 9
ENDMDL
MODEL 6
REMARK VINA RESULT:   -29.406      4.004      8.537
REMARK INTER + INTRA:         -34.459
REMARK INTER:                 -32.091
REMARK INTRA:                  -2.368
REMARK CONF_INDEPENDENT:        2.685
REMARK UNBOUND:                -2.368
REMARK  9 active torsions:
REMARK  status: ('A' for Active; 'I' for Inactive)
REMARK    1  A    between atoms: C_2  and  O_3 
REMARK    2  A    between atoms: O_3  and  C_4 
REMARK    3  A    between atoms: C_6  and  C_7 
REMARK    4  A    between atoms: C_7  and  N_8 
REMARK    5  A    between atoms: C_10  and  S_11 
REMARK    6  A    between atoms: S_11  and  C_12 
REMARK    7  A    between atoms: C_19  and  C_20 
REMARK       I    between atoms: C_20  and  N_22 
REMARK    8  A    between atoms: N_22  and  C_23 
REMARK    9  A    between atoms: C_35  and  O_36 
ROOT
ATOM      1  N   UNL d   1      26.921 -15.214  -3.653  0.00  0.00    -0.053 N 
ATOM      2  C   UNL d   1      26.139 -14.893  -4.934  0.00  0.00     0.252 C 
ATOM      3  C   UNL d   1      25.200 -13.712  -4.647  0.00  0.00     0.082 C 
ATOM      4  C   UNL d   1      24.832 -13.944  -3.111  0.00  0.00     0.060 C 
ATOM      5  C   UNL d   1      25.938 -14.879  -2.460  0.00  0.00     0.281 C 
ATOM      6  H   UNL d   1      27.054 -16.243  -3.639  0.00  0.00     0.281 HD
ENDROOT
BRANCH   5   7
ATOM      7  C   UNL d   1      25.333 -16.067  -1.730  0.00  0.00     0.253 C 
ATOM      8  O   UNL d   1      26.056 -16.990  -1.423  0.00  0.00    -0.271 OA
ATOM      9  N   UNL d   1      23.950 -15.942  -1.495  0.00  0.00    -0.325 N 
ATOM     10  H   UNL d   1      23.401 -15.194  -1.909  0.00  0.00     0.169 HD
BRANCH   9  11
ATOM     11  C   UNL d   1      23.211 -16.991  -0.905  0.00  0.00     0.037 A 
ATOM     12  C   UNL d   1      23.831 -17.853  -0.008  0.00  0.00     0.031 A 
ATOM     13  C   UNL d   1      23.161 -18.950   0.528  0.00  0.00     0.023 A 
ATOM     14  C   UNL d   1      21.835 -19.170   0.137  0.00  0.00     0.035 A 
ATOM     15  S   UNL d   1      20.778 -20.444   0.597  0.00  0.00    -0.073 SA
ATOM     16  C   UNL d   1      21.170 -18.307  -0.735  0.00  0.00     0.077 A 
ATOM     17  C   UNL d   1      19.547 -19.781  -0.395  0.00  0.00     0.072 A 
ATOM     18  C   UNL d   1      18.216 -20.449  -0.480  0.00  0.00     0.079 C 
ATOM     19  N   UNL d   1      19.867 -18.677  -1.039  0.00  0.00    -0.245 NA
ATOM     20  C   UNL d   1      21.860 -17.176  -1.240  0.00  0.00     0.062 A 
ENDBRANCH   9  11
ENDBRANCH   5   7
BRANCH   1  21
ATOM     21  C   UNL d   1      28.420 -14.603  -3.509  0.00  0.00     0.274 C 
BRANCH  21  22
ATOM     22  C   UNL d   1      29.210 -14.391  -4.791  0.00  0.00    -0.030 C 
ATOM     23  C   UNL d   1      29.867 -15.252  -5.623  0.00  0.00     0.048 C 
ATOM     24  C   UNL d   1      30.354 -14.772  -6.893  0.00  0.00     0.102 C 
ATOM     25  C   UNL d   1      30.154 -13.445  -7.345  0.00  0.00     0.099 C 
ATOM     26  C   UNL d   1      29.722 -12.553  -6.452  0.00  0.00     0.040 C 
ATOM     27  C   UNL d   1      29.279 -13.117  -5.286  0.00  0.00     0.012 C 
BRANCH  24  28
ATOM     28  O   UNL d   1      31.053 -15.725  -7.566  0.00  0.00    -0.349 OA
BRANCH  28  29
ATOM     29  C   UNL d   1      30.877 -17.059  -7.119  0.00  0.00     0.171 C 
ATOM     30  C   UNL d   1      31.630 -17.940  -8.086  0.00  0.00     0.034 C 
ENDBRANCH  28  29
ENDBRANCH  24  28
BRANCH  25  31
ATOM     31  O   UNL d   1      30.258 -12.975  -8.618  0.00  0.00    -0.358 OA
ATOM     32  H   UNL d   1      30.048 -13.670  -9.268  0.00  0.00     0.217 HD
ENDBRANCH  25  31
ENDBRANCH  21  22
ENDBRANCH   1  21
BRANCH   3  33
ATOM     33  S   UNL d   1      25.738 -11.950  -5.202  0.00  0.00    -0.104 SA
BRANCH  33  34
ATOM     34  C   UNL d   1      26.752 -11.203  -3.925  0.00  0.00     0.093 A 
ATOM     35  C   UNL d   1      26.457 -11.594  -2.640  0.00  0.00     0.039 A 
ATOM     36  C   UNL d   1      27.443 -11.514  -1.674  0.00  0.00     0.004 A 
ATOM     37  C   UNL d   1      28.690 -11.001  -2.005  0.00  0.00     0.019 A 
ATOM     38  C   UNL d   1      28.883 -10.533  -3.294  0.00  0.00     0.118 A 
ATOM     39  N   UNL d   1      27.931 -10.618  -4.264  0.00  0.00    -0.254 NA
ENDBRANCH  33  34
ENDBRANCH   3  33
TORSDOF 9
ENDMDL
MODEL 7
REMARK VINA RESULT:   -29.193      3.654      9.017
REMARK INTER + INTRA:         -34.407
REMARK INTER:                 -31.877
REMARK INTRA:                  -2.529
REMARK CONF_INDEPENDENT:        2.685
REMARK UNBOUND:                -2.529
REMARK  9 active torsions:
REMARK  status: ('A' for Active; 'I' for Inactive)
REMARK    1  A    between atoms: C_2  and  O_3 
REMARK    2  A    between atoms: O_3  and  C_4 
REMARK    3  A    between atoms: C_6  and  C_7 
REMARK    4  A    between atoms: C_7  and  N_8 
REMARK    5  A    between atoms: C_10  and  S_11 
REMARK    6  A    between atoms: S_11  and  C_12 
REMARK    7  A    between atoms: C_19  and  C_20 
REMARK       I    between atoms: C_20  and  N_22 
REMARK    8  A    between atoms: N_22  and  C_23 
REMARK    9  A    between atoms: C_35  and  O_36 
ROOT
ATOM      1  N   UNL d   1      27.537 -14.653  -2.094  0.00  0.00    -0.053 N 
ATOM      2  C   UNL d   1      27.969 -15.226  -3.450  0.00  0.00     0.252 C 
ATOM      3  C   UNL d   1      26.925 -14.823  -4.502  0.00  0.00     0.082 C 
ATOM      4  C   UNL d   1      25.578 -14.806  -3.646  0.00  0.00     0.060 C 
ATOM      5  C   UNL d   1      25.955 -14.670  -2.110  0.00  0.00     0.281 C 
ATOM      6  H   UNL d   1      27.827 -15.345  -1.376  0.00  0.00     0.281 HD
ENDROOT
BRANCH   5   7
ATOM      7  C   UNL d   1      25.282 -15.732  -1.255  0.00  0.00     0.253 C 
ATOM      8  O   UNL d   1      25.870 -16.151  -0.281  0.00  0.00    -0.271 OA
ATOM      9  N   UNL d   1      24.010 -16.112  -1.723  0.00  0.00    -0.325 N 
ATOM     10  H   UNL d   1      23.656 -15.805  -2.624  0.00  0.00     0.169 HD
BRANCH   9  11
ATOM     11  C   UNL d   1      23.281 -17.148  -1.098  0.00  0.00     0.037 A 
ATOM     12  C   UNL d   1      23.948 -18.096  -0.331  0.00  0.00     0.031 A 
ATOM     13  C   UNL d   1      23.278 -19.181   0.230  0.00  0.00     0.023 A 
ATOM     14  C   UNL d   1      21.902 -19.299  -0.002  0.00  0.00     0.035 A 
ATOM     15  S   UNL d   1      20.828 -20.533   0.522  0.00  0.00    -0.073 SA
ATOM     16  C   UNL d   1      21.194 -18.350  -0.740  0.00  0.00     0.077 A 
ATOM     17  C   UNL d   1      19.532 -19.743  -0.273  0.00  0.00     0.072 A 
ATOM     18  C   UNL d   1      18.160 -20.325  -0.223  0.00  0.00     0.079 C 
ATOM     19  N   UNL d   1      19.843 -18.624  -0.895  0.00  0.00    -0.245 NA
ATOM     20  C   UNL d   1      21.890 -17.234  -1.270  0.00  0.00     0.062 A 
ENDBRANCH   9  11
ENDBRANCH   5   7
BRANCH   1  21
ATOM     21  C   UNL d   1      28.210 -13.255  -1.613  0.00  0.00     0.274 C 
BRANCH  21  22
ATOM     22  C   UNL d   1      27.567 -11.968  -2.106  0.00  0.00    -0.030 C 
ATOM     23  C   UNL d   1      26.628 -11.715  -3.065  0.00  0.00     0.048 C 
ATOM     24  C   UNL d   1      26.058 -10.393  -3.162  0.00  0.00     0.102 C 
ATOM     25  C   UNL d   1      26.399  -9.339  -2.281  0.00  0.00     0.099 C 
ATOM     26  C   UNL d   1      27.468  -9.513  -1.503  0.00  0.00     0.040 C 
ATOM     27  C   UNL d   1      27.924 -10.804  -1.481  0.00  0.00     0.012 C 
BRANCH  24  28
ATOM     28  O   UNL d   1      25.201 -10.282  -4.212  0.00  0.00    -0.349 OA
BRANCH  28  29
ATOM     29  C   UNL d   1      25.770  -9.857  -5.440  0.00  0.00     0.171 C 
ATOM     30  C   UNL d   1      24.714  -9.041  -6.144  0.00  0.00     0.034 C 
ENDBRANCH  28  29
ENDBRANCH  24  28
BRANCH  25  31
ATOM     31  O   UNL d   1      25.711  -8.186  -2.056  0.00  0.00    -0.358 OA
ATOM     32  H   UNL d   1      24.776  -8.280  -2.315  0.00  0.00     0.217 HD
ENDBRANCH  25  31
ENDBRANCH  21  22
ENDBRANCH   1  21
BRANCH   3  33
ATOM     33  S   UNL d   1      27.301 -13.322  -5.647  0.00  0.00    -0.104 SA
BRANCH  33  34
ATOM     34  C   UNL d   1      29.000 -13.412  -6.213  0.00  0.00     0.093 A 
ATOM     35  C   UNL d   1      29.933 -12.870  -5.359  0.00  0.00     0.039 A 
ATOM     36  C   UNL d   1      31.237 -13.323  -5.419  0.00  0.00     0.004 A 
ATOM     37  C   UNL d   1      31.592 -14.275  -6.365  0.00  0.00     0.019 A 
ATOM     38  C   UNL d   1      30.623 -14.702  -7.259  0.00  0.00     0.118 A 
ATOM     39  N   UNL d   1      29.329 -14.281  -7.206  0.00  0.00    -0.254 NA
ENDBRANCH  33  34
ENDBRANCH   3  33
TORSDOF 9
ENDMDL
