MODEL 1
REMARK VINA RESULT:    -9.243      0.000      0.000
REMARK INTER + INTRA:         -12.893
REMARK INTER:                 -11.033
REMARK INTRA:                  -1.860
REMARK CONF_INDEPENDENT:        1.790
REMARK UNBOUND:                -1.860
REMARK  6 active torsions:
REMARK  status: ('A' for Active; 'I' for Inactive)
REMARK    1  A    between atoms: C_4  and  S_5 
REMARK    2  A    between atoms: S_5  and  C_6 
REMARK    3  A    between atoms: C_6  and  C_7 
REMARK       I    between atoms: C_7  and  N_9 
REMARK    4  A    between atoms: N_9  and  C_10 
REMARK    5  A    between atoms: C_22  and  N_23 
REMARK       I    between atoms: N_23  and  C_24 
REMARK    6  A    between atoms: C_24  and  C_26 
ROOT
ATOM      1  N   UNL d   1      22.118 -15.712  -1.165  0.00  0.00    -0.382 N 
ATOM      2  C   UNL d   1      23.317 -16.349  -1.116  0.00  0.00     0.156 A 
ATOM      3  N   UNL d   1      24.295 -15.582  -1.691  0.00  0.00    -0.205 NA
ATOM      4  C   UNL d   1      25.515 -15.938  -1.582  0.00  0.00     0.171 A 
ATOM      5  N   UNL d   1      25.902 -17.081  -0.954  0.00  0.00    -0.300 N 
ATOM      6  C   UNL d   1      24.988 -17.937  -0.382  0.00  0.00     0.278 A 
ATOM      7  O   UNL d   1      25.337 -18.950   0.226  0.00  0.00    -0.265 OA
ATOM      8  C   UNL d   1      23.522 -17.556  -0.511  0.00  0.00     0.149 A 
ATOM      9  H   UNL d   1      22.014 -15.009  -1.878  0.00  0.00     0.157 HD
ATOM     10  H   UNL d   1      21.285 -16.255  -0.953  0.00  0.00     0.157 HD
ATOM     11  H   UNL d   1      26.886 -17.301  -0.886  0.00  0.00     0.171 HD
ENDROOT
BRANCH   4  12
ATOM     12  S   UNL d   1      26.787 -14.959  -2.243  0.00  0.00    -0.083 SA
BRANCH  12  13
ATOM     13  C   UNL d   1      26.200 -14.510  -3.974  0.00  0.00     0.185 C 
BRANCH  13  14
ATOM     14  C   UNL d   1      27.189 -15.112  -5.013  0.00  0.00     0.231 C 
ATOM     15  O   UNL d   1      26.784 -15.574  -6.082  0.00  0.00    -0.272 OA
ATOM     16  N   UNL d   1      28.552 -15.150  -4.669  0.00  0.00    -0.326 N 
ATOM     17  H   UNL d   1      28.835 -15.008  -3.707  0.00  0.00     0.169 HD
BRANCH  16  18
ATOM     18  C   UNL d   1      29.534 -15.687  -5.567  0.00  0.00     0.037 A 
ATOM     19  C   UNL d   1      30.180 -14.840  -6.495  0.00  0.00     0.032 A 
ATOM     20  C   UNL d   1      31.138 -15.320  -7.396  0.00  0.00     0.042 A 
ATOM     21  C   UNL d   1      31.420 -16.664  -7.374  0.00  0.00     0.105 A 
ATOM     22  C   UNL d   1      30.803 -17.510  -6.481  0.00  0.00     0.107 A 
ATOM     23  O   UNL d   1      32.299 -17.301  -8.193  0.00  0.00    -0.323 OA
ATOM     24  C   UNL d   1      29.880 -17.050  -5.544  0.00  0.00     0.069 A 
ATOM     25  O   UNL d   1      31.205 -18.803  -6.659  0.00  0.00    -0.323 OA
ATOM     26  C   UNL d   1      32.089 -18.670  -7.798  0.00  0.00     0.352 A 
ENDBRANCH  16  18
ENDBRANCH  13  14
ENDBRANCH  12  13
ENDBRANCH   4  12
BRANCH   8  27
ATOM     27  N   UNL d   1      22.545 -18.432   0.046  0.00  0.00    -0.315 N 
ATOM     28  C   UNL d   1      21.208 -18.579  -0.340  0.00  0.00     0.263 C 
ATOM     29  O   UNL d   1      20.686 -17.929  -1.260  0.00  0.00    -0.267 OA
ATOM     30  H   UNL d   1      22.901 -19.081   0.749  0.00  0.00     0.169 HD
BRANCH  28  31
ATOM     31  C   UNL d   1      20.339 -19.512   0.336  0.00  0.00     0.072 A 
ATOM     32  C   UNL d   1      20.280 -19.896   1.657  0.00  0.00     0.025 A 
ATOM     33  C   UNL d   1      19.107 -20.668   1.934  0.00  0.00     0.009 A 
ATOM     34  C   UNL d   1      18.305 -20.837   0.827  0.00  0.00     0.050 A 
ATOM     35  S   UNL d   1      18.956 -20.069  -0.543  0.00  0.00    -0.097 SA
ENDBRANCH  28  31
ENDBRANCH   8  27
TORSDOF 6
ENDMDL
MODEL 2
REMARK VINA RESULT:    -8.524      3.742      5.733
REMARK INTER + INTRA:         -12.101
REMARK INTER:                 -10.313
REMARK INTRA:                  -1.788
REMARK CONF_INDEPENDENT:        1.790
REMARK UNBOUND:                -1.788
REMARK  6 active torsions:
REMARK  status: ('A' for Active; 'I' for Inactive)
REMARK    1  A    between atoms: C_4  and  S_5 
REMARK    2  A    between atoms: S_5  and  C_6 
REMARK    3  A    between atoms: C_6  and  C_7 
REMARK       I    between atoms: C_7  and  N_9 
REMARK    4  A    between atoms: N_9  and  C_10 
REMARK    5  A    between atoms: C_22  and  N_23 
REMARK       I    between atoms: N_23  and  C_24 
REMARK    6  A    between atoms: C_24  and  C_26 
ROOT
ATOM      1  N   UNL d   1      22.214 -15.812  -1.268  0.00  0.00    -0.382 N 
ATOM      2  C   UNL d   1      23.406 -16.453  -1.155  0.00  0.00     0.156 A 
ATOM      3  N   UNL d   1      24.396 -15.745  -1.783  0.00  0.00    -0.205 NA
ATOM      4  C   UNL d   1      25.612 -16.102  -1.633  0.00  0.00     0.171 A 
ATOM      5  N   UNL d   1      25.982 -17.192  -0.908  0.00  0.00    -0.300 N 
ATOM      6  C   UNL d   1      25.055 -17.988  -0.274  0.00  0.00     0.278 A 
ATOM      7  O   UNL d   1      25.388 -18.950   0.419  0.00  0.00    -0.265 OA
ATOM      8  C   UNL d   1      23.594 -17.607  -0.449  0.00  0.00     0.149 A 
ATOM      9  H   UNL d   1      22.123 -15.169  -2.039  0.00  0.00     0.157 HD
ATOM     10  H   UNL d   1      21.373 -16.327  -1.020  0.00  0.00     0.157 HD
ATOM     11  H   UNL d   1      26.963 -17.414  -0.812  0.00  0.00     0.171 HD
ENDROOT
BRANCH   4  12
ATOM     12  S   UNL d   1      26.899 -15.193  -2.361  0.00  0.00    -0.083 SA
BRANCH  12  13
ATOM     13  C   UNL d   1      26.358 -14.934  -4.145  0.00  0.00     0.185 C 
BRANCH  13  14
ATOM     14  C   UNL d   1      25.739 -13.513  -4.282  0.00  0.00     0.231 C 
ATOM     15  O   UNL d   1      24.575 -13.292  -3.941  0.00  0.00    -0.272 OA
ATOM     16  N   UNL d   1      26.540 -12.505  -4.848  0.00  0.00    -0.326 N 
ATOM     17  H   UNL d   1      27.385 -12.753  -5.349  0.00  0.00     0.169 HD
BRANCH  16  18
ATOM     18  C   UNL d   1      26.051 -11.167  -5.011  0.00  0.00     0.037 A 
ATOM     19  C   UNL d   1      25.796 -10.662  -6.306  0.00  0.00     0.032 A 
ATOM     20  C   UNL d   1      25.326  -9.359  -6.515  0.00  0.00     0.042 A 
ATOM     21  C   UNL d   1      25.141  -8.562  -5.412  0.00  0.00     0.105 A 
ATOM     22  C   UNL d   1      25.383  -9.030  -4.142  0.00  0.00     0.107 A 
ATOM     23  O   UNL d   1      24.718  -7.269  -5.434  0.00  0.00    -0.323 OA
ATOM     24  C   UNL d   1      25.808 -10.335  -3.902  0.00  0.00     0.069 A 
ATOM     25  O   UNL d   1      25.168  -8.060  -3.203  0.00  0.00    -0.323 OA
ATOM     26  C   UNL d   1      24.827  -6.928  -4.039  0.00  0.00     0.352 A 
ENDBRANCH  16  18
ENDBRANCH  13  14
ENDBRANCH  12  13
ENDBRANCH   4  12
BRANCH   8  27
ATOM     27  N   UNL d   1      22.603 -18.424   0.170  0.00  0.00    -0.315 N 
ATOM     28  C   UNL d   1      21.278 -18.616  -0.234  0.00  0.00     0.263 C 
ATOM     29  O   UNL d   1      20.780 -18.067  -1.231  0.00  0.00    -0.267 OA
ATOM     30  H   UNL d   1      22.941 -18.995   0.945  0.00  0.00     0.169 HD
BRANCH  28  31
ATOM     31  C   UNL d   1      20.392 -19.478   0.512  0.00  0.00     0.072 A 
ATOM     32  C   UNL d   1      20.280 -19.702   1.866  0.00  0.00     0.025 A 
ATOM     33  C   UNL d   1      19.106 -20.457   2.184  0.00  0.00     0.009 A 
ATOM     34  C   UNL d   1      18.357 -20.772   1.073  0.00  0.00     0.050 A 
ATOM     35  S   UNL d   1      19.057 -20.162  -0.351  0.00  0.00    -0.097 SA
ENDBRANCH  28  31
ENDBRANCH   8  27
TORSDOF 6
ENDMDL
MODEL 3
REMARK VINA RESULT:    -8.366      4.319      7.053
REMARK INTER + INTRA:         -12.266
REMARK INTER:                 -10.156
REMARK INTRA:                  -2.110
REMARK CONF_INDEPENDENT:        1.790
REMARK UNBOUND:                -2.110
REMARK  6 active torsions:
REMARK  status: ('A' for Active; 'I' for Inactive)
REMARK    1  A    between atoms: C_4  and  S_5 
REMARK    2  A    between atoms: S_5  and  C_6 
REMARK    3  A    between atoms: C_6  and  C_7 
REMARK       I    between atoms: C_7  and  N_9 
REMARK    4  A    between atoms: N_9  and  C_10 
REMARK    5  A    between atoms: C_22  and  N_23 
REMARK       I    between atoms: N_23  and  C_24 
REMARK    6  A    between atoms: C_24  and  C_26 
ROOT
ATOM      1  N   UNL d   1      22.155 -15.730  -1.219  0.00  0.00    -0.382 N 
ATOM      2  C   UNL d   1      23.352 -16.370  -1.159  0.00  0.00     0.156 A 
ATOM      3  N   UNL d   1      24.332 -15.619  -1.752  0.00  0.00    -0.205 NA
ATOM      4  C   UNL d   1      25.550 -15.978  -1.638  0.00  0.00     0.171 A 
ATOM      5  N   UNL d   1      25.934 -17.109  -0.986  0.00  0.00    -0.300 N 
ATOM      6  C   UNL d   1      25.018 -17.948  -0.394  0.00  0.00     0.278 A 
ATOM      7  O   UNL d   1      25.363 -18.949   0.235  0.00  0.00    -0.265 OA
ATOM      8  C   UNL d   1      23.553 -17.565  -0.528  0.00  0.00     0.149 A 
ATOM      9  H   UNL d   1      22.053 -15.041  -1.947  0.00  0.00     0.157 HD
ATOM     10  H   UNL d   1      21.320 -16.264  -0.995  0.00  0.00     0.157 HD
ATOM     11  H   UNL d   1      26.917 -17.331  -0.914  0.00  0.00     0.171 HD
ENDROOT
BRANCH   4  12
ATOM     12  S   UNL d   1      26.825 -15.018  -2.321  0.00  0.00    -0.083 SA
BRANCH  12  13
ATOM     13  C   UNL d   1      28.339 -15.410  -1.273  0.00  0.00     0.185 C 
BRANCH  13  14
ATOM     14  C   UNL d   1      28.014 -15.099   0.216  0.00  0.00     0.231 C 
ATOM     15  O   UNL d   1      27.074 -15.655   0.790  0.00  0.00    -0.272 OA
ATOM     16  N   UNL d   1      28.802 -14.134   0.867  0.00  0.00    -0.326 N 
ATOM     17  H   UNL d   1      29.390 -13.513   0.325  0.00  0.00     0.169 HD
BRANCH  16  18
ATOM     18  C   UNL d   1      28.573 -13.786   2.240  0.00  0.00     0.037 A 
ATOM     19  C   UNL d   1      27.656 -12.761   2.565  0.00  0.00     0.032 A 
ATOM     20  C   UNL d   1      27.406 -12.382   3.889  0.00  0.00     0.042 A 
ATOM     21  C   UNL d   1      28.107 -13.023   4.881  0.00  0.00     0.105 A 
ATOM     22  C   UNL d   1      29.005 -14.023   4.591  0.00  0.00     0.107 A 
ATOM     23  O   UNL d   1      28.009 -12.762   6.213  0.00  0.00    -0.323 OA
ATOM     24  C   UNL d   1      29.240 -14.451   3.286  0.00  0.00     0.069 A 
ATOM     25  O   UNL d   1      29.612 -14.493   5.721  0.00  0.00    -0.323 OA
ATOM     26  C   UNL d   1      29.033 -13.633   6.731  0.00  0.00     0.352 A 
ENDBRANCH  16  18
ENDBRANCH  13  14
ENDBRANCH  12  13
ENDBRANCH   4  12
BRANCH   8  27
ATOM     27  N   UNL d   1      22.573 -18.425   0.049  0.00  0.00    -0.315 N 
ATOM     28  C   UNL d   1      21.236 -18.575  -0.333  0.00  0.00     0.263 C 
ATOM     29  O   UNL d   1      20.715 -17.944  -1.267  0.00  0.00    -0.267 OA
ATOM     30  H   UNL d   1      22.928 -19.060   0.765  0.00  0.00     0.169 HD
BRANCH  28  31
ATOM     31  C   UNL d   1      20.364 -19.491   0.365  0.00  0.00     0.072 A 
ATOM     32  C   UNL d   1      20.280 -19.816   1.700  0.00  0.00     0.025 A 
ATOM     33  C   UNL d   1      19.111 -20.592   1.985  0.00  0.00     0.009 A 
ATOM     34  C   UNL d   1      18.338 -20.822   0.869  0.00  0.00     0.050 A 
ATOM     35  S   UNL d   1      19.009 -20.106  -0.519  0.00  0.00    -0.097 SA
ENDBRANCH  28  31
ENDBRANCH   8  27
TORSDOF 6
ENDMDL
MODEL 4
REMARK VINA RESULT:    -8.220      5.597      9.416
REMARK INTER + INTRA:         -12.527
REMARK INTER:                 -10.010
REMARK INTRA:                  -2.518
REMARK CONF_INDEPENDENT:        1.790
REMARK UNBOUND:                -2.518
REMARK  6 active torsions:
REMARK  status: ('A' for Active; 'I' for Inactive)
REMARK    1  A    between atoms: C_4  and  S_5 
REMARK    2  A    between atoms: S_5  and  C_6 
REMARK    3  A    between atoms: C_6  and  C_7 
REMARK       I    between atoms: C_7  and  N_9 
REMARK    4  A    between atoms: N_9  and  C_10 
REMARK    5  A    between atoms: C_22  and  N_23 
REMARK       I    between atoms: N_23  and  C_24 
REMARK    6  A    between atoms: C_24  and  C_26 
ROOT
ATOM      1  N   UNL d   1      27.937 -15.200   2.341  0.00  0.00    -0.382 N 
ATOM      2  C   UNL d   1      27.755 -13.939   1.868  0.00  0.00     0.156 A 
ATOM      3  N   UNL d   1      27.423 -13.966   0.539  0.00  0.00    -0.205 NA
ATOM      4  C   UNL d   1      27.045 -12.890  -0.032  0.00  0.00     0.171 A 
ATOM      5  N   UNL d   1      26.993 -11.689   0.604  0.00  0.00    -0.300 N 
ATOM      6  C   UNL d   1      27.346 -11.556   1.927  0.00  0.00     0.278 A 
ATOM      7  O   UNL d   1      27.259 -10.479   2.519  0.00  0.00    -0.265 OA
ATOM      8  C   UNL d   1      27.824 -12.813   2.637  0.00  0.00     0.149 A 
ATOM      9  H   UNL d   1      28.166 -15.905   1.659  0.00  0.00     0.157 HD
ATOM     10  H   UNL d   1      28.376 -15.305   3.252  0.00  0.00     0.157 HD
ATOM     11  H   UNL d   1      26.667 -10.875   0.101  0.00  0.00     0.171 HD
ENDROOT
BRANCH   4  12
ATOM     12  S   UNL d   1      26.557 -12.896  -1.698  0.00  0.00    -0.083 SA
BRANCH  12  13
ATOM     13  C   UNL d   1      27.172 -14.541  -2.375  0.00  0.00     0.185 C 
BRANCH  13  14
ATOM     14  C   UNL d   1      26.026 -15.589  -2.271  0.00  0.00     0.231 C 
ATOM     15  O   UNL d   1      25.512 -16.070  -3.283  0.00  0.00    -0.272 OA
ATOM     16  N   UNL d   1      25.571 -15.931  -0.986  0.00  0.00    -0.326 N 
ATOM     17  H   UNL d   1      25.818 -15.353  -0.192  0.00  0.00     0.169 HD
BRANCH  16  18
ATOM     18  C   UNL d   1      24.520 -16.888  -0.796  0.00  0.00     0.037 A 
ATOM     19  C   UNL d   1      24.824 -18.190  -0.337  0.00  0.00     0.032 A 
ATOM     20  C   UNL d   1      23.833 -19.160  -0.145  0.00  0.00     0.042 A 
ATOM     21  C   UNL d   1      22.537 -18.817  -0.445  0.00  0.00     0.105 A 
ATOM     22  C   UNL d   1      22.215 -17.558  -0.895  0.00  0.00     0.107 A 
ATOM     23  O   UNL d   1      21.459 -19.641  -0.345  0.00  0.00    -0.323 OA
ATOM     24  C   UNL d   1      23.175 -16.561  -1.052  0.00  0.00     0.069 A 
ATOM     25  O   UNL d   1      20.880 -17.450  -1.165  0.00  0.00    -0.323 OA
ATOM     26  C   UNL d   1      20.426 -18.797  -0.891  0.00  0.00     0.352 A 
ENDBRANCH  16  18
ENDBRANCH  13  14
ENDBRANCH  12  13
ENDBRANCH   4  12
BRANCH   8  27
ATOM     27  N   UNL d   1      28.224 -12.708   4.001  0.00  0.00    -0.315 N 
ATOM     28  C   UNL d   1      27.921 -13.583   5.050  0.00  0.00     0.263 C 
ATOM     29  O   UNL d   1      27.231 -14.606   4.912  0.00  0.00    -0.267 OA
ATOM     30  H   UNL d   1      28.877 -11.950   4.200  0.00  0.00     0.169 HD
BRANCH  28  31
ATOM     31  C   UNL d   1      28.400 -13.329   6.388  0.00  0.00     0.072 A 
ATOM     32  C   UNL d   1      29.185 -14.091   7.226  0.00  0.00     0.025 A 
ATOM     33  C   UNL d   1      29.614 -13.348   8.372  0.00  0.00     0.009 A 
ATOM     34  C   UNL d   1      29.159 -12.049   8.367  0.00  0.00     0.050 A 
ATOM     35  S   UNL d   1      28.220 -11.716   6.990  0.00  0.00    -0.097 SA
ENDBRANCH  28  31
ENDBRANCH   8  27
TORSDOF 6
ENDMDL
MODEL 5
REMARK VINA RESULT:    -7.875      7.248     10.352
REMARK INTER + INTRA:         -11.920
REMARK INTER:                  -9.664
REMARK INTRA:                  -2.256
REMARK CONF_INDEPENDENT:        1.790
REMARK UNBOUND:                -2.256
REMARK  6 active torsions:
REMARK  status: ('A' for Active; 'I' for Inactive)
REMARK    1  A    between atoms: C_4  and  S_5 
REMARK    2  A    between atoms: S_5  and  C_6 
REMARK    3  A    between atoms: C_6  and  C_7 
REMARK       I    between atoms: C_7  and  N_9 
REMARK    4  A    between atoms: N_9  and  C_10 
REMARK    5  A    between atoms: C_22  and  N_23 
REMARK       I    between atoms: N_23  and  C_24 
REMARK    6  A    between atoms: C_24  and  C_26 
ROOT
ATOM      1  N   UNL d   1      27.987 -10.953   5.636  0.00  0.00    -0.382 N 
ATOM      2  C   UNL d   1      27.829 -12.153   5.019  0.00  0.00     0.156 A 
ATOM      3  N   UNL d   1      27.374 -11.981   3.739  0.00  0.00    -0.205 NA
ATOM      4  C   UNL d   1      27.333 -12.983   2.950  0.00  0.00     0.171 A 
ATOM      5  N   UNL d   1      27.682 -14.242   3.329  0.00  0.00    -0.300 N 
ATOM      6  C   UNL d   1      28.113 -14.520   4.606  0.00  0.00     0.278 A 
ATOM      7  O   UNL d   1      28.471 -15.649   4.941  0.00  0.00    -0.265 OA
ATOM      8  C   UNL d   1      28.153 -13.354   5.582  0.00  0.00     0.149 A 
ATOM      9  H   UNL d   1      27.446 -10.187   5.269  0.00  0.00     0.157 HD
ATOM     10  H   UNL d   1      28.127 -10.953   6.643  0.00  0.00     0.157 HD
ATOM     11  H   UNL d   1      27.645 -14.992   2.652  0.00  0.00     0.171 HD
ENDROOT
BRANCH   4  12
ATOM     12  S   UNL d   1      26.822 -12.793   1.302  0.00  0.00    -0.083 SA
BRANCH  12  13
ATOM     13  C   UNL d   1      27.662 -14.197   0.372  0.00  0.00     0.185 C 
BRANCH  13  14
ATOM     14  C   UNL d   1      26.740 -15.450   0.411  0.00  0.00     0.231 C 
ATOM     15  O   UNL d   1      27.059 -16.453   1.053  0.00  0.00    -0.272 OA
ATOM     16  N   UNL d   1      25.555 -15.411  -0.345  0.00  0.00    -0.326 N 
ATOM     17  H   UNL d   1      25.432 -14.700  -1.055  0.00  0.00     0.169 HD
BRANCH  16  18
ATOM     18  C   UNL d   1      24.646 -16.521  -0.365  0.00  0.00     0.037 A 
ATOM     19  C   UNL d   1      25.128 -17.831  -0.145  0.00  0.00     0.032 A 
ATOM     20  C   UNL d   1      24.280 -18.945  -0.164  0.00  0.00     0.042 A 
ATOM     21  C   UNL d   1      22.950 -18.733  -0.433  0.00  0.00     0.105 A 
ATOM     22  C   UNL d   1      22.458 -17.467  -0.652  0.00  0.00     0.107 A 
ATOM     23  O   UNL d   1      21.997 -19.699  -0.517  0.00  0.00    -0.323 OA
ATOM     24  C   UNL d   1      23.270 -16.337  -0.595  0.00  0.00     0.069 A 
ATOM     25  O   UNL d   1      21.122 -17.494  -0.937  0.00  0.00    -0.323 OA
ATOM     26  C   UNL d   1      20.859 -18.918  -0.928  0.00  0.00     0.352 A 
ENDBRANCH  16  18
ENDBRANCH  13  14
ENDBRANCH  12  13
ENDBRANCH   4  12
BRANCH   8  27
ATOM     27  N   UNL d   1      28.568 -13.609   6.922  0.00  0.00    -0.315 N 
ATOM     28  C   UNL d   1      28.370 -12.801   8.047  0.00  0.00     0.263 C 
ATOM     29  O   UNL d   1      27.780 -11.709   8.010  0.00  0.00    -0.267 OA
ATOM     30  H   UNL d   1      28.979 -14.530   7.076  0.00  0.00     0.169 HD
BRANCH  28  31
ATOM     31  C   UNL d   1      28.863 -13.201   9.343  0.00  0.00     0.072 A 
ATOM     32  C   UNL d   1      28.966 -12.502  10.526  0.00  0.00     0.025 A 
ATOM     33  C   UNL d   1      29.289 -13.361  11.624  0.00  0.00     0.009 A 
ATOM     34  C   UNL d   1      29.408 -14.682  11.252  0.00  0.00     0.050 A 
ATOM     35  S   UNL d   1      29.132 -14.894   9.588  0.00  0.00    -0.097 SA
ENDBRANCH  28  31
ENDBRANCH   8  27
TORSDOF 6
ENDMDL
MODEL 6
REMARK VINA RESULT:    -7.540      4.212      9.533
REMARK INTER + INTRA:         -11.540
REMARK INTER:                  -9.330
REMARK INTRA:                  -2.210
REMARK CONF_INDEPENDENT:        1.790
REMARK UNBOUND:                -2.210
REMARK  6 active torsions:
REMARK  status: ('A' for Active; 'I' for Inactive)
REMARK    1  A    between atoms: C_4  and  S_5 
REMARK    2  A    between atoms: S_5  and  C_6 
REMARK    3  A    between atoms: C_6  and  C_7 
REMARK       I    between atoms: C_7  and  N_9 
REMARK    4  A    between atoms: N_9  and  C_10 
REMARK    5  A    between atoms: C_22  and  N_23 
REMARK       I    between atoms: N_23  and  C_24 
REMARK    6  A    between atoms: C_24  and  C_26 
ROOT
ATOM      1  N   UNL d   1      27.752 -11.888  -1.610  0.00  0.00    -0.382 N 
ATOM      2  C   UNL d   1      27.434 -12.951  -2.394  0.00  0.00     0.156 A 
ATOM      3  N   UNL d   1      28.133 -14.063  -2.007  0.00  0.00    -0.205 NA
ATOM      4  C   UNL d   1      27.836 -15.196  -2.513  0.00  0.00     0.171 A 
ATOM      5  N   UNL d   1      26.877 -15.357  -3.464  0.00  0.00    -0.300 N 
ATOM      6  C   UNL d   1      26.150 -14.292  -3.945  0.00  0.00     0.278 A 
ATOM      7  O   UNL d   1      25.252 -14.439  -4.774  0.00  0.00    -0.265 OA
ATOM      8  C   UNL d   1      26.491 -12.921  -3.382  0.00  0.00     0.149 A 
ATOM      9  H   UNL d   1      28.644 -11.928  -1.144  0.00  0.00     0.157 HD
ATOM     10  H   UNL d   1      27.454 -10.966  -1.918  0.00  0.00     0.157 HD
ATOM     11  H   UNL d   1      26.676 -16.283  -3.814  0.00  0.00     0.171 HD
ENDROOT
BRANCH   4  12
ATOM     12  S   UNL d   1      28.657 -16.637  -2.001  0.00  0.00    -0.083 SA
BRANCH  12  13
ATOM     13  C   UNL d   1      28.291 -16.773  -0.160  0.00  0.00     0.185 C 
BRANCH  13  14
ATOM     14  C   UNL d   1      26.808 -17.205   0.029  0.00  0.00     0.231 C 
ATOM     15  O   UNL d   1      26.469 -17.910   0.982  0.00  0.00    -0.272 OA
ATOM     16  N   UNL d   1      25.882 -16.799  -0.949  0.00  0.00    -0.326 N 
ATOM     17  H   UNL d   1      26.210 -16.447  -1.840  0.00  0.00     0.169 HD
BRANCH  16  18
ATOM     18  C   UNL d   1      24.495 -17.151  -0.854  0.00  0.00     0.037 A 
ATOM     19  C   UNL d   1      23.503 -16.154  -0.989  0.00  0.00     0.032 A 
ATOM     20  C   UNL d   1      22.137 -16.449  -0.896  0.00  0.00     0.042 A 
ATOM     21  C   UNL d   1      21.780 -17.750  -0.640  0.00  0.00     0.105 A 
ATOM     22  C   UNL d   1      22.727 -18.739  -0.504  0.00  0.00     0.107 A 
ATOM     23  O   UNL d   1      20.507 -18.205  -0.491  0.00  0.00    -0.323 OA
ATOM     24  C   UNL d   1      24.090 -18.481  -0.636  0.00  0.00     0.069 A 
ATOM     25  O   UNL d   1      22.152 -19.944  -0.217  0.00  0.00    -0.323 OA
ATOM     26  C   UNL d   1      20.754 -19.578  -0.132  0.00  0.00     0.352 A 
ENDBRANCH  16  18
ENDBRANCH  13  14
ENDBRANCH  12  13
ENDBRANCH   4  12
BRANCH   8  27
ATOM     27  N   UNL d   1      25.777 -11.791  -3.876  0.00  0.00    -0.315 N 
ATOM     28  C   UNL d   1      26.217 -10.464  -3.943  0.00  0.00     0.263 C 
ATOM     29  O   UNL d   1      27.338 -10.094  -3.557  0.00  0.00    -0.267 OA
ATOM     30  H   UNL d   1      24.878 -12.006  -4.307  0.00  0.00     0.169 HD
BRANCH  28  31
ATOM     31  C   UNL d   1      25.363  -9.426  -4.468  0.00  0.00     0.072 A 
ATOM     32  C   UNL d   1      25.014  -8.197  -3.954  0.00  0.00     0.025 A 
ATOM     33  C   UNL d   1      24.334  -7.390  -4.920  0.00  0.00     0.009 A 
ATOM     34  C   UNL d   1      24.198  -8.017  -6.138  0.00  0.00     0.050 A 
ATOM     35  S   UNL d   1      24.885  -9.571  -6.126  0.00  0.00    -0.097 SA
ENDBRANCH  28  31
ENDBRANCH   8  27
TORSDOF 6
ENDMDL
MODEL 7
REMARK VINA RESULT:    -7.186      2.633      4.083
REMARK INTER + INTRA:         -11.582
REMARK INTER:                  -8.976
REMARK INTRA:                  -2.606
REMARK CONF_INDEPENDENT:        1.790
REMARK UNBOUND:                -2.606
REMARK  6 active torsions:
REMARK  status: ('A' for Active; 'I' for Inactive)
REMARK    1  A    between atoms: C_4  and  S_5 
REMARK    2  A    between atoms: S_5  and  C_6 
REMARK    3  A    between atoms: C_6  and  C_7 
REMARK       I    between atoms: C_7  and  N_9 
REMARK    4  A    between atoms: N_9  and  C_10 
REMARK    5  A    between atoms: C_22  and  N_23 
REMARK       I    between atoms: N_23  and  C_24 
REMARK    6  A    between atoms: C_24  and  C_26 
ROOT
ATOM      1  N   UNL d   1      27.679 -15.026  -0.983  0.00  0.00    -0.382 N 
ATOM      2  C   UNL d   1      27.261 -14.661  -2.224  0.00  0.00     0.156 A 
ATOM      3  N   UNL d   1      28.134 -13.767  -2.784  0.00  0.00    -0.205 NA
ATOM      4  C   UNL d   1      28.000 -13.447  -4.011  0.00  0.00     0.171 A 
ATOM      5  N   UNL d   1      26.994 -13.918  -4.797  0.00  0.00    -0.300 N 
ATOM      6  C   UNL d   1      26.044 -14.788  -4.311  0.00  0.00     0.278 A 
ATOM      7  O   UNL d   1      25.157 -15.250  -5.029  0.00  0.00    -0.265 OA
ATOM      8  C   UNL d   1      26.159 -15.175  -2.845  0.00  0.00     0.149 A 
ATOM      9  H   UNL d   1      28.295 -14.384  -0.513  0.00  0.00     0.157 HD
ATOM     10  H   UNL d   1      27.022 -15.525  -0.390  0.00  0.00     0.157 HD
ATOM     11  H   UNL d   1      26.950 -13.640  -5.767  0.00  0.00     0.171 HD
ENDROOT
BRANCH   4  12
ATOM     12  S   UNL d   1      29.125 -12.367  -4.774  0.00  0.00    -0.083 SA
BRANCH  12  13
ATOM     13  C   UNL d   1      29.309 -13.023  -6.529  0.00  0.00     0.185 C 
BRANCH  13  14
ATOM     14  C   UNL d   1      29.278 -14.577  -6.491  0.00  0.00     0.231 C 
ATOM     15  O   UNL d   1      28.232 -15.197  -6.696  0.00  0.00    -0.272 OA
ATOM     16  N   UNL d   1      30.474 -15.245  -6.173  0.00  0.00    -0.326 N 
ATOM     17  H   UNL d   1      31.246 -14.732  -5.764  0.00  0.00     0.169 HD
BRANCH  16  18
ATOM     18  C   UNL d   1      30.537 -16.677  -6.117  0.00  0.00     0.037 A 
ATOM     19  C   UNL d   1      30.345 -17.344  -4.886  0.00  0.00     0.032 A 
ATOM     20  C   UNL d   1      30.405 -18.739  -4.780  0.00  0.00     0.042 A 
ATOM     21  C   UNL d   1      30.687 -19.455  -5.918  0.00  0.00     0.105 A 
ATOM     22  C   UNL d   1      30.879 -18.829  -7.128  0.00  0.00     0.107 A 
ATOM     23  O   UNL d   1      30.810 -20.807  -5.990  0.00  0.00    -0.323 OA
ATOM     24  C   UNL d   1      30.780 -17.446  -7.269  0.00  0.00     0.069 A 
ATOM     25  O   UNL d   1      31.182 -19.727  -8.112  0.00  0.00    -0.323 OA
ATOM     26  C   UNL d   1      31.215 -20.966  -7.364  0.00  0.00     0.352 A 
ENDBRANCH  16  18
ENDBRANCH  13  14
ENDBRANCH  12  13
ENDBRANCH   4  12
BRANCH   8  27
ATOM     27  N   UNL d   1      25.177 -16.054  -2.300  0.00  0.00    -0.315 N 
ATOM     28  C   UNL d   1      24.794 -16.181  -0.960  0.00  0.00     0.263 C 
ATOM     29  O   UNL d   1      25.290 -15.513  -0.039  0.00  0.00    -0.267 OA
ATOM     30  H   UNL d   1      24.641 -16.580  -2.990  0.00  0.00     0.169 HD
BRANCH  28  31
ATOM     31  C   UNL d   1      23.781 -17.131  -0.566  0.00  0.00     0.072 A 
ATOM     32  C   UNL d   1      22.408 -17.023  -0.525  0.00  0.00     0.025 A 
ATOM     33  C   UNL d   1      21.782 -18.289  -0.300  0.00  0.00     0.009 A 
ATOM     34  C   UNL d   1      22.687 -19.321  -0.191  0.00  0.00     0.050 A 
ATOM     35  S   UNL d   1      24.287 -18.774  -0.360  0.00  0.00    -0.097 SA
ENDBRANCH  28  31
ENDBRANCH   8  27
TORSDOF 6
ENDMDL
MODEL 8
REMARK VINA RESULT:    -7.122      4.332      8.282
REMARK INTER + INTRA:         -11.824
REMARK INTER:                  -8.912
REMARK INTRA:                  -2.912
REMARK CONF_INDEPENDENT:        1.790
REMARK UNBOUND:                -2.912
REMARK  6 active torsions:
REMARK  status: ('A' for Active; 'I' for Inactive)
REMARK    1  A    between atoms: C_4  and  S_5 
REMARK    2  A    between atoms: S_5  and  C_6 
REMARK    3  A    between atoms: C_6  and  C_7 
REMARK       I    between atoms: C_7  and  N_9 
REMARK    4  A    between atoms: N_9  and  C_10 
REMARK    5  A    between atoms: C_22  and  N_23 
REMARK       I    between atoms: N_23  and  C_24 
REMARK    6  A    between atoms: C_24  and  C_26 
ROOT
ATOM      1  N   UNL d   1      28.910 -12.343  -0.245  0.00  0.00    -0.382 N 
ATOM      2  C   UNL d   1      29.015 -13.586  -0.783  0.00  0.00     0.156 A 
ATOM      3  N   UNL d   1      28.869 -13.538  -2.144  0.00  0.00    -0.205 NA
ATOM      4  C   UNL d   1      29.111 -14.581  -2.837  0.00  0.00     0.171 A 
ATOM      5  N   UNL d   1      29.470 -15.772  -2.286  0.00  0.00    -0.300 N 
ATOM      6  C   UNL d   1      29.602 -15.929  -0.925  0.00  0.00     0.278 A 
ATOM      7  O   UNL d   1      29.969 -16.993  -0.424  0.00  0.00    -0.265 OA
ATOM      8  C   UNL d   1      29.300 -14.712  -0.065  0.00  0.00     0.149 A 
ATOM      9  H   UNL d   1      28.407 -11.661  -0.791  0.00  0.00     0.157 HD
ATOM     10  H   UNL d   1      28.802 -12.270   0.763  0.00  0.00     0.157 HD
ATOM     11  H   UNL d   1      29.666 -16.559  -2.889  0.00  0.00     0.171 HD
ENDROOT
BRANCH   4  12
ATOM     12  S   UNL d   1      28.999 -14.542  -4.568  0.00  0.00    -0.083 SA
BRANCH  12  13
ATOM     13  C   UNL d   1      27.181 -14.208  -4.926  0.00  0.00     0.185 C 
BRANCH  13  14
ATOM     14  C   UNL d   1      26.315 -15.195  -4.092  0.00  0.00     0.231 C 
ATOM     15  O   UNL d   1      25.522 -15.964  -4.640  0.00  0.00    -0.272 OA
ATOM     16  N   UNL d   1      26.437 -15.145  -2.692  0.00  0.00    -0.326 N 
ATOM     17  H   UNL d   1      26.889 -14.352  -2.252  0.00  0.00     0.169 HD
BRANCH  16  18
ATOM     18  C   UNL d   1      25.677 -16.019  -1.845  0.00  0.00     0.037 A 
ATOM     19  C   UNL d   1      26.341 -16.951  -1.015  0.00  0.00     0.032 A 
ATOM     20  C   UNL d   1      25.641 -17.829  -0.179  0.00  0.00     0.042 A 
ATOM     21  C   UNL d   1      24.269 -17.779  -0.204  0.00  0.00     0.105 A 
ATOM     22  C   UNL d   1      23.600 -16.882  -1.003  0.00  0.00     0.107 A 
ATOM     23  O   UNL d   1      23.436 -18.574   0.520  0.00  0.00    -0.323 OA
ATOM     24  C   UNL d   1      24.272 -15.967  -1.811  0.00  0.00     0.069 A 
ATOM     25  O   UNL d   1      22.246 -17.032  -0.898  0.00  0.00    -0.323 OA
ATOM     26  C   UNL d   1      22.156 -18.159   0.007  0.00  0.00     0.352 A 
ENDBRANCH  16  18
ENDBRANCH  13  14
ENDBRANCH  12  13
ENDBRANCH   4  12
BRANCH   8  27
ATOM     27  N   UNL d   1      29.400 -14.844   1.352  0.00  0.00    -0.315 N 
ATOM     28  C   UNL d   1      28.653 -14.175   2.328  0.00  0.00     0.263 C 
ATOM     29  O   UNL d   1      27.770 -13.343   2.063  0.00  0.00    -0.267 OA
ATOM     30  H   UNL d   1      30.033 -15.578   1.671  0.00  0.00     0.169 HD
BRANCH  28  31
ATOM     31  C   UNL d   1      28.883 -14.417   3.732  0.00  0.00     0.072 A 
ATOM     32  C   UNL d   1      30.036 -14.729   4.418  0.00  0.00     0.025 A 
ATOM     33  C   UNL d   1      29.850 -14.646   5.834  0.00  0.00     0.009 A 
ATOM     34  C   UNL d   1      28.575 -14.264   6.184  0.00  0.00     0.050 A 
ATOM     35  S   UNL d   1      27.600 -14.001   4.817  0.00  0.00    -0.097 SA
ENDBRANCH  28  31
ENDBRANCH   8  27
TORSDOF 6
ENDMDL
MODEL 9
REMARK VINA RESULT:    -6.372      3.354      5.127
REMARK INTER + INTRA:         -11.595
REMARK INTER:                  -8.162
REMARK INTRA:                  -3.434
REMARK CONF_INDEPENDENT:        1.790
REMARK UNBOUND:                -3.434
REMARK  6 active torsions:
REMARK  status: ('A' for Active; 'I' for Inactive)
REMARK    1  A    between atoms: C_4  and  S_5 
REMARK    2  A    between atoms: S_5  and  C_6 
REMARK    3  A    between atoms: C_6  and  C_7 
REMARK       I    between atoms: C_7  and  N_9 
REMARK    4  A    between atoms: N_9  and  C_10 
REMARK    5  A    between atoms: C_22  and  N_23 
REMARK       I    between atoms: N_23  and  C_24 
REMARK    6  A    between atoms: C_24  and  C_26 
ROOT
ATOM      1  N   UNL d   1      28.542 -17.660  -0.396  0.00  0.00    -0.382 N 
ATOM      2  C   UNL d   1      28.358 -16.441   0.176  0.00  0.00     0.156 A 
ATOM      3  N   UNL d   1      29.552 -15.921   0.600  0.00  0.00    -0.205 NA
ATOM      4  C   UNL d   1      29.599 -14.712   1.002  0.00  0.00     0.171 A 
ATOM      5  N   UNL d   1      28.504 -13.909   1.076  0.00  0.00    -0.300 N 
ATOM      6  C   UNL d   1      27.254 -14.356   0.711  0.00  0.00     0.278 A 
ATOM      7  O   UNL d   1      26.267 -13.620   0.735  0.00  0.00    -0.265 OA
ATOM      8  C   UNL d   1      27.154 -15.801   0.247  0.00  0.00     0.149 A 
ATOM      9  H   UNL d   1      29.374 -18.159  -0.125  0.00  0.00     0.157 HD
ATOM     10  H   UNL d   1      27.719 -18.232  -0.568  0.00  0.00     0.157 HD
ATOM     11  H   UNL d   1      28.609 -12.953   1.387  0.00  0.00     0.171 HD
ENDROOT
BRANCH   4  12
ATOM     12  S   UNL d   1      31.105 -13.998   1.487  0.00  0.00    -0.083 SA
BRANCH  12  13
ATOM     13  C   UNL d   1      31.868 -13.349  -0.107  0.00  0.00     0.185 C 
BRANCH  13  14
ATOM     14  C   UNL d   1      30.827 -13.487  -1.255  0.00  0.00     0.231 C 
ATOM     15  O   UNL d   1      30.248 -12.497  -1.708  0.00  0.00    -0.272 OA
ATOM     16  N   UNL d   1      30.541 -14.781  -1.723  0.00  0.00    -0.326 N 
ATOM     17  H   UNL d   1      30.823 -15.589  -1.181  0.00  0.00     0.169 HD
BRANCH  16  18
ATOM     18  C   UNL d   1      29.595 -15.000  -2.779  0.00  0.00     0.037 A 
ATOM     19  C   UNL d   1      30.050 -15.303  -4.082  0.00  0.00     0.032 A 
ATOM     20  C   UNL d   1      29.165 -15.517  -5.146  0.00  0.00     0.042 A 
ATOM     21  C   UNL d   1      27.820 -15.396  -4.893  0.00  0.00     0.105 A 
ATOM     22  C   UNL d   1      27.352 -15.101  -3.634  0.00  0.00     0.107 A 
ATOM     23  O   UNL d   1      26.827 -15.542  -5.812  0.00  0.00    -0.323 OA
ATOM     24  C   UNL d   1      28.209 -14.928  -2.549  0.00  0.00     0.069 A 
ATOM     25  O   UNL d   1      25.991 -14.993  -3.620  0.00  0.00    -0.323 OA
ATOM     26  C   UNL d   1      25.676 -15.194  -5.019  0.00  0.00     0.352 A 
ENDBRANCH  16  18
ENDBRANCH  13  14
ENDBRANCH  12  13
ENDBRANCH   4  12
BRANCH   8  27
ATOM     27  N   UNL d   1      25.871 -16.307  -0.114  0.00  0.00    -0.315 N 
ATOM     28  C   UNL d   1      25.433 -17.635  -0.073  0.00  0.00     0.263 C 
ATOM     29  O   UNL d   1      26.147 -18.580   0.300  0.00  0.00    -0.267 OA
ATOM     30  H   UNL d   1      25.177 -15.595  -0.343  0.00  0.00     0.169 HD
BRANCH  28  31
ATOM     31  C   UNL d   1      24.094 -17.988  -0.482  0.00  0.00     0.072 A 
ATOM     32  C   UNL d   1      23.453 -19.206  -0.522  0.00  0.00     0.025 A 
ATOM     33  C   UNL d   1      22.051 -19.061  -0.768  0.00  0.00     0.009 A 
ATOM     34  C   UNL d   1      21.665 -17.745  -0.895  0.00  0.00     0.050 A 
ATOM     35  S   UNL d   1      22.980 -16.683  -0.716  0.00  0.00    -0.097 SA
ENDBRANCH  28  31
ENDBRANCH   8  27
TORSDOF 6
ENDMDL
