MODEL 1
REMARK VINA RESULT:    -7.513      0.000      0.000
REMARK INTER + INTRA:         -10.803
REMARK INTER:                  -9.005
REMARK INTRA:                  -1.798
REMARK CONF_INDEPENDENT:        1.492
REMARK UNBOUND:                -1.798
REMARK  5 active torsions:
REMARK  status: ('A' for Active; 'I' for Inactive)
REMARK    1  A    between atoms: C_7  and  N_8 
REMARK    2  A    between atoms: C_16  and  C_17 
REMARK       I    between atoms: C_17  and  N_19 
REMARK    3  A    between atoms: N_19  and  C_20 
REMARK    4  A    between atoms: C_20  and  C_21 
REMARK    5  A    between atoms: C_26  and  N_27 
ROOT
ATOM      1  C   UNL d   1      30.512 -16.184  -0.299  0.00  0.00     0.046 C 
ATOM      2  C   UNL d   1      28.983 -16.078  -0.277  0.00  0.00     0.058 C 
ATOM      3  C   UNL d   1      28.575 -15.203   0.922  0.00  0.00     0.046 C 
ATOM      4  C   UNL d   1      28.556 -15.417  -1.567  0.00  0.00     0.077 C 
ATOM      5  C   UNL d   1      27.076 -15.476  -1.831  0.00  0.00    -0.028 A 
ATOM      6  C   UNL d   1      26.271 -16.426  -1.147  0.00  0.00     0.017 A 
ATOM      7  C   UNL d   1      24.870 -16.452  -1.349  0.00  0.00     0.113 A 
ATOM      8  N   UNL d   1      24.362 -15.579  -2.265  0.00  0.00    -0.336 N 
ATOM      9  C   UNL d   1      25.146 -14.663  -2.949  0.00  0.00     0.089 A 
ATOM     10  S   UNL d   1      24.610 -13.472  -4.094  0.00  0.00    -0.064 SA
ATOM     11  C   UNL d   1      26.206 -12.846  -4.367  0.00  0.00     0.101 A 
ATOM     12  C   UNL d   1      27.102 -13.553  -3.581  0.00  0.00     0.062 A 
ATOM     13  C   UNL d   1      26.511 -14.582  -2.765  0.00  0.00     0.033 A 
ATOM     14  C   UNL d   1      26.971 -17.353  -0.161  0.00  0.00     0.212 C 
ATOM     15  O   UNL d   1      28.400 -17.381  -0.265  0.00  0.00    -0.376 OA
ATOM     16  H   UNL d   1      23.355 -15.575  -2.392  0.00  0.00     0.168 HD
ENDROOT
BRANCH  11  17
ATOM     17  C   UNL d   1      26.620 -11.749  -5.284  0.00  0.00     0.261 C 
ATOM     18  O   UNL d   1      27.756 -11.733  -5.789  0.00  0.00    -0.267 OA
ATOM     19  N   UNL d   1      25.753 -10.729  -5.598  0.00  0.00    -0.354 N 
ATOM     20  H   UNL d   1      24.828 -10.723  -5.199  0.00  0.00     0.162 HD
BRANCH  19  21
ATOM     21  C   UNL d   1      26.144  -9.636  -6.520  0.00  0.00     0.155 C 
BRANCH  21  22
ATOM     22  C   UNL d   1      25.124  -8.489  -6.520  0.00  0.00     0.139 C 
ATOM     23  C   UNL d   1      25.590  -7.339  -5.645  0.00  0.00     0.035 C 
ATOM     24  C   UNL d   1      24.304  -6.646  -5.291  0.00  0.00     0.029 C 
ATOM     25  C   UNL d   1      23.320  -7.793  -5.203  0.00  0.00     0.168 C 
ATOM     26  O   UNL d   1      23.834  -8.868  -6.014  0.00  0.00    -0.384 OA
ENDBRANCH  21  22
ENDBRANCH  19  21
ENDBRANCH  11  17
BRANCH  12  27
ATOM     27  N   UNL d   1      28.424 -13.265  -3.597  0.00  0.00    -0.397 N 
ATOM     28  H   UNL d   1      28.773 -12.412  -4.052  0.00  0.00     0.156 HD
ATOM     29  H   UNL d   1      29.189 -13.883  -3.368  0.00  0.00     0.156 HD
ENDBRANCH  12  27
BRANCH   7  30
ATOM     30  N   UNL d   1      23.979 -17.208  -0.603  0.00  0.00    -0.367 N 
ATOM     31  C   UNL d   1      24.179 -18.644  -0.317  0.00  0.00     0.124 C 
ATOM     32  C   UNL d   1      22.868 -19.325  -0.698  0.00  0.00     0.021 C 
ATOM     33  C   UNL d   1      21.839 -18.296  -0.270  0.00  0.00     0.021 C 
ATOM     34  C   UNL d   1      22.522 -16.930  -0.520  0.00  0.00     0.124 C 
ENDBRANCH   7  30
TORSDOF 5
ENDMDL
MODEL 2
REMARK VINA RESULT:    -7.275      2.550      8.202
REMARK INTER + INTRA:         -10.288
REMARK INTER:                  -8.767
REMARK INTRA:                  -1.521
REMARK CONF_INDEPENDENT:        1.492
REMARK UNBOUND:                -1.521
REMARK  5 active torsions:
REMARK  status: ('A' for Active; 'I' for Inactive)
REMARK    1  A    between atoms: C_7  and  N_8 
REMARK    2  A    between atoms: C_16  and  C_17 
REMARK       I    between atoms: C_17  and  N_19 
REMARK    3  A    between atoms: N_19  and  C_20 
REMARK    4  A    between atoms: C_20  and  C_21 
REMARK    5  A    between atoms: C_26  and  N_27 
ROOT
ATOM      1  C   UNL d   1      31.623 -14.677  -1.984  0.00  0.00     0.046 C 
ATOM      2  C   UNL d   1      30.407 -14.207  -2.792  0.00  0.00     0.058 C 
ATOM      3  C   UNL d   1      30.493 -14.824  -4.200  0.00  0.00     0.046 C 
ATOM      4  C   UNL d   1      29.171 -14.709  -2.083  0.00  0.00     0.077 C 
ATOM      5  C   UNL d   1      27.885 -14.115  -2.588  0.00  0.00    -0.028 A 
ATOM      6  C   UNL d   1      27.907 -12.911  -3.341  0.00  0.00     0.017 A 
ATOM      7  C   UNL d   1      26.707 -12.374  -3.866  0.00  0.00     0.113 A 
ATOM      8  N   UNL d   1      25.551 -13.029  -3.560  0.00  0.00    -0.336 N 
ATOM      9  C   UNL d   1      25.522 -14.194  -2.810  0.00  0.00     0.089 A 
ATOM     10  S   UNL d   1      24.126 -15.143  -2.399  0.00  0.00    -0.064 SA
ATOM     11  C   UNL d   1      25.042 -16.325  -1.519  0.00  0.00     0.101 A 
ATOM     12  C   UNL d   1      26.382 -15.973  -1.562  0.00  0.00     0.062 A 
ATOM     13  C   UNL d   1      26.668 -14.770  -2.300  0.00  0.00     0.033 A 
ATOM     14  C   UNL d   1      29.268 -12.274  -3.598  0.00  0.00     0.212 C 
ATOM     15  O   UNL d   1      30.337 -12.781  -2.791  0.00  0.00    -0.376 OA
ATOM     16  H   UNL d   1      24.692 -12.664  -3.958  0.00  0.00     0.168 HD
ENDROOT
BRANCH  11  17
ATOM     17  C   UNL d   1      24.543 -17.529  -0.802  0.00  0.00     0.261 C 
ATOM     18  O   UNL d   1      25.306 -18.221  -0.104  0.00  0.00    -0.267 OA
ATOM     19  N   UNL d   1      23.223 -17.904  -0.889  0.00  0.00    -0.354 N 
ATOM     20  H   UNL d   1      22.588 -17.358  -1.448  0.00  0.00     0.162 HD
BRANCH  19  21
ATOM     21  C   UNL d   1      22.705 -19.092  -0.171  0.00  0.00     0.155 C 
BRANCH  21  22
ATOM     22  C   UNL d   1      21.219 -18.949   0.188  0.00  0.00     0.139 C 
ATOM     23  C   UNL d   1      20.624 -20.281   0.605  0.00  0.00     0.035 C 
ATOM     24  C   UNL d   1      19.158 -20.092   0.330  0.00  0.00     0.029 C 
ATOM     25  C   UNL d   1      19.159 -19.200  -0.893  0.00  0.00     0.168 C 
ATOM     26  O   UNL d   1      20.409 -18.482  -0.903  0.00  0.00    -0.384 OA
ENDBRANCH  21  22
ENDBRANCH  19  21
ENDBRANCH  11  17
BRANCH  12  27
ATOM     27  N   UNL d   1      27.324 -16.731  -0.955  0.00  0.00    -0.397 N 
ATOM     28  H   UNL d   1      27.059 -17.505  -0.333  0.00  0.00     0.156 HD
ATOM     29  H   UNL d   1      28.311 -16.534  -0.876  0.00  0.00     0.156 HD
ENDBRANCH  12  27
BRANCH   7  30
ATOM     30  N   UNL d   1      26.640 -11.315  -4.759  0.00  0.00    -0.367 N 
ATOM     31  C   UNL d   1      26.887  -9.911  -4.367  0.00  0.00     0.124 C 
ATOM     32  C   UNL d   1      25.699  -9.120  -4.907  0.00  0.00     0.021 C 
ATOM     33  C   UNL d   1      25.425  -9.816  -6.226  0.00  0.00     0.021 C 
ATOM     34  C   UNL d   1      25.775 -11.301  -5.967  0.00  0.00     0.124 C 
ENDBRANCH   7  30
TORSDOF 5
ENDMDL
MODEL 3
REMARK VINA RESULT:    -7.251      1.621      2.548
REMARK INTER + INTRA:         -10.069
REMARK INTER:                  -8.742
REMARK INTRA:                  -1.327
REMARK CONF_INDEPENDENT:        1.492
REMARK UNBOUND:                -1.327
REMARK  5 active torsions:
REMARK  status: ('A' for Active; 'I' for Inactive)
REMARK    1  A    between atoms: C_7  and  N_8 
REMARK    2  A    between atoms: C_16  and  C_17 
REMARK       I    between atoms: C_17  and  N_19 
REMARK    3  A    between atoms: N_19  and  C_20 
REMARK    4  A    between atoms: C_20  and  C_21 
REMARK    5  A    between atoms: C_26  and  N_27 
ROOT
ATOM      1  C   UNL d   1      30.057 -14.942   0.874  0.00  0.00     0.046 C 
ATOM      2  C   UNL d   1      28.559 -15.113   0.598  0.00  0.00     0.058 C 
ATOM      3  C   UNL d   1      27.778 -14.268   1.620  0.00  0.00     0.046 C 
ATOM      4  C   UNL d   1      28.295 -14.605  -0.801  0.00  0.00     0.077 C 
ATOM      5  C   UNL d   1      26.931 -14.942  -1.334  0.00  0.00    -0.028 A 
ATOM      6  C   UNL d   1      26.175 -15.987  -0.738  0.00  0.00     0.017 A 
ATOM      7  C   UNL d   1      24.868 -16.276  -1.198  0.00  0.00     0.113 A 
ATOM      8  N   UNL d   1      24.415 -15.555  -2.263  0.00  0.00    -0.336 N 
ATOM      9  C   UNL d   1      25.156 -14.548  -2.861  0.00  0.00     0.089 A 
ATOM     10  S   UNL d   1      24.670 -13.530  -4.183  0.00  0.00    -0.064 SA
ATOM     11  C   UNL d   1      26.160 -12.641  -4.200  0.00  0.00     0.101 A 
ATOM     12  C   UNL d   1      26.985 -13.134  -3.203  0.00  0.00     0.062 A 
ATOM     13  C   UNL d   1      26.423 -14.212  -2.429  0.00  0.00     0.033 A 
ATOM     14  C   UNL d   1      26.808 -16.723   0.437  0.00  0.00     0.212 C 
ATOM     15  O   UNL d   1      28.212 -16.497   0.608  0.00  0.00    -0.376 OA
ATOM     16  H   UNL d   1      23.468 -15.739  -2.579  0.00  0.00     0.168 HD
ENDROOT
BRANCH  11  17
ATOM     17  C   UNL d   1      26.560 -11.534  -5.110  0.00  0.00     0.261 C 
ATOM     18  O   UNL d   1      27.685 -11.011  -5.026  0.00  0.00    -0.267 OA
ATOM     19  N   UNL d   1      25.696 -11.066  -6.073  0.00  0.00    -0.354 N 
ATOM     20  H   UNL d   1      24.780 -11.475  -6.159  0.00  0.00     0.162 HD
BRANCH  19  21
ATOM     21  C   UNL d   1      26.083  -9.973  -6.997  0.00  0.00     0.155 C 
BRANCH  21  22
ATOM     22  C   UNL d   1      27.074 -10.447  -8.069  0.00  0.00     0.139 C 
ATOM     23  C   UNL d   1      26.350 -11.075  -9.247  0.00  0.00     0.035 C 
ATOM     24  C   UNL d   1      27.400 -11.969  -9.846  0.00  0.00     0.029 C 
ATOM     25  C   UNL d   1      28.177 -12.433  -8.632  0.00  0.00     0.168 C 
ATOM     26  O   UNL d   1      27.994 -11.445  -7.598  0.00  0.00    -0.384 OA
ENDBRANCH  21  22
ENDBRANCH  19  21
ENDBRANCH  11  17
BRANCH  12  27
ATOM     27  N   UNL d   1      28.216 -12.614  -2.993  0.00  0.00    -0.397 N 
ATOM     28  H   UNL d   1      28.823 -12.358  -3.781  0.00  0.00     0.156 HD
ATOM     29  H   UNL d   1      28.734 -12.596  -2.125  0.00  0.00     0.156 HD
ENDBRANCH  12  27
BRANCH   7  30
ATOM     30  N   UNL d   1      23.984 -17.142  -0.573  0.00  0.00    -0.367 N 
ATOM     31  C   UNL d   1      24.235 -18.593  -0.436  0.00  0.00     0.124 C 
ATOM     32  C   UNL d   1      22.968 -19.278  -0.939  0.00  0.00     0.021 C 
ATOM     33  C   UNL d   1      21.883 -18.343  -0.445  0.00  0.00     0.021 C 
ATOM     34  C   UNL d   1      22.514 -16.932  -0.519  0.00  0.00     0.124 C 
ENDBRANCH   7  30
TORSDOF 5
ENDMDL
MODEL 4
REMARK VINA RESULT:    -6.986      3.452      9.302
REMARK INTER + INTRA:          -9.642
REMARK INTER:                  -8.478
REMARK INTRA:                  -1.164
REMARK CONF_INDEPENDENT:        1.492
REMARK UNBOUND:                -1.164
REMARK  5 active torsions:
REMARK  status: ('A' for Active; 'I' for Inactive)
REMARK    1  A    between atoms: C_7  and  N_8 
REMARK    2  A    between atoms: C_16  and  C_17 
REMARK       I    between atoms: C_17  and  N_19 
REMARK    3  A    between atoms: N_19  and  C_20 
REMARK    4  A    between atoms: C_20  and  C_21 
REMARK    5  A    between atoms: C_26  and  N_27 
ROOT
ATOM      1  C   UNL d   1      26.237  -8.377  -7.282  0.00  0.00     0.046 C 
ATOM      2  C   UNL d   1      27.332  -9.445  -7.189  0.00  0.00     0.058 C 
ATOM      3  C   UNL d   1      28.450  -8.915  -6.274  0.00  0.00     0.046 C 
ATOM      4  C   UNL d   1      26.710 -10.681  -6.582  0.00  0.00     0.077 C 
ATOM      5  C   UNL d   1      27.571 -11.911  -6.664  0.00  0.00    -0.028 A 
ATOM      6  C   UNL d   1      28.644 -11.965  -7.594  0.00  0.00     0.017 A 
ATOM      7  C   UNL d   1      29.492 -13.097  -7.641  0.00  0.00     0.113 A 
ATOM      8  N   UNL d   1      29.188 -14.132  -6.807  0.00  0.00    -0.336 N 
ATOM      9  C   UNL d   1      28.131 -14.092  -5.911  0.00  0.00     0.089 A 
ATOM     10  S   UNL d   1      27.677 -15.319  -4.769  0.00  0.00    -0.064 SA
ATOM     11  C   UNL d   1      26.343 -14.406  -4.139  0.00  0.00     0.101 A 
ATOM     12  C   UNL d   1      26.278 -13.194  -4.807  0.00  0.00     0.062 A 
ATOM     13  C   UNL d   1      27.294 -13.000  -5.810  0.00  0.00     0.033 A 
ATOM     14  C   UNL d   1      28.863 -10.743  -8.477  0.00  0.00     0.212 C 
ATOM     15  O   UNL d   1      27.780  -9.806  -8.496  0.00  0.00    -0.376 OA
ATOM     16  H   UNL d   1      29.810 -14.934  -6.817  0.00  0.00     0.168 HD
ENDROOT
BRANCH  11  17
ATOM     17  C   UNL d   1      25.380 -14.797  -3.074  0.00  0.00     0.261 C 
ATOM     18  O   UNL d   1      24.202 -14.401  -3.100  0.00  0.00    -0.267 OA
ATOM     19  N   UNL d   1      25.770 -15.612  -2.037  0.00  0.00    -0.354 N 
ATOM     20  H   UNL d   1      26.721 -15.944  -1.997  0.00  0.00     0.162 HD
BRANCH  19  21
ATOM     21  C   UNL d   1      24.822 -16.023  -0.975  0.00  0.00     0.155 C 
BRANCH  21  22
ATOM     22  C   UNL d   1      23.946 -17.207  -1.409  0.00  0.00     0.139 C 
ATOM     23  C   UNL d   1      22.529 -17.062  -0.886  0.00  0.00     0.035 C 
ATOM     24  C   UNL d   1      22.033 -18.482  -0.869  0.00  0.00     0.029 C 
ATOM     25  C   UNL d   1      23.280 -19.267  -0.523  0.00  0.00     0.168 C 
ATOM     26  O   UNL d   1      24.415 -18.475  -0.924  0.00  0.00    -0.384 OA
ENDBRANCH  21  22
ENDBRANCH  19  21
ENDBRANCH  11  17
BRANCH  12  27
ATOM     27  N   UNL d   1      25.326 -12.280  -4.508  0.00  0.00    -0.397 N 
ATOM     28  H   UNL d   1      24.710 -12.406  -3.694  0.00  0.00     0.156 HD
ATOM     29  H   UNL d   1      24.988 -11.532  -5.097  0.00  0.00     0.156 HD
ENDBRANCH  12  27
BRANCH   7  30
ATOM     30  N   UNL d   1      30.666 -13.174  -8.376  0.00  0.00    -0.367 N 
ATOM     31  C   UNL d   1      32.001 -13.303  -7.754  0.00  0.00     0.124 C 
ATOM     32  C   UNL d   1      32.860 -12.220  -8.399  0.00  0.00     0.021 C 
ATOM     33  C   UNL d   1      32.356 -12.223  -9.829  0.00  0.00     0.021 C 
ATOM     34  C   UNL d   1      30.850 -12.556  -9.714  0.00  0.00     0.124 C 
ENDBRANCH   7  30
TORSDOF 5
ENDMDL
MODEL 5
REMARK VINA RESULT:    -6.943      2.509      8.363
REMARK INTER + INTRA:         -10.220
REMARK INTER:                  -8.434
REMARK INTRA:                  -1.786
REMARK CONF_INDEPENDENT:        1.492
REMARK UNBOUND:                -1.786
REMARK  5 active torsions:
REMARK  status: ('A' for Active; 'I' for Inactive)
REMARK    1  A    between atoms: C_7  and  N_8 
REMARK    2  A    between atoms: C_16  and  C_17 
REMARK       I    between atoms: C_17  and  N_19 
REMARK    3  A    between atoms: N_19  and  C_20 
REMARK    4  A    between atoms: C_20  and  C_21 
REMARK    5  A    between atoms: C_26  and  N_27 
ROOT
ATOM      1  C   UNL d   1      31.607 -14.544  -5.354  0.00  0.00     0.046 C 
ATOM      2  C   UNL d   1      30.204 -14.057  -5.736  0.00  0.00     0.058 C 
ATOM      3  C   UNL d   1      29.759 -14.806  -7.005  0.00  0.00     0.046 C 
ATOM      4  C   UNL d   1      29.281 -14.393  -4.587  0.00  0.00     0.077 C 
ATOM      5  C   UNL d   1      27.924 -13.749  -4.677  0.00  0.00    -0.028 A 
ATOM      6  C   UNL d   1      27.728 -12.624  -5.522  0.00  0.00     0.017 A 
ATOM      7  C   UNL d   1      26.443 -12.045  -5.654  0.00  0.00     0.113 A 
ATOM      8  N   UNL d   1      25.445 -12.577  -4.891  0.00  0.00    -0.336 N 
ATOM      9  C   UNL d   1      25.636 -13.662  -4.050  0.00  0.00     0.089 A 
ATOM     10  S   UNL d   1      24.439 -14.457  -3.073  0.00  0.00    -0.064 SA
ATOM     11  C   UNL d   1      25.559 -15.621  -2.440  0.00  0.00     0.101 A 
ATOM     12  C   UNL d   1      26.809 -15.381  -2.987  0.00  0.00     0.062 A 
ATOM     13  C   UNL d   1      26.864 -14.277  -3.910  0.00  0.00     0.033 A 
ATOM     14  C   UNL d   1      28.933 -12.123  -6.308  0.00  0.00     0.212 C 
ATOM     15  O   UNL d   1      30.197 -12.636  -5.872  0.00  0.00    -0.376 OA
ATOM     16  H   UNL d   1      24.516 -12.184  -5.003  0.00  0.00     0.168 HD
ENDROOT
BRANCH  11  17
ATOM     17  C   UNL d   1      25.298 -16.712  -1.462  0.00  0.00     0.261 C 
ATOM     18  O   UNL d   1      26.183 -17.535  -1.170  0.00  0.00    -0.267 OA
ATOM     19  N   UNL d   1      24.071 -16.832  -0.851  0.00  0.00    -0.354 N 
ATOM     20  H   UNL d   1      23.340 -16.175  -1.073  0.00  0.00     0.162 HD
BRANCH  19  21
ATOM     21  C   UNL d   1      23.798 -17.903   0.136  0.00  0.00     0.155 C 
BRANCH  21  22
ATOM     22  C   UNL d   1      22.304 -18.248   0.215  0.00  0.00     0.139 C 
ATOM     23  C   UNL d   1      22.055 -19.700  -0.146  0.00  0.00     0.035 C 
ATOM     24  C   UNL d   1      20.619 -19.693  -0.592  0.00  0.00     0.029 C 
ATOM     25  C   UNL d   1      20.481 -18.335  -1.249  0.00  0.00     0.168 C 
ATOM     26  O   UNL d   1      21.489 -17.476  -0.682  0.00  0.00    -0.384 OA
ENDBRANCH  21  22
ENDBRANCH  19  21
ENDBRANCH  11  17
BRANCH  12  27
ATOM     27  N   UNL d   1      27.873 -16.151  -2.664  0.00  0.00    -0.397 N 
ATOM     28  H   UNL d   1      27.987 -16.524  -1.713  0.00  0.00     0.156 HD
ATOM     29  H   UNL d   1      28.719 -16.285  -3.201  0.00  0.00     0.156 HD
ENDBRANCH  12  27
BRANCH   7  30
ATOM     30  N   UNL d   1      26.106 -11.072  -6.581  0.00  0.00    -0.367 N 
ATOM     31  C   UNL d   1      26.591 -11.086  -7.978  0.00  0.00     0.124 C 
ATOM     32  C   UNL d   1      27.159  -9.692  -8.229  0.00  0.00     0.021 C 
ATOM     33  C   UNL d   1      26.199  -8.812  -7.453  0.00  0.00     0.021 C 
ATOM     34  C   UNL d   1      25.785  -9.665  -6.229  0.00  0.00     0.124 C 
ENDBRANCH   7  30
TORSDOF 5
ENDMDL
MODEL 6
REMARK VINA RESULT:    -6.734      7.176     11.479
REMARK INTER + INTRA:         -10.163
REMARK INTER:                  -8.225
REMARK INTRA:                  -1.938
REMARK CONF_INDEPENDENT:        1.492
REMARK UNBOUND:                -1.938
REMARK  5 active torsions:
REMARK  status: ('A' for Active; 'I' for Inactive)
REMARK    1  A    between atoms: C_7  and  N_8 
REMARK    2  A    between atoms: C_16  and  C_17 
REMARK       I    between atoms: C_17  and  N_19 
REMARK    3  A    between atoms: N_19  and  C_20 
REMARK    4  A    between atoms: C_20  and  C_21 
REMARK    5  A    between atoms: C_26  and  N_27 
ROOT
ATOM      1  C   UNL d   1      26.866  -8.625   1.783  0.00  0.00     0.046 C 
ATOM      2  C   UNL d   1      27.439 -10.043   1.672  0.00  0.00     0.058 C 
ATOM      3  C   UNL d   1      28.922  -9.936   1.274  0.00  0.00     0.046 C 
ATOM      4  C   UNL d   1      27.314 -10.690   3.032  0.00  0.00     0.077 C 
ATOM      5  C   UNL d   1      27.580 -12.170   3.039  0.00  0.00    -0.028 A 
ATOM      6  C   UNL d   1      27.523 -12.907   1.825  0.00  0.00     0.017 A 
ATOM      7  C   UNL d   1      27.825 -14.289   1.814  0.00  0.00     0.113 A 
ATOM      8  N   UNL d   1      28.103 -14.871   3.016  0.00  0.00    -0.336 N 
ATOM      9  C   UNL d   1      28.142 -14.160   4.205  0.00  0.00     0.089 A 
ATOM     10  S   UNL d   1      28.533 -14.775   5.782  0.00  0.00    -0.064 SA
ATOM     11  C   UNL d   1      28.340 -13.235   6.559  0.00  0.00     0.101 A 
ATOM     12  C   UNL d   1      27.989 -12.295   5.604  0.00  0.00     0.062 A 
ATOM     13  C   UNL d   1      27.882 -12.806   4.262  0.00  0.00     0.033 A 
ATOM     14  C   UNL d   1      27.185 -12.134   0.556  0.00  0.00     0.212 C 
ATOM     15  O   UNL d   1      26.654 -10.821   0.768  0.00  0.00    -0.376 OA
ATOM     16  H   UNL d   1      28.348 -15.855   3.009  0.00  0.00     0.168 HD
ENDROOT
BRANCH  11  17
ATOM     17  C   UNL d   1      28.495 -12.906   8.002  0.00  0.00     0.261 C 
ATOM     18  O   UNL d   1      28.221 -11.772   8.433  0.00  0.00    -0.267 OA
ATOM     19  N   UNL d   1      28.939 -13.852   8.896  0.00  0.00    -0.354 N 
ATOM     20  H   UNL d   1      29.166 -14.777   8.568  0.00  0.00     0.162 HD
BRANCH  19  21
ATOM     21  C   UNL d   1      29.086 -13.547  10.339  0.00  0.00     0.155 C 
BRANCH  21  22
ATOM     22  C   UNL d   1      29.464 -14.789  11.157  0.00  0.00     0.139 C 
ATOM     23  C   UNL d   1      30.769 -14.580  11.903  0.00  0.00     0.035 C 
ATOM     24  C   UNL d   1      31.261 -15.985  12.117  0.00  0.00     0.029 C 
ATOM     25  C   UNL d   1      30.785 -16.699  10.869  0.00  0.00     0.168 C 
ATOM     26  O   UNL d   1      29.655 -15.966  10.356  0.00  0.00    -0.384 OA
ENDBRANCH  21  22
ENDBRANCH  19  21
ENDBRANCH  11  17
BRANCH  12  27
ATOM     27  N   UNL d   1      27.779 -11.001   5.940  0.00  0.00    -0.397 N 
ATOM     28  H   UNL d   1      28.093 -10.633   6.848  0.00  0.00     0.156 HD
ATOM     29  H   UNL d   1      27.170 -10.339   5.480  0.00  0.00     0.156 HD
ENDBRANCH  12  27
BRANCH   7  30
ATOM     30  N   UNL d   1      27.976 -15.055   0.668  0.00  0.00    -0.367 N 
ATOM     31  C   UNL d   1      26.886 -15.873   0.094  0.00  0.00     0.124 C 
ATOM     32  C   UNL d   1      27.484 -17.260  -0.121  0.00  0.00     0.021 C 
ATOM     33  C   UNL d   1      28.900 -16.933  -0.553  0.00  0.00     0.021 C 
ATOM     34  C   UNL d   1      29.265 -15.651   0.232  0.00  0.00     0.124 C 
ENDBRANCH   7  30
TORSDOF 5
ENDMDL
MODEL 7
REMARK VINA RESULT:    -6.331      7.233     10.476
REMARK INTER + INTRA:          -9.709
REMARK INTER:                  -7.822
REMARK INTRA:                  -1.887
REMARK CONF_INDEPENDENT:        1.492
REMARK UNBOUND:                -1.887
REMARK  5 active torsions:
REMARK  status: ('A' for Active; 'I' for Inactive)
REMARK    1  A    between atoms: C_7  and  N_8 
REMARK    2  A    between atoms: C_16  and  C_17 
REMARK       I    between atoms: C_17  and  N_19 
REMARK    3  A    between atoms: N_19  and  C_20 
REMARK    4  A    between atoms: C_20  and  C_21 
REMARK    5  A    between atoms: C_26  and  N_27 
ROOT
ATOM      1  C   UNL d   1      31.439  -8.877   6.542  0.00  0.00     0.046 C 
ATOM      2  C   UNL d   1      30.606 -10.023   7.128  0.00  0.00     0.058 C 
ATOM      3  C   UNL d   1      29.280  -9.441   7.649  0.00  0.00     0.046 C 
ATOM      4  C   UNL d   1      30.336 -11.004   6.010  0.00  0.00     0.077 C 
ATOM      5  C   UNL d   1      29.761 -12.317   6.465  0.00  0.00    -0.028 A 
ATOM      6  C   UNL d   1      29.882 -12.711   7.825  0.00  0.00     0.017 A 
ATOM      7  C   UNL d   1      29.298 -13.920   8.273  0.00  0.00     0.113 A 
ATOM      8  N   UNL d   1      28.683 -14.694   7.334  0.00  0.00    -0.336 N 
ATOM      9  C   UNL d   1      28.579 -14.323   6.003  0.00  0.00     0.089 A 
ATOM     10  S   UNL d   1      27.780 -15.195   4.730  0.00  0.00    -0.064 SA
ATOM     11  C   UNL d   1      28.152 -14.006   3.522  0.00  0.00     0.101 A 
ATOM     12  C   UNL d   1      28.867 -12.978   4.114  0.00  0.00     0.062 A 
ATOM     13  C   UNL d   1      29.109 -13.142   5.525  0.00  0.00     0.033 A 
ATOM     14  C   UNL d   1      30.607 -11.756   8.766  0.00  0.00     0.212 C 
ATOM     15  O   UNL d   1      31.359 -10.722   8.120  0.00  0.00    -0.376 OA
ATOM     16  H   UNL d   1      28.238 -15.548   7.656  0.00  0.00     0.168 HD
ENDROOT
BRANCH  11  17
ATOM     17  C   UNL d   1      27.807 -14.025   2.074  0.00  0.00     0.261 C 
ATOM     18  O   UNL d   1      27.496 -12.981   1.477  0.00  0.00    -0.267 OA
ATOM     19  N   UNL d   1      27.831 -15.200   1.360  0.00  0.00    -0.354 N 
ATOM     20  H   UNL d   1      28.081 -16.059   1.825  0.00  0.00     0.162 HD
BRANCH  19  21
ATOM     21  C   UNL d   1      27.504 -15.236  -0.085  0.00  0.00     0.155 C 
BRANCH  21  22
ATOM     22  C   UNL d   1      26.844 -16.560  -0.495  0.00  0.00     0.139 C 
ATOM     23  C   UNL d   1      25.408 -16.343  -0.938  0.00  0.00     0.035 C 
ATOM     24  C   UNL d   1      24.782 -17.692  -0.714  0.00  0.00     0.029 C 
ATOM     25  C   UNL d   1      25.513 -18.200   0.511  0.00  0.00     0.168 C 
ATOM     26  O   UNL d   1      26.785 -17.525   0.568  0.00  0.00    -0.384 OA
ENDBRANCH  21  22
ENDBRANCH  19  21
ENDBRANCH  11  17
BRANCH  12  27
ATOM     27  N   UNL d   1      29.284 -11.911   3.394  0.00  0.00    -0.397 N 
ATOM     28  H   UNL d   1      28.896 -11.719   2.462  0.00  0.00     0.156 HD
ATOM     29  H   UNL d   1      30.094 -11.333   3.567  0.00  0.00     0.156 HD
ENDBRANCH  12  27
BRANCH   7  30
ATOM     30  N   UNL d   1      29.200 -14.304   9.602  0.00  0.00    -0.367 N 
ATOM     31  C   UNL d   1      28.126 -13.833  10.502  0.00  0.00     0.124 C 
ATOM     32  C   UNL d   1      28.834 -13.325  11.754  0.00  0.00     0.021 C 
ATOM     33  C   UNL d   1      29.975 -14.312  11.898  0.00  0.00     0.021 C 
ATOM     34  C   UNL d   1      30.364 -14.679  10.445  0.00  0.00     0.124 C 
ENDBRANCH   7  30
TORSDOF 5
ENDMDL
MODEL 8
REMARK VINA RESULT:    -6.261      7.108     10.294
REMARK INTER + INTRA:          -9.639
REMARK INTER:                  -7.753
REMARK INTRA:                  -1.886
REMARK CONF_INDEPENDENT:        1.492
REMARK UNBOUND:                -1.886
REMARK  5 active torsions:
REMARK  status: ('A' for Active; 'I' for Inactive)
REMARK    1  A    between atoms: C_7  and  N_8 
REMARK    2  A    between atoms: C_16  and  C_17 
REMARK       I    between atoms: C_17  and  N_19 
REMARK    3  A    between atoms: N_19  and  C_20 
REMARK    4  A    between atoms: C_20  and  C_21 
REMARK    5  A    between atoms: C_26  and  N_27 
ROOT
ATOM      1  C   UNL d   1      31.166  -8.267   6.025  0.00  0.00     0.046 C 
ATOM      2  C   UNL d   1      30.544  -9.490   6.707  0.00  0.00     0.058 C 
ATOM      3  C   UNL d   1      29.285  -9.034   7.467  0.00  0.00     0.046 C 
ATOM      4  C   UNL d   1      30.165 -10.471   5.622  0.00  0.00     0.077 C 
ATOM      5  C   UNL d   1      29.788 -11.837   6.127  0.00  0.00    -0.028 A 
ATOM      6  C   UNL d   1      30.176 -12.242   7.432  0.00  0.00     0.017 A 
ATOM      7  C   UNL d   1      29.779 -13.504   7.935  0.00  0.00     0.113 A 
ATOM      8  N   UNL d   1      29.077 -14.313   7.091  0.00  0.00    -0.336 N 
ATOM      9  C   UNL d   1      28.713 -13.929   5.810  0.00  0.00     0.089 A 
ATOM     10  S   UNL d   1      27.780 -14.845   4.666  0.00  0.00    -0.064 SA
ATOM     11  C   UNL d   1      27.838 -13.608   3.450  0.00  0.00     0.101 A 
ATOM     12  C   UNL d   1      28.558 -12.532   3.943  0.00  0.00     0.062 A 
ATOM     13  C   UNL d   1      29.053 -12.699   5.286  0.00  0.00     0.033 A 
ATOM     14  C   UNL d   1      30.971 -11.245   8.265  0.00  0.00     0.212 C 
ATOM     15  O   UNL d   1      31.512 -10.138   7.533  0.00  0.00    -0.376 OA
ATOM     16  H   UNL d   1      28.766 -15.207   7.457  0.00  0.00     0.168 HD
ENDROOT
BRANCH  11  17
ATOM     17  C   UNL d   1      27.249 -13.632   2.083  0.00  0.00     0.261 C 
ATOM     18  O   UNL d   1      26.747 -12.610   1.585  0.00  0.00    -0.267 OA
ATOM     19  N   UNL d   1      27.253 -14.786   1.335  0.00  0.00    -0.354 N 
ATOM     20  H   UNL d   1      27.656 -15.625   1.720  0.00  0.00     0.162 HD
BRANCH  19  21
ATOM     21  C   UNL d   1      26.685 -14.825  -0.033  0.00  0.00     0.155 C 
BRANCH  21  22
ATOM     22  C   UNL d   1      26.329 -16.252  -0.470  0.00  0.00     0.139 C 
ATOM     23  C   UNL d   1      24.855 -16.372  -0.811  0.00  0.00     0.035 C 
ATOM     24  C   UNL d   1      24.586 -17.839  -0.621  0.00  0.00     0.029 C 
ATOM     25  C   UNL d   1      25.503 -18.200   0.529  0.00  0.00     0.168 C 
ATOM     26  O   UNL d   1      26.579 -17.241   0.542  0.00  0.00    -0.384 OA
ENDBRANCH  21  22
ENDBRANCH  19  21
ENDBRANCH  11  17
BRANCH  12  27
ATOM     27  N   UNL d   1      28.754 -11.421   3.197  0.00  0.00    -0.397 N 
ATOM     28  H   UNL d   1      28.105 -11.172   2.440  0.00  0.00     0.156 HD
ATOM     29  H   UNL d   1      29.588 -10.852   3.151  0.00  0.00     0.156 HD
ENDBRANCH  12  27
BRANCH   7  30
ATOM     30  N   UNL d   1      29.945 -13.919   9.248  0.00  0.00    -0.367 N 
ATOM     31  C   UNL d   1      31.058 -14.789   9.685  0.00  0.00     0.124 C 
ATOM     32  C   UNL d   1      30.407 -15.920  10.476  0.00  0.00     0.021 C 
ATOM     33  C   UNL d   1      29.284 -15.200  11.195  0.00  0.00     0.021 C 
ATOM     34  C   UNL d   1      28.828 -14.098  10.210  0.00  0.00     0.124 C 
ENDBRANCH   7  30
TORSDOF 5
ENDMDL
MODEL 9
REMARK VINA RESULT:    -5.956      5.345      8.007
REMARK INTER + INTRA:          -9.328
REMARK INTER:                  -7.447
REMARK INTRA:                  -1.881
REMARK CONF_INDEPENDENT:        1.492
REMARK UNBOUND:                -1.881
REMARK  5 active torsions:
REMARK  status: ('A' for Active; 'I' for Inactive)
REMARK    1  A    between atoms: C_7  and  N_8 
REMARK    2  A    between atoms: C_16  and  C_17 
REMARK       I    between atoms: C_17  and  N_19 
REMARK    3  A    between atoms: N_19  and  C_20 
REMARK    4  A    between atoms: C_20  and  C_21 
REMARK    5  A    between atoms: C_26  and  N_27 
ROOT
ATOM      1  C   UNL d   1      25.905 -11.445  -4.896  0.00  0.00     0.046 C 
ATOM      2  C   UNL d   1      26.079 -12.806  -4.212  0.00  0.00     0.058 C 
ATOM      3  C   UNL d   1      24.920 -13.720  -4.648  0.00  0.00     0.046 C 
ATOM      4  C   UNL d   1      27.396 -13.382  -4.680  0.00  0.00     0.077 C 
ATOM      5  C   UNL d   1      27.852 -14.588  -3.906  0.00  0.00    -0.028 A 
ATOM      6  C   UNL d   1      27.306 -14.855  -2.622  0.00  0.00     0.017 A 
ATOM      7  C   UNL d   1      27.690 -16.017  -1.910  0.00  0.00     0.113 A 
ATOM      8  N   UNL d   1      28.639 -16.808  -2.486  0.00  0.00    -0.336 N 
ATOM      9  C   UNL d   1      29.190 -16.541  -3.730  0.00  0.00     0.089 A 
ATOM     10  S   UNL d   1      30.362 -17.497  -4.585  0.00  0.00    -0.064 SA
ATOM     11  C   UNL d   1      30.407 -16.430  -5.953  0.00  0.00     0.101 A 
ATOM     12  C   UNL d   1      29.530 -15.380  -5.728  0.00  0.00     0.062 A 
ATOM     13  C   UNL d   1      28.826 -15.437  -4.473  0.00  0.00     0.033 A 
ATOM     14  C   UNL d   1      26.263 -13.880  -2.091  0.00  0.00     0.212 C 
ATOM     15  O   UNL d   1      26.180 -12.636  -2.798  0.00  0.00    -0.376 OA
ATOM     16  H   UNL d   1      28.897 -17.657  -1.992  0.00  0.00     0.168 HD
ENDROOT
BRANCH  11  17
ATOM     17  C   UNL d   1      31.230 -16.549  -7.186  0.00  0.00     0.261 C 
ATOM     18  O   UNL d   1      31.499 -15.549  -7.875  0.00  0.00    -0.267 OA
ATOM     19  N   UNL d   1      31.721 -17.768  -7.591  0.00  0.00    -0.354 N 
ATOM     20  H   UNL d   1      31.515 -18.591  -7.047  0.00  0.00     0.162 HD
BRANCH  19  21
ATOM     21  C   UNL d   1      32.554 -17.903  -8.809  0.00  0.00     0.155 C 
BRANCH  21  22
ATOM     22  C   UNL d   1      32.816 -19.372  -9.170  0.00  0.00     0.139 C 
ATOM     23  C   UNL d   1      31.876 -19.845 -10.264  0.00  0.00     0.035 C 
ATOM     24  C   UNL d   1      31.848 -21.334 -10.059  0.00  0.00     0.029 C 
ATOM     25  C   UNL d   1      31.976 -21.468  -8.557  0.00  0.00     0.168 C 
ATOM     26  O   UNL d   1      32.623 -20.276  -8.070  0.00  0.00    -0.384 OA
ENDBRANCH  21  22
ENDBRANCH  19  21
ENDBRANCH  11  17
BRANCH  12  27
ATOM     27  N   UNL d   1      29.366 -14.399  -6.645  0.00  0.00    -0.397 N 
ATOM     28  H   UNL d   1      29.587 -14.558  -7.636  0.00  0.00     0.156 HD
ATOM     29  H   UNL d   1      29.212 -13.416  -6.469  0.00  0.00     0.156 HD
ENDBRANCH  12  27
BRANCH   7  30
ATOM     30  N   UNL d   1      27.087 -16.463  -0.744  0.00  0.00    -0.367 N 
ATOM     31  C   UNL d   1      27.801 -17.253   0.282  0.00  0.00     0.124 C 
ATOM     32  C   UNL d   1      26.912 -18.462   0.560  0.00  0.00     0.021 C 
ATOM     33  C   UNL d   1      25.522 -17.865   0.464  0.00  0.00     0.021 C 
ATOM     34  C   UNL d   1      25.639 -16.769  -0.622  0.00  0.00     0.124 C 
ENDBRANCH   7  30
TORSDOF 5
ENDMDL
