MODEL 1
REMARK VINA RESULT:    -9.119      0.000      0.000
REMARK INTER + INTRA:         -14.899
REMARK INTER:                 -11.804
REMARK INTRA:                  -3.095
REMARK CONF_INDEPENDENT:        2.685
REMARK UNBOUND:                -3.095
REMARK  9 active torsions:
REMARK  status: ('A' for Active; 'I' for Inactive)
REMARK    1  A    between atoms: C_2  and  C_3 
REMARK    2  A    between atoms: C_6  and  N_7 
REMARK       I    between atoms: N_7  and  C_8 
REMARK    3  A    between atoms: C_8  and  C_10 
REMARK       I    between atoms: C_10  and  N_12 
REMARK    4  A    between atoms: N_12  and  N_13 
REMARK    5  A    between atoms: C_14  and  C_15 
REMARK    6  A    between atoms: C_19  and  O_20 
REMARK    7  A    between atoms: O_20  and  C_21 
REMARK    8  A    between atoms: C_21  and  C_22 
REMARK       I    between atoms: C_22  and  N_24 
REMARK    9  A    between atoms: N_24  and  C_25 
ROOT
ATOM      1  C   UNL d   1      28.907 -15.251  -1.903  0.00  0.00    -0.014 A 
ATOM      2  C   UNL d   1      29.520 -16.150  -2.784  0.00  0.00     0.013 A 
ATOM      3  C   UNL d   1      29.342 -15.994  -4.165  0.00  0.00     0.004 A 
ATOM      4  C   UNL d   1      28.515 -14.979  -4.656  0.00  0.00     0.037 A 
ATOM      5  C   UNL d   1      27.877 -14.099  -3.773  0.00  0.00     0.070 A 
ATOM      6  C   UNL d   1      28.066 -14.251  -2.400  0.00  0.00     0.049 A 
ENDROOT
BRANCH   1   7
ATOM      7  C   UNL d   1      29.223 -15.237  -0.447  0.00  0.00     0.150 C 
ATOM      8  N   UNL d   1      28.319 -14.915   0.429  0.00  0.00    -0.183 NA
BRANCH   8   9
ATOM      9  N   UNL d   1      28.675 -14.861   1.758  0.00  0.00    -0.239 N 
ATOM     10  C   UNL d   1      28.010 -13.993   2.636  0.00  0.00     0.329 C 
ATOM     11  O   UNL d   1      27.086 -13.224   2.366  0.00  0.00    -0.261 OA
ATOM     12  H   UNL d   1      29.437 -15.436   2.120  0.00  0.00     0.192 HD
BRANCH  10  13
ATOM     13  C   UNL d   1      28.542 -14.043   4.084  0.00  0.00     0.315 C 
ATOM     14  N   UNL d   1      27.944 -13.172   5.010  0.00  0.00    -0.319 N 
ATOM     15  H   UNL d   1      27.214 -12.560   4.651  0.00  0.00     0.169 HD
ATOM     16  O   UNL d   1      29.457 -14.841   4.284  0.00  0.00    -0.262 OA
BRANCH  14  17
ATOM     17  C   UNL d   1      28.340 -13.011   6.373  0.00  0.00     0.035 A 
ATOM     18  C   UNL d   1      28.905 -14.075   7.099  0.00  0.00     0.030 A 
ATOM     19  C   UNL d   1      29.206 -13.931   8.472  0.00  0.00     0.009 A 
ATOM     20  C   UNL d   1      29.043 -12.696   9.112  0.00  0.00    -0.058 A 
ATOM     21  C   UNL d   1      28.490 -11.643   8.392  0.00  0.00     0.009 A 
ATOM     22  C   UNL d   1      28.156 -11.802   7.048  0.00  0.00     0.030 A 
BRANCH  20  23
ATOM     23  C   UNL d   1      29.625 -12.421  10.476  0.00  0.00     0.034 C 
ATOM     24  C   UNL d   1      28.751 -13.098  11.528  0.00  0.00     0.010 C 
ENDBRANCH  20  23
ENDBRANCH  14  17
ENDBRANCH  10  13
ENDBRANCH   8   9
ENDBRANCH   1   7
BRANCH   5  25
ATOM     25  O   UNL d   1      27.129 -13.111  -4.345  0.00  0.00    -0.342 OA
BRANCH  25  26
ATOM     26  C   UNL d   1      25.702 -13.198  -4.219  0.00  0.00     0.278 C 
BRANCH  26  27
ATOM     27  C   UNL d   1      25.343 -14.576  -3.656  0.00  0.00     0.246 C 
ATOM     28  O   UNL d   1      25.157 -15.542  -4.399  0.00  0.00    -0.271 OA
ATOM     29  N   UNL d   1      25.199 -14.649  -2.268  0.00  0.00    -0.325 N 
ATOM     30  H   UNL d   1      25.147 -13.798  -1.719  0.00  0.00     0.169 HD
BRANCH  29  31
ATOM     31  C   UNL d   1      24.945 -15.881  -1.613  0.00  0.00     0.038 A 
ATOM     32  C   UNL d   1      23.655 -16.419  -1.566  0.00  0.00     0.053 A 
ATOM     33  C   UNL d   1      23.427 -17.602  -0.847  0.00  0.00     0.037 A 
ATOM     34 CL   UNL d   1      21.820 -18.200  -0.668  0.00  0.00    -0.084 Cl
ATOM     35  C   UNL d   1      24.469 -18.278  -0.217  0.00  0.00     0.048 A 
ATOM     36  C   UNL d   1      25.744 -17.731  -0.259  0.00  0.00     0.037 A 
ATOM     37 CL   UNL d   1      27.030 -18.479   0.605  0.00  0.00    -0.084 Cl
ATOM     38  C   UNL d   1      25.981 -16.544  -0.946  0.00  0.00     0.053 A 
ENDBRANCH  29  31
ENDBRANCH  26  27
ENDBRANCH  25  26
ENDBRANCH   5  25
TORSDOF 9
ENDMDL
MODEL 2
REMARK VINA RESULT:    -8.976      0.404      1.571
REMARK INTER + INTRA:         -14.782
REMARK INTER:                 -11.661
REMARK INTRA:                  -3.121
REMARK CONF_INDEPENDENT:        2.685
REMARK UNBOUND:                -3.121
REMARK  9 active torsions:
REMARK  status: ('A' for Active; 'I' for Inactive)
REMARK    1  A    between atoms: C_2  and  C_3 
REMARK    2  A    between atoms: C_6  and  N_7 
REMARK       I    between atoms: N_7  and  C_8 
REMARK    3  A    between atoms: C_8  and  C_10 
REMARK       I    between atoms: C_10  and  N_12 
REMARK    4  A    between atoms: N_12  and  N_13 
REMARK    5  A    between atoms: C_14  and  C_15 
REMARK    6  A    between atoms: C_19  and  O_20 
REMARK    7  A    between atoms: O_20  and  C_21 
REMARK    8  A    between atoms: C_21  and  C_22 
REMARK       I    between atoms: C_22  and  N_24 
REMARK    9  A    between atoms: N_24  and  C_25 
ROOT
ATOM      1  C   UNL d   1      28.965 -15.140  -1.502  0.00  0.00    -0.014 A 
ATOM      2  C   UNL d   1      29.654 -15.944  -2.418  0.00  0.00     0.013 A 
ATOM      3  C   UNL d   1      29.497 -15.716  -3.792  0.00  0.00     0.004 A 
ATOM      4  C   UNL d   1      28.618 -14.726  -4.243  0.00  0.00     0.037 A 
ATOM      5  C   UNL d   1      27.906 -13.943  -3.327  0.00  0.00     0.070 A 
ATOM      6  C   UNL d   1      28.073 -14.166  -1.961  0.00  0.00     0.049 A 
ENDROOT
BRANCH   1   7
ATOM      7  C   UNL d   1      29.247 -15.195  -0.040  0.00  0.00     0.150 C 
ATOM      8  N   UNL d   1      28.359 -14.807   0.826  0.00  0.00    -0.183 NA
BRANCH   8   9
ATOM      9  N   UNL d   1      28.687 -14.824   2.162  0.00  0.00    -0.239 N 
ATOM     10  C   UNL d   1      28.104 -13.905   3.047  0.00  0.00     0.329 C 
ATOM     11  O   UNL d   1      27.279 -13.031   2.777  0.00  0.00    -0.261 OA
ATOM     12  H   UNL d   1      29.371 -15.489   2.526  0.00  0.00     0.192 HD
BRANCH  10  13
ATOM     13  C   UNL d   1      28.593 -14.047   4.504  0.00  0.00     0.315 C 
ATOM     14  N   UNL d   1      28.073 -13.137   5.440  0.00  0.00    -0.319 N 
ATOM     15  H   UNL d   1      27.423 -12.440   5.082  0.00  0.00     0.169 HD
ATOM     16  O   UNL d   1      29.411 -14.945   4.703  0.00  0.00    -0.262 OA
BRANCH  14  17
ATOM     17  C   UNL d   1      28.452 -13.052   6.815  0.00  0.00     0.035 A 
ATOM     18  C   UNL d   1      29.052 -14.139   7.475  0.00  0.00     0.030 A 
ATOM     19  C   UNL d   1      29.337 -14.076   8.857  0.00  0.00     0.009 A 
ATOM     20  C   UNL d   1      29.121 -12.893   9.575  0.00  0.00    -0.058 A 
ATOM     21  C   UNL d   1      28.533 -11.816   8.921  0.00  0.00     0.009 A 
ATOM     22  C   UNL d   1      28.216 -11.898   7.566  0.00  0.00     0.030 A 
BRANCH  20  23
ATOM     23  C   UNL d   1      29.681 -12.688  10.961  0.00  0.00     0.034 C 
ATOM     24  C   UNL d   1      28.527 -12.426  11.924  0.00  0.00     0.010 C 
ENDBRANCH  20  23
ENDBRANCH  14  17
ENDBRANCH  10  13
ENDBRANCH   8   9
ENDBRANCH   1   7
BRANCH   5  25
ATOM     25  O   UNL d   1      27.109 -12.970  -3.859  0.00  0.00    -0.342 OA
BRANCH  25  26
ATOM     26  C   UNL d   1      25.773 -13.335  -4.234  0.00  0.00     0.278 C 
BRANCH  26  27
ATOM     27  C   UNL d   1      25.431 -14.680  -3.586  0.00  0.00     0.246 C 
ATOM     28  O   UNL d   1      25.340 -15.709  -4.258  0.00  0.00    -0.271 OA
ATOM     29  N   UNL d   1      25.191 -14.650  -2.210  0.00  0.00    -0.325 N 
ATOM     30  H   UNL d   1      25.064 -13.761  -1.737  0.00  0.00     0.169 HD
BRANCH  29  31
ATOM     31  C   UNL d   1      24.941 -15.837  -1.474  0.00  0.00     0.038 A 
ATOM     32  C   UNL d   1      25.969 -16.488  -0.787  0.00  0.00     0.053 A 
ATOM     33  C   UNL d   1      25.701 -17.699  -0.129  0.00  0.00     0.037 A 
ATOM     34 CL   UNL d   1      26.988 -18.579   0.605  0.00  0.00    -0.084 Cl
ATOM     35  C   UNL d   1      24.418 -18.241  -0.109  0.00  0.00     0.048 A 
ATOM     36  C   UNL d   1      23.406 -17.594  -0.804  0.00  0.00     0.037 A 
ATOM     37 CL   UNL d   1      21.839 -18.298  -0.895  0.00  0.00    -0.084 Cl
ATOM     38  C   UNL d   1      23.662 -16.406  -1.482  0.00  0.00     0.053 A 
ENDBRANCH  29  31
ENDBRANCH  26  27
ENDBRANCH  25  26
ENDBRANCH   5  25
TORSDOF 9
ENDMDL
MODEL 3
REMARK VINA RESULT:    -8.789      1.234      2.127
REMARK INTER + INTRA:         -14.557
REMARK INTER:                 -11.474
REMARK INTRA:                  -3.084
REMARK CONF_INDEPENDENT:        2.685
REMARK UNBOUND:                -3.084
REMARK  9 active torsions:
REMARK  status: ('A' for Active; 'I' for Inactive)
REMARK    1  A    between atoms: C_2  and  C_3 
REMARK    2  A    between atoms: C_6  and  N_7 
REMARK       I    between atoms: N_7  and  C_8 
REMARK    3  A    between atoms: C_8  and  C_10 
REMARK       I    between atoms: C_10  and  N_12 
REMARK    4  A    between atoms: N_12  and  N_13 
REMARK    5  A    between atoms: C_14  and  C_15 
REMARK    6  A    between atoms: C_19  and  O_20 
REMARK    7  A    between atoms: O_20  and  C_21 
REMARK    8  A    between atoms: C_21  and  C_22 
REMARK       I    between atoms: C_22  and  N_24 
REMARK    9  A    between atoms: N_24  and  C_25 
ROOT
ATOM      1  C   UNL d   1      28.493 -13.238  -1.207  0.00  0.00    -0.014 A 
ATOM      2  C   UNL d   1      29.598 -13.117  -2.057  0.00  0.00     0.013 A 
ATOM      3  C   UNL d   1      29.405 -12.721  -3.388  0.00  0.00     0.004 A 
ATOM      4  C   UNL d   1      28.113 -12.501  -3.875  0.00  0.00     0.037 A 
ATOM      5  C   UNL d   1      27.006 -12.652  -3.031  0.00  0.00     0.070 A 
ATOM      6  C   UNL d   1      27.203 -13.035  -1.705  0.00  0.00     0.049 A 
ENDROOT
BRANCH   1   7
ATOM      7  C   UNL d   1      28.649 -13.450   0.260  0.00  0.00     0.150 C 
ATOM      8  N   UNL d   1      28.326 -14.583   0.808  0.00  0.00    -0.183 NA
BRANCH   8   9
ATOM      9  N   UNL d   1      28.435 -14.712   2.174  0.00  0.00    -0.239 N 
ATOM     10  C   UNL d   1      28.024 -13.671   3.019  0.00  0.00     0.329 C 
ATOM     11  O   UNL d   1      27.541 -12.587   2.686  0.00  0.00    -0.261 OA
ATOM     12  H   UNL d   1      28.833 -15.555   2.592  0.00  0.00     0.192 HD
BRANCH  10  13
ATOM     13  C   UNL d   1      28.230 -13.968   4.520  0.00  0.00     0.315 C 
ATOM     14  N   UNL d   1      28.171 -12.872   5.397  0.00  0.00    -0.319 N 
ATOM     15  H   UNL d   1      28.013 -11.960   4.974  0.00  0.00     0.169 HD
ATOM     16  O   UNL d   1      28.441 -15.147   4.802  0.00  0.00    -0.262 OA
BRANCH  14  17
ATOM     17  C   UNL d   1      28.408 -12.923   6.806  0.00  0.00     0.035 A 
ATOM     18  C   UNL d   1      28.178 -11.804   7.625  0.00  0.00     0.030 A 
ATOM     19  C   UNL d   1      28.505 -11.837   9.000  0.00  0.00     0.009 A 
ATOM     20  C   UNL d   1      28.968 -13.017   9.593  0.00  0.00    -0.058 A 
ATOM     21  C   UNL d   1      29.190 -14.126   8.783  0.00  0.00     0.009 A 
ATOM     22  C   UNL d   1      28.905 -14.075   7.420  0.00  0.00     0.030 A 
BRANCH  20  23
ATOM     23  C   UNL d   1      29.043 -13.181  11.091  0.00  0.00     0.034 C 
ATOM     24  C   UNL d   1      28.396 -14.508  11.473  0.00  0.00     0.010 C 
ENDBRANCH  20  23
ENDBRANCH  14  17
ENDBRANCH  10  13
ENDBRANCH   8   9
ENDBRANCH   1   7
BRANCH   5  25
ATOM     25  O   UNL d   1      25.789 -12.368  -3.580  0.00  0.00    -0.342 OA
BRANCH  25  26
ATOM     26  C   UNL d   1      25.199 -13.354  -4.440  0.00  0.00     0.278 C 
BRANCH  26  27
ATOM     27  C   UNL d   1      25.188 -14.700  -3.707  0.00  0.00     0.246 C 
ATOM     28  O   UNL d   1      25.530 -15.739  -4.275  0.00  0.00    -0.271 OA
ATOM     29  N   UNL d   1      24.730 -14.672  -2.388  0.00  0.00    -0.325 N 
ATOM     30  H   UNL d   1      24.260 -13.846  -2.033  0.00  0.00     0.169 HD
BRANCH  29  31
ATOM     31  C   UNL d   1      24.742 -15.834  -1.574  0.00  0.00     0.038 A 
ATOM     32  C   UNL d   1      25.938 -16.332  -1.048  0.00  0.00     0.053 A 
ATOM     33  C   UNL d   1      25.922 -17.524  -0.307  0.00  0.00     0.037 A 
ATOM     34 CL   UNL d   1      27.405 -18.219   0.230  0.00  0.00    -0.084 Cl
ATOM     35  C   UNL d   1      24.731 -18.196  -0.044  0.00  0.00     0.048 A 
ATOM     36  C   UNL d   1      23.550 -17.701  -0.580  0.00  0.00     0.037 A 
ATOM     37 CL   UNL d   1      22.080 -18.569  -0.373  0.00  0.00    -0.084 Cl
ATOM     38  C   UNL d   1      23.553 -16.533  -1.339  0.00  0.00     0.053 A 
ENDBRANCH  29  31
ENDBRANCH  26  27
ENDBRANCH  25  26
ENDBRANCH   5  25
TORSDOF 9
ENDMDL
MODEL 4
REMARK VINA RESULT:    -8.605      1.373      1.689
REMARK INTER + INTRA:         -14.637
REMARK INTER:                 -11.290
REMARK INTRA:                  -3.348
REMARK CONF_INDEPENDENT:        2.685
REMARK UNBOUND:                -3.348
REMARK  9 active torsions:
REMARK  status: ('A' for Active; 'I' for Inactive)
REMARK    1  A    between atoms: C_2  and  C_3 
REMARK    2  A    between atoms: C_6  and  N_7 
REMARK       I    between atoms: N_7  and  C_8 
REMARK    3  A    between atoms: C_8  and  C_10 
REMARK       I    between atoms: C_10  and  N_12 
REMARK    4  A    between atoms: N_12  and  N_13 
REMARK    5  A    between atoms: C_14  and  C_15 
REMARK    6  A    between atoms: C_19  and  O_20 
REMARK    7  A    between atoms: O_20  and  C_21 
REMARK    8  A    between atoms: C_21  and  C_22 
REMARK       I    between atoms: C_22  and  N_24 
REMARK    9  A    between atoms: N_24  and  C_25 
ROOT
ATOM      1  C   UNL d   1      28.866 -13.430  -0.647  0.00  0.00    -0.014 A 
ATOM      2  C   UNL d   1      30.024 -13.232  -1.407  0.00  0.00     0.013 A 
ATOM      3  C   UNL d   1      29.916 -12.758  -2.722  0.00  0.00     0.004 A 
ATOM      4  C   UNL d   1      28.656 -12.535  -3.285  0.00  0.00     0.037 A 
ATOM      5  C   UNL d   1      27.496 -12.764  -2.535  0.00  0.00     0.070 A 
ATOM      6  C   UNL d   1      27.609 -13.225  -1.224  0.00  0.00     0.049 A 
ENDROOT
BRANCH   1   7
ATOM      7  C   UNL d   1      28.923 -13.731   0.811  0.00  0.00     0.150 C 
ATOM      8  N   UNL d   1      28.026 -14.485   1.373  0.00  0.00    -0.183 NA
BRANCH   8   9
ATOM      9  N   UNL d   1      28.090 -14.687   2.733  0.00  0.00    -0.239 N 
ATOM     10  C   UNL d   1      28.026 -13.599   3.616  0.00  0.00     0.329 C 
ATOM     11  O   UNL d   1      27.908 -12.407   3.323  0.00  0.00    -0.261 OA
ATOM     12  H   UNL d   1      28.203 -15.626   3.119  0.00  0.00     0.192 HD
BRANCH  10  13
ATOM     13  C   UNL d   1      28.130 -13.996   5.103  0.00  0.00     0.315 C 
ATOM     14  N   UNL d   1      28.265 -12.950   6.032  0.00  0.00    -0.319 N 
ATOM     15  H   UNL d   1      28.302 -12.007   5.650  0.00  0.00     0.169 HD
ATOM     16  O   UNL d   1      28.096 -15.205   5.332  0.00  0.00    -0.262 OA
BRANCH  14  17
ATOM     17  C   UNL d   1      28.451 -13.108   7.440  0.00  0.00     0.035 A 
ATOM     18  C   UNL d   1      28.159 -12.065   8.336  0.00  0.00     0.030 A 
ATOM     19  C   UNL d   1      28.434 -12.201   9.715  0.00  0.00     0.009 A 
ATOM     20  C   UNL d   1      28.908 -13.413  10.231  0.00  0.00    -0.058 A 
ATOM     21  C   UNL d   1      29.191 -14.447   9.345  0.00  0.00     0.009 A 
ATOM     22  C   UNL d   1      28.956 -14.293   7.979  0.00  0.00     0.030 A 
BRANCH  20  23
ATOM     23  C   UNL d   1      28.930 -13.696  11.713  0.00  0.00     0.034 C 
ATOM     24  C   UNL d   1      29.819 -14.909  11.968  0.00  0.00     0.010 C 
ENDBRANCH  20  23
ENDBRANCH  14  17
ENDBRANCH  10  13
ENDBRANCH   8   9
ENDBRANCH   1   7
BRANCH   5  25
ATOM     25  O   UNL d   1      26.314 -12.473  -3.152  0.00  0.00    -0.342 OA
BRANCH  25  26
ATOM     26  C   UNL d   1      25.899 -13.322  -4.232  0.00  0.00     0.278 C 
BRANCH  26  27
ATOM     27  C   UNL d   1      25.531 -14.695  -3.661  0.00  0.00     0.246 C 
ATOM     28  O   UNL d   1      25.442 -15.686  -4.388  0.00  0.00    -0.271 OA
ATOM     29  N   UNL d   1      25.264 -14.735  -2.291  0.00  0.00    -0.325 N 
ATOM     30  H   UNL d   1      25.137 -13.871  -1.775  0.00  0.00     0.169 HD
BRANCH  29  31
ATOM     31  C   UNL d   1      24.987 -15.956  -1.624  0.00  0.00     0.038 A 
ATOM     32  C   UNL d   1      23.687 -16.466  -1.565  0.00  0.00     0.053 A 
ATOM     33  C   UNL d   1      23.438 -17.639  -0.836  0.00  0.00     0.037 A 
ATOM     34 CL   UNL d   1      21.820 -18.201  -0.643  0.00  0.00    -0.084 Cl
ATOM     35  C   UNL d   1      24.469 -18.331  -0.206  0.00  0.00     0.048 A 
ATOM     36  C   UNL d   1      25.755 -17.811  -0.259  0.00  0.00     0.037 A 
ATOM     37 CL   UNL d   1      27.030 -18.579   0.604  0.00  0.00    -0.084 Cl
ATOM     38  C   UNL d   1      26.014 -16.635  -0.958  0.00  0.00     0.053 A 
ENDBRANCH  29  31
ENDBRANCH  26  27
ENDBRANCH  25  26
ENDBRANCH   5  25
TORSDOF 9
ENDMDL
MODEL 5
REMARK VINA RESULT:    -8.412      5.258      5.808
REMARK INTER + INTRA:         -14.035
REMARK INTER:                 -11.097
REMARK INTRA:                  -2.939
REMARK CONF_INDEPENDENT:        2.685
REMARK UNBOUND:                -2.939
REMARK  9 active torsions:
REMARK  status: ('A' for Active; 'I' for Inactive)
REMARK    1  A    between atoms: C_2  and  C_3 
REMARK    2  A    between atoms: C_6  and  N_7 
REMARK       I    between atoms: N_7  and  C_8 
REMARK    3  A    between atoms: C_8  and  C_10 
REMARK       I    between atoms: C_10  and  N_12 
REMARK    4  A    between atoms: N_12  and  N_13 
REMARK    5  A    between atoms: C_14  and  C_15 
REMARK    6  A    between atoms: C_19  and  O_20 
REMARK    7  A    between atoms: O_20  and  C_21 
REMARK    8  A    between atoms: C_21  and  C_22 
REMARK       I    between atoms: C_22  and  N_24 
REMARK    9  A    between atoms: N_24  and  C_25 
ROOT
ATOM      1  C   UNL d   1      29.585 -16.040  -2.931  0.00  0.00    -0.014 A 
ATOM      2  C   UNL d   1      29.803 -16.647  -4.173  0.00  0.00     0.013 A 
ATOM      3  C   UNL d   1      29.280 -16.057  -5.332  0.00  0.00     0.004 A 
ATOM      4  C   UNL d   1      28.500 -14.900  -5.240  0.00  0.00     0.037 A 
ATOM      5  C   UNL d   1      28.256 -14.311  -3.994  0.00  0.00     0.070 A 
ATOM      6  C   UNL d   1      28.788 -14.895  -2.845  0.00  0.00     0.049 A 
ENDROOT
BRANCH   1   7
ATOM      7  C   UNL d   1      30.283 -16.499  -1.697  0.00  0.00     0.150 C 
ATOM      8  N   UNL d   1      31.445 -17.077  -1.765  0.00  0.00    -0.183 NA
BRANCH   8   9
ATOM      9  N   UNL d   1      32.024 -17.534  -0.603  0.00  0.00    -0.239 N 
ATOM     10  C   UNL d   1      31.734 -18.820  -0.124  0.00  0.00     0.329 C 
ATOM     11  O   UNL d   1      30.987 -19.656  -0.637  0.00  0.00    -0.261 OA
ATOM     12  H   UNL d   1      32.656 -16.940  -0.063  0.00  0.00     0.192 HD
BRANCH  10  13
ATOM     13  C   UNL d   1      32.450 -19.170   1.198  0.00  0.00     0.315 C 
ATOM     14  N   UNL d   1      31.905 -20.218   1.957  0.00  0.00    -0.319 N 
ATOM     15  H   UNL d   1      31.066 -20.659   1.586  0.00  0.00     0.169 HD
ATOM     16  O   UNL d   1      33.432 -18.478   1.466  0.00  0.00    -0.262 OA
BRANCH  14  17
ATOM     17  C   UNL d   1      32.371 -20.645   3.239  0.00  0.00     0.035 A 
ATOM     18  C   UNL d   1      33.730 -20.928   3.464  0.00  0.00     0.030 A 
ATOM     19  C   UNL d   1      34.165 -21.438   4.708  0.00  0.00     0.009 A 
ATOM     20  C   UNL d   1      33.267 -21.575   5.774  0.00  0.00    -0.058 A 
ATOM     21  C   UNL d   1      31.924 -21.289   5.553  0.00  0.00     0.009 A 
ATOM     22  C   UNL d   1      31.494 -20.825   4.311  0.00  0.00     0.030 A 
BRANCH  20  23
ATOM     23  C   UNL d   1      33.737 -21.827   7.185  0.00  0.00     0.034 C 
ATOM     24  C   UNL d   1      34.721 -22.992   7.175  0.00  0.00     0.010 C 
ENDBRANCH  20  23
ENDBRANCH  14  17
ENDBRANCH  10  13
ENDBRANCH   8   9
ENDBRANCH   1   7
BRANCH   5  25
ATOM     25  O   UNL d   1      27.526 -13.157  -4.007  0.00  0.00    -0.342 OA
BRANCH  25  26
ATOM     26  C   UNL d   1      26.123 -13.260  -4.290  0.00  0.00     0.278 C 
BRANCH  26  27
ATOM     27  C   UNL d   1      25.602 -14.582  -3.715  0.00  0.00     0.246 C 
ATOM     28  O   UNL d   1      25.161 -15.468  -4.449  0.00  0.00    -0.271 OA
ATOM     29  N   UNL d   1      25.622 -14.691  -2.323  0.00  0.00    -0.325 N 
ATOM     30  H   UNL d   1      25.787 -13.868  -1.753  0.00  0.00     0.169 HD
BRANCH  29  31
ATOM     31  C   UNL d   1      25.241 -15.890  -1.667  0.00  0.00     0.038 A 
ATOM     32  C   UNL d   1      23.906 -16.305  -1.645  0.00  0.00     0.053 A 
ATOM     33  C   UNL d   1      23.554 -17.458  -0.926  0.00  0.00     0.037 A 
ATOM     34 CL   UNL d   1      21.896 -17.904  -0.778  0.00  0.00    -0.084 Cl
ATOM     35  C   UNL d   1      24.516 -18.224  -0.272  0.00  0.00     0.048 A 
ATOM     36  C   UNL d   1      25.837 -17.797  -0.289  0.00  0.00     0.037 A 
ATOM     37 CL   UNL d   1      27.030 -18.656   0.605  0.00  0.00    -0.084 Cl
ATOM     38  C   UNL d   1      26.198 -16.642  -0.977  0.00  0.00     0.053 A 
ENDBRANCH  29  31
ENDBRANCH  26  27
ENDBRANCH  25  26
ENDBRANCH   5  25
TORSDOF 9
ENDMDL
MODEL 6
REMARK VINA RESULT:    -8.113      1.577      2.565
REMARK INTER + INTRA:         -13.726
REMARK INTER:                 -10.798
REMARK INTRA:                  -2.927
REMARK CONF_INDEPENDENT:        2.685
REMARK UNBOUND:                -2.927
REMARK  9 active torsions:
REMARK  status: ('A' for Active; 'I' for Inactive)
REMARK    1  A    between atoms: C_2  and  C_3 
REMARK    2  A    between atoms: C_6  and  N_7 
REMARK       I    between atoms: N_7  and  C_8 
REMARK    3  A    between atoms: C_8  and  C_10 
REMARK       I    between atoms: C_10  and  N_12 
REMARK    4  A    between atoms: N_12  and  N_13 
REMARK    5  A    between atoms: C_14  and  C_15 
REMARK    6  A    between atoms: C_19  and  O_20 
REMARK    7  A    between atoms: O_20  and  C_21 
REMARK    8  A    between atoms: C_21  and  C_22 
REMARK       I    between atoms: C_22  and  N_24 
REMARK    9  A    between atoms: N_24  and  C_25 
ROOT
ATOM      1  C   UNL d   1      30.409 -15.744  -3.281  0.00  0.00    -0.014 A 
ATOM      2  C   UNL d   1      31.470 -16.376  -3.940  0.00  0.00     0.013 A 
ATOM      3  C   UNL d   1      31.378 -16.624  -5.317  0.00  0.00     0.004 A 
ATOM      4  C   UNL d   1      30.213 -16.290  -6.014  0.00  0.00     0.037 A 
ATOM      5  C   UNL d   1      29.140 -15.687  -5.347  0.00  0.00     0.070 A 
ATOM      6  C   UNL d   1      29.240 -15.432  -3.980  0.00  0.00     0.049 A 
ENDROOT
BRANCH   1   7
ATOM      7  C   UNL d   1      30.529 -15.269  -1.873  0.00  0.00     0.150 C 
ATOM      8  N   UNL d   1      29.508 -14.759  -1.252  0.00  0.00    -0.183 NA
BRANCH   8   9
ATOM      9  N   UNL d   1      29.684 -14.282   0.027  0.00  0.00    -0.239 N 
ATOM     10  C   UNL d   1      28.970 -14.842   1.097  0.00  0.00     0.329 C 
ATOM     11  O   UNL d   1      28.158 -15.768   1.048  0.00  0.00    -0.261 OA
ATOM     12  H   UNL d   1      30.318 -13.504   0.214  0.00  0.00     0.192 HD
BRANCH  10  13
ATOM     13  C   UNL d   1      29.269 -14.182   2.459  0.00  0.00     0.315 C 
ATOM     14  N   UNL d   1      28.617 -14.719   3.582  0.00  0.00    -0.319 N 
ATOM     15  H   UNL d   1      27.982 -15.496   3.409  0.00  0.00     0.169 HD
ATOM     16  O   UNL d   1      30.048 -13.229   2.426  0.00  0.00    -0.262 OA
BRANCH  14  17
ATOM     17  C   UNL d   1      28.700 -14.208   4.914  0.00  0.00     0.035 A 
ATOM     18  C   UNL d   1      27.773 -13.264   5.391  0.00  0.00     0.030 A 
ATOM     19  C   UNL d   1      27.920 -12.696   6.677  0.00  0.00     0.009 A 
ATOM     20  C   UNL d   1      28.931 -13.137   7.539  0.00  0.00    -0.058 A 
ATOM     21  C   UNL d   1      29.843 -14.074   7.069  0.00  0.00     0.009 A 
ATOM     22  C   UNL d   1      29.718 -14.602   5.784  0.00  0.00     0.030 A 
BRANCH  20  23
ATOM     23  C   UNL d   1      28.941 -12.780   9.005  0.00  0.00     0.034 C 
ATOM     24  C   UNL d   1      29.755 -11.505   9.195  0.00  0.00     0.010 C 
ENDBRANCH  20  23
ENDBRANCH  14  17
ENDBRANCH  10  13
ENDBRANCH   8   9
ENDBRANCH   1   7
BRANCH   5  25
ATOM     25  O   UNL d   1      28.064 -15.353  -6.118  0.00  0.00    -0.342 OA
BRANCH  25  26
ATOM     26  C   UNL d   1      27.101 -14.447  -5.562  0.00  0.00     0.278 C 
BRANCH  26  27
ATOM     27  C   UNL d   1      26.257 -15.201  -4.529  0.00  0.00     0.246 C 
ATOM     28  O   UNL d   1      25.244 -15.820  -4.861  0.00  0.00    -0.271 OA
ATOM     29  N   UNL d   1      26.684 -15.103  -3.203  0.00  0.00    -0.325 N 
ATOM     30  H   UNL d   1      27.385 -14.416  -2.947  0.00  0.00     0.169 HD
BRANCH  29  31
ATOM     31  C   UNL d   1      26.038 -15.816  -2.161  0.00  0.00     0.038 A 
ATOM     32  C   UNL d   1      26.756 -16.673  -1.322  0.00  0.00     0.053 A 
ATOM     33  C   UNL d   1      26.074 -17.417  -0.348  0.00  0.00     0.037 A 
ATOM     34 CL   UNL d   1      26.927 -18.577   0.600  0.00  0.00    -0.084 Cl
ATOM     35  C   UNL d   1      24.699 -17.284  -0.168  0.00  0.00     0.048 A 
ATOM     36  C   UNL d   1      23.991 -16.440  -1.013  0.00  0.00     0.037 A 
ATOM     37 CL   UNL d   1      22.278 -16.342  -0.894  0.00  0.00    -0.084 Cl
ATOM     38  C   UNL d   1      24.652 -15.714  -2.001  0.00  0.00     0.053 A 
ENDBRANCH  29  31
ENDBRANCH  26  27
ENDBRANCH  25  26
ENDBRANCH   5  25
TORSDOF 9
ENDMDL
MODEL 7
REMARK VINA RESULT:    -8.023      5.561      8.700
REMARK INTER + INTRA:         -13.769
REMARK INTER:                 -10.708
REMARK INTRA:                  -3.061
REMARK CONF_INDEPENDENT:        2.685
REMARK UNBOUND:                -3.061
REMARK  9 active torsions:
REMARK  status: ('A' for Active; 'I' for Inactive)
REMARK    1  A    between atoms: C_2  and  C_3 
REMARK    2  A    between atoms: C_6  and  N_7 
REMARK       I    between atoms: N_7  and  C_8 
REMARK    3  A    between atoms: C_8  and  C_10 
REMARK       I    between atoms: C_10  and  N_12 
REMARK    4  A    between atoms: N_12  and  N_13 
REMARK    5  A    between atoms: C_14  and  C_15 
REMARK    6  A    between atoms: C_19  and  O_20 
REMARK    7  A    between atoms: O_20  and  C_21 
REMARK    8  A    between atoms: C_21  and  C_22 
REMARK       I    between atoms: C_22  and  N_24 
REMARK    9  A    between atoms: N_24  and  C_25 
ROOT
ATOM      1  C   UNL d   1      29.679 -15.072  -0.934  0.00  0.00    -0.014 A 
ATOM      2  C   UNL d   1      30.632 -14.431  -0.133  0.00  0.00     0.013 A 
ATOM      3  C   UNL d   1      31.577 -13.584  -0.728  0.00  0.00     0.004 A 
ATOM      4  C   UNL d   1      31.600 -13.423  -2.117  0.00  0.00     0.037 A 
ATOM      5  C   UNL d   1      30.666 -14.090  -2.920  0.00  0.00     0.070 A 
ATOM      6  C   UNL d   1      29.720 -14.923  -2.323  0.00  0.00     0.049 A 
ENDROOT
BRANCH   1   7
ATOM      7  C   UNL d   1      28.529 -15.814  -0.345  0.00  0.00     0.150 C 
ATOM      8  N   UNL d   1      27.657 -16.406  -1.106  0.00  0.00    -0.183 NA
BRANCH   8   9
ATOM      9  N   UNL d   1      26.581 -17.030  -0.517  0.00  0.00    -0.239 N 
ATOM     10  C   UNL d   1      25.335 -17.054  -1.161  0.00  0.00     0.329 C 
ATOM     11  O   UNL d   1      25.053 -16.567  -2.257  0.00  0.00    -0.261 OA
ATOM     12  H   UNL d   1      26.667 -17.466   0.403  0.00  0.00     0.192 HD
BRANCH  10  13
ATOM     13  C   UNL d   1      24.233 -17.777  -0.358  0.00  0.00     0.315 C 
ATOM     14  N   UNL d   1      23.051 -18.094  -1.048  0.00  0.00    -0.319 N 
ATOM     15  H   UNL d   1      23.003 -17.807  -2.023  0.00  0.00     0.169 HD
ATOM     16  O   UNL d   1      24.496 -17.995   0.824  0.00  0.00    -0.262 OA
BRANCH  14  17
ATOM     17  C   UNL d   1      21.888 -18.691  -0.470  0.00  0.00     0.035 A 
ATOM     18  C   UNL d   1      20.839 -19.172  -1.274  0.00  0.00     0.030 A 
ATOM     19  C   UNL d   1      19.655 -19.675  -0.690  0.00  0.00     0.009 A 
ATOM     20  C   UNL d   1      19.543 -19.799   0.700  0.00  0.00    -0.058 A 
ATOM     21  C   UNL d   1      20.583 -19.328   1.495  0.00  0.00     0.009 A 
ATOM     22  C   UNL d   1      21.733 -18.795   0.914  0.00  0.00     0.030 A 
BRANCH  20  23
ATOM     23  C   UNL d   1      18.436 -20.596   1.344  0.00  0.00     0.034 C 
ATOM     24  C   UNL d   1      17.653 -21.319   0.253  0.00  0.00     0.010 C 
ENDBRANCH  20  23
ENDBRANCH  14  17
ENDBRANCH  10  13
ENDBRANCH   8   9
ENDBRANCH   1   7
BRANCH   5  25
ATOM     25  O   UNL d   1      30.734 -13.834  -4.259  0.00  0.00    -0.342 OA
BRANCH  25  26
ATOM     26  C   UNL d   1      29.545 -14.035  -5.037  0.00  0.00     0.278 C 
BRANCH  26  27
ATOM     27  C   UNL d   1      29.509 -15.491  -5.512  0.00  0.00     0.246 C 
ATOM     28  O   UNL d   1      28.529 -15.946  -6.103  0.00  0.00    -0.271 OA
ATOM     29  N   UNL d   1      30.628 -16.264  -5.193  0.00  0.00    -0.325 N 
ATOM     30  H   UNL d   1      31.309 -15.918  -4.526  0.00  0.00     0.169 HD
BRANCH  29  31
ATOM     31  C   UNL d   1      30.756 -17.604  -5.640  0.00  0.00     0.038 A 
ATOM     32  C   UNL d   1      30.805 -17.906  -7.004  0.00  0.00     0.053 A 
ATOM     33  C   UNL d   1      30.859 -19.248  -7.412  0.00  0.00     0.037 A 
ATOM     34 CL   UNL d   1      30.783 -19.638  -9.089  0.00  0.00    -0.084 Cl
ATOM     35  C   UNL d   1      30.911 -20.285  -6.483  0.00  0.00     0.048 A 
ATOM     36  C   UNL d   1      30.849 -19.976  -5.131  0.00  0.00     0.037 A 
ATOM     37 CL   UNL d   1      30.794 -21.237  -3.962  0.00  0.00    -0.084 Cl
ATOM     38  C   UNL d   1      30.770 -18.651  -4.712  0.00  0.00     0.053 A 
ENDBRANCH  29  31
ENDBRANCH  26  27
ENDBRANCH  25  26
ENDBRANCH   5  25
TORSDOF 9
ENDMDL
MODEL 8
REMARK VINA RESULT:    -7.910      2.986      4.836
REMARK INTER + INTRA:         -13.562
REMARK INTER:                 -10.595
REMARK INTRA:                  -2.967
REMARK CONF_INDEPENDENT:        2.685
REMARK UNBOUND:                -2.967
REMARK  9 active torsions:
REMARK  status: ('A' for Active; 'I' for Inactive)
REMARK    1  A    between atoms: C_2  and  C_3 
REMARK    2  A    between atoms: C_6  and  N_7 
REMARK       I    between atoms: N_7  and  C_8 
REMARK    3  A    between atoms: C_8  and  C_10 
REMARK       I    between atoms: C_10  and  N_12 
REMARK    4  A    between atoms: N_12  and  N_13 
REMARK    5  A    between atoms: C_14  and  C_15 
REMARK    6  A    between atoms: C_19  and  O_20 
REMARK    7  A    between atoms: O_20  and  C_21 
REMARK    8  A    between atoms: C_21  and  C_22 
REMARK       I    between atoms: C_22  and  N_24 
REMARK    9  A    between atoms: N_24  and  C_25 
ROOT
ATOM      1  C   UNL d   1      26.677 -15.487  -0.145  0.00  0.00    -0.014 A 
ATOM      2  C   UNL d   1      25.680 -16.375  -0.565  0.00  0.00     0.013 A 
ATOM      3  C   UNL d   1      25.170 -16.276  -1.866  0.00  0.00     0.004 A 
ATOM      4  C   UNL d   1      25.617 -15.264  -2.720  0.00  0.00     0.037 A 
ATOM      5  C   UNL d   1      26.592 -14.356  -2.289  0.00  0.00     0.070 A 
ATOM      6  C   UNL d   1      27.105 -14.465  -0.997  0.00  0.00     0.049 A 
ENDROOT
BRANCH   1   7
ATOM      7  C   UNL d   1      27.402 -15.669   1.144  0.00  0.00     0.150 C 
ATOM      8  N   UNL d   1      27.492 -14.698   2.003  0.00  0.00    -0.183 NA
BRANCH   8   9
ATOM      9  N   UNL d   1      28.220 -14.898   3.154  0.00  0.00    -0.239 N 
ATOM     10  C   UNL d   1      27.919 -14.177   4.318  0.00  0.00     0.329 C 
ATOM     11  O   UNL d   1      27.030 -13.336   4.465  0.00  0.00    -0.261 OA
ATOM     12  H   UNL d   1      29.000 -15.558   3.172  0.00  0.00     0.192 HD
BRANCH  10  13
ATOM     13  C   UNL d   1      28.841 -14.506   5.511  0.00  0.00     0.315 C 
ATOM     14  N   UNL d   1      28.573 -13.845   6.721  0.00  0.00    -0.319 N 
ATOM     15  H   UNL d   1      27.799 -13.183   6.716  0.00  0.00     0.169 HD
ATOM     16  O   UNL d   1      29.738 -15.316   5.279  0.00  0.00    -0.262 OA
BRANCH  14  17
ATOM     17  C   UNL d   1      29.350 -13.953   7.916  0.00  0.00     0.035 A 
ATOM     18  C   UNL d   1      28.744 -13.932   9.185  0.00  0.00     0.030 A 
ATOM     19  C   UNL d   1      29.529 -13.945  10.359  0.00  0.00     0.009 A 
ATOM     20  C   UNL d   1      30.921 -14.083  10.284  0.00  0.00    -0.058 A 
ATOM     21  C   UNL d   1      31.519 -14.110   9.029  0.00  0.00     0.009 A 
ATOM     22  C   UNL d   1      30.742 -14.055   7.873  0.00  0.00     0.030 A 
BRANCH  20  23
ATOM     23  C   UNL d   1      31.758 -14.399  11.499  0.00  0.00     0.034 C 
ATOM     24  C   UNL d   1      31.863 -15.914  11.643  0.00  0.00     0.010 C 
ENDBRANCH  20  23
ENDBRANCH  14  17
ENDBRANCH  10  13
ENDBRANCH   8   9
ENDBRANCH   1   7
BRANCH   5  25
ATOM     25  O   UNL d   1      27.001 -13.432  -3.208  0.00  0.00    -0.342 OA
BRANCH  25  26
ATOM     26  C   UNL d   1      26.540 -13.585  -4.557  0.00  0.00     0.278 C 
BRANCH  26  27
ATOM     27  C   UNL d   1      27.412 -14.631  -5.259  0.00  0.00     0.246 C 
ATOM     28  O   UNL d   1      26.955 -15.353  -6.146  0.00  0.00    -0.271 OA
ATOM     29  N   UNL d   1      28.726 -14.737  -4.797  0.00  0.00    -0.325 N 
ATOM     30  H   UNL d   1      28.997 -14.284  -3.931  0.00  0.00     0.169 HD
BRANCH  29  31
ATOM     31  C   UNL d   1      29.660 -15.611  -5.412  0.00  0.00     0.038 A 
ATOM     32  C   UNL d   1      30.549 -15.146  -6.385  0.00  0.00     0.053 A 
ATOM     33  C   UNL d   1      31.410 -16.052  -7.023  0.00  0.00     0.037 A 
ATOM     34 CL   UNL d   1      32.413 -15.516  -8.318  0.00  0.00    -0.084 Cl
ATOM     35  C   UNL d   1      31.428 -17.400  -6.673  0.00  0.00     0.048 A 
ATOM     36  C   UNL d   1      30.533 -17.856  -5.715  0.00  0.00     0.037 A 
ATOM     37 CL   UNL d   1      30.450 -19.534  -5.344  0.00  0.00    -0.084 Cl
ATOM     38  C   UNL d   1      29.656 -16.973  -5.091  0.00  0.00     0.053 A 
ENDBRANCH  29  31
ENDBRANCH  26  27
ENDBRANCH  25  26
ENDBRANCH   5  25
TORSDOF 9
ENDMDL
MODEL 9
REMARK VINA RESULT:    -7.748      2.244      3.191
REMARK INTER + INTRA:         -13.616
REMARK INTER:                 -10.433
REMARK INTRA:                  -3.184
REMARK CONF_INDEPENDENT:        2.685
REMARK UNBOUND:                -3.184
REMARK  9 active torsions:
REMARK  status: ('A' for Active; 'I' for Inactive)
REMARK    1  A    between atoms: C_2  and  C_3 
REMARK    2  A    between atoms: C_6  and  N_7 
REMARK       I    between atoms: N_7  and  C_8 
REMARK    3  A    between atoms: C_8  and  C_10 
REMARK       I    between atoms: C_10  and  N_12 
REMARK    4  A    between atoms: N_12  and  N_13 
REMARK    5  A    between atoms: C_14  and  C_15 
REMARK    6  A    between atoms: C_19  and  O_20 
REMARK    7  A    between atoms: O_20  and  C_21 
REMARK    8  A    between atoms: C_21  and  C_22 
REMARK       I    between atoms: C_22  and  N_24 
REMARK    9  A    between atoms: N_24  and  C_25 
ROOT
ATOM      1  C   UNL d   1      27.033 -10.072  -2.352  0.00  0.00    -0.014 A 
ATOM      2  C   UNL d   1      26.778  -8.820  -2.925  0.00  0.00     0.013 A 
ATOM      3  C   UNL d   1      26.087  -8.746  -4.143  0.00  0.00     0.004 A 
ATOM      4  C   UNL d   1      25.703  -9.916  -4.804  0.00  0.00     0.037 A 
ATOM      5  C   UNL d   1      25.986 -11.168  -4.245  0.00  0.00     0.070 A 
ATOM      6  C   UNL d   1      26.664 -11.238  -3.029  0.00  0.00     0.049 A 
ENDROOT
BRANCH   1   7
ATOM      7  C   UNL d   1      27.574 -10.208  -0.970  0.00  0.00     0.150 C 
ATOM      8  N   UNL d   1      27.030 -11.026  -0.119  0.00  0.00    -0.183 NA
BRANCH   8   9
ATOM      9  N   UNL d   1      27.531 -11.075   1.163  0.00  0.00    -0.239 N 
ATOM     10  C   UNL d   1      27.296 -12.195   1.973  0.00  0.00     0.329 C 
ATOM     11  O   UNL d   1      26.668 -13.212   1.675  0.00  0.00    -0.261 OA
ATOM     12  H   UNL d   1      28.061 -10.292   1.548  0.00  0.00     0.192 HD
BRANCH  10  13
ATOM     13  C   UNL d   1      27.910 -12.082   3.385  0.00  0.00     0.315 C 
ATOM     14  N   UNL d   1      27.746 -13.186   4.238  0.00  0.00    -0.319 N 
ATOM     15  H   UNL d   1      27.218 -13.973   3.866  0.00  0.00     0.169 HD
ATOM     16  O   UNL d   1      28.478 -11.019   3.631  0.00  0.00    -0.262 OA
BRANCH  14  17
ATOM     17  C   UNL d   1      28.170 -13.252   5.601  0.00  0.00     0.035 A 
ATOM     18  C   UNL d   1      27.995 -12.163   6.474  0.00  0.00     0.030 A 
ATOM     19  C   UNL d   1      28.503 -12.205   7.791  0.00  0.00     0.009 A 
ATOM     20  C   UNL d   1      29.099 -13.371   8.287  0.00  0.00    -0.058 A 
ATOM     21  C   UNL d   1      29.267 -14.450   7.426  0.00  0.00     0.009 A 
ATOM     22  C   UNL d   1      28.801 -14.387   6.114  0.00  0.00     0.030 A 
BRANCH  20  23
ATOM     23  C   UNL d   1      29.380 -13.560   9.757  0.00  0.00     0.034 C 
ATOM     24  C   UNL d   1      28.057 -13.551  10.516  0.00  0.00     0.010 C 
ENDBRANCH  20  23
ENDBRANCH  14  17
ENDBRANCH  10  13
ENDBRANCH   8   9
ENDBRANCH   1   7
BRANCH   5  25
ATOM     25  O   UNL d   1      25.530 -12.253  -4.939  0.00  0.00    -0.342 OA
BRANCH  25  26
ATOM     26  C   UNL d   1      26.499 -13.207  -5.395  0.00  0.00     0.278 C 
BRANCH  26  27
ATOM     27  C   UNL d   1      26.366 -14.482  -4.556  0.00  0.00     0.246 C 
ATOM     28  O   UNL d   1      26.732 -15.575  -4.992  0.00  0.00    -0.271 OA
ATOM     29  N   UNL d   1      25.769 -14.327  -3.303  0.00  0.00    -0.325 N 
ATOM     30  H   UNL d   1      25.290 -13.462  -3.073  0.00  0.00     0.169 HD
BRANCH  29  31
ATOM     31  C   UNL d   1      25.655 -15.412  -2.396  0.00  0.00     0.038 A 
ATOM     32  C   UNL d   1      24.403 -15.909  -2.021  0.00  0.00     0.053 A 
ATOM     33  C   UNL d   1      24.326 -16.935  -1.067  0.00  0.00     0.037 A 
ATOM     34 CL   UNL d   1      22.787 -17.461  -0.497  0.00  0.00    -0.084 Cl
ATOM     35  C   UNL d   1      25.475 -17.502  -0.520  0.00  0.00     0.048 A 
ATOM     36  C   UNL d   1      26.713 -16.994  -0.888  0.00  0.00     0.037 A 
ATOM     37 CL   UNL d   1      28.144 -17.592  -0.145  0.00  0.00    -0.084 Cl
ATOM     38  C   UNL d   1      26.805 -15.959  -1.815  0.00  0.00     0.053 A 
ENDBRANCH  29  31
ENDBRANCH  26  27
ENDBRANCH  25  26
ENDBRANCH   5  25
TORSDOF 9
ENDMDL
