MODEL 1
REMARK VINA RESULT:    -8.809      0.000      0.000
REMARK INTER + INTRA:         -12.509
REMARK INTER:                 -10.897
REMARK INTRA:                  -1.612
REMARK CONF_INDEPENDENT:        2.088
REMARK UNBOUND:                -1.612
REMARK  7 active torsions:
REMARK  status: ('A' for Active; 'I' for Inactive)
REMARK    1  A    between atoms: O_2  and  C_3 
REMARK    2  A    between atoms: C_5  and  O_6 
REMARK    3  A    between atoms: C_9  and  C_10 
REMARK       I    between atoms: C_10  and  N_12 
REMARK       I    between atoms: C_13  and  N_14 
REMARK       I    between atoms: C_13  and  N_26 
REMARK    4  A    between atoms: N_14  and  C_15 
REMARK    5  A    between atoms: C_15  and  C_16 
REMARK    6  A    between atoms: C_16  and  C_17 
REMARK    7  A    between atoms: N_26  and  C_27 
ROOT
ATOM      1  C   UNL d   1      27.170 -13.257  -1.202  0.00  0.00     0.294 C 
ATOM      2  O   UNL d   1      26.644 -12.406  -0.483  0.00  0.00    -0.265 OA
ATOM      3  N   UNL d   1      27.974 -14.283  -0.761  0.00  0.00    -0.023 NA
ATOM      4  C   UNL d   1      28.192 -14.414   0.518  0.00  0.00     0.704 C 
ATOM      5  N   UNL d   1      28.977 -15.447   0.956  0.00  0.00    -0.224 N 
ATOM      6  N   UNL d   1      27.658 -13.622   1.499  0.00  0.00    -0.190 N 
ATOM      7  H   UNL d   1      28.975 -15.631   1.952  0.00  0.00     0.177 HD
ATOM      8  H   UNL d   1      27.050 -12.874   1.158  0.00  0.00     0.184 HD
ENDROOT
BRANCH   5   9
ATOM      9  C   UNL d   1      29.533 -16.448   0.081  0.00  0.00     0.142 C 
BRANCH   9  10
ATOM     10  C   UNL d   1      28.477 -16.971  -0.876  0.00  0.00     0.057 C 
BRANCH  10  11
ATOM     11  C   UNL d   1      27.206 -17.455  -0.251  0.00  0.00    -0.048 A 
ATOM     12  C   UNL d   1      26.022 -17.092  -0.745  0.00  0.00    -0.006 A 
ATOM     13  C   UNL d   1      25.685 -16.265  -1.845  0.00  0.00     0.014 A 
ATOM     14  C   UNL d   1      25.010 -17.691   0.134  0.00  0.00     0.038 A 
ATOM     15  C   UNL d   1      24.399 -15.942  -2.021  0.00  0.00     0.001 A 
ATOM     16  C   UNL d   1      23.356 -16.526  -1.189  0.00  0.00     0.002 A 
ATOM     17  C   UNL d   1      23.595 -17.364  -0.160  0.00  0.00     0.030 A 
ATOM     18  N   UNL d   1      25.540 -18.409   1.042  0.00  0.00    -0.385 N 
ATOM     19  C   UNL d   1      27.030 -18.332   0.959  0.00  0.00     0.155 A 
ATOM     20  H   UNL d   1      24.988 -18.948   1.713  0.00  0.00     0.160 HD
ENDBRANCH  10  11
ENDBRANCH   9  10
ENDBRANCH   5   9
BRANCH   6  21
ATOM     21  C   UNL d   1      27.844 -13.609   2.886  0.00  0.00     0.049 A 
ATOM     22  C   UNL d   1      27.902 -14.825   3.577  0.00  0.00     0.030 A 
ATOM     23  C   UNL d   1      28.155 -14.852   4.948  0.00  0.00     0.003 A 
ATOM     24  C   UNL d   1      28.413 -13.666   5.632  0.00  0.00     0.007 A 
ATOM     25  C   UNL d   1      28.339 -12.441   4.965  0.00  0.00    -0.060 A 
ATOM     26  C   UNL d   1      28.544 -11.146   5.686  0.00  0.00     0.048 C 
ATOM     27  C   UNL d   1      28.036 -12.425   3.601  0.00  0.00     0.036 A 
ENDBRANCH   6  21
BRANCH   1  28
ATOM     28  C   UNL d   1      26.951 -13.180  -2.673  0.00  0.00     0.040 A 
ATOM     29  C   UNL d   1      26.510 -11.968  -3.215  0.00  0.00     0.054 A 
ATOM     30  C   UNL d   1      26.412 -11.806  -4.595  0.00  0.00     0.071 A 
ATOM     31  C   UNL d   1      26.650 -12.906  -5.428  0.00  0.00     0.073 A 
ATOM     32  C   UNL d   1      27.077 -14.127  -4.893  0.00  0.00     0.071 A 
ATOM     33  C   UNL d   1      27.242 -14.257  -3.514  0.00  0.00     0.054 A 
BRANCH  30  34
ATOM     34  O   UNL d   1      26.137 -10.615  -5.213  0.00  0.00    -0.356 OA
ATOM     35  C   UNL d   1      25.854 -10.690  -6.615  0.00  0.00     0.210 C 
ENDBRANCH  30  34
BRANCH  32  36
ATOM     36  O   UNL d   1      27.435 -15.096  -5.794  0.00  0.00    -0.356 OA
ATOM     37  C   UNL d   1      28.611 -14.836  -6.550  0.00  0.00     0.210 C 
ENDBRANCH  32  36
ENDBRANCH   1  28
TORSDOF 7
ENDMDL
MODEL 2
REMARK VINA RESULT:    -8.779      2.477      7.525
REMARK INTER + INTRA:         -12.058
REMARK INTER:                 -10.867
REMARK INTRA:                  -1.191
REMARK CONF_INDEPENDENT:        2.088
REMARK UNBOUND:                -1.191
REMARK  7 active torsions:
REMARK  status: ('A' for Active; 'I' for Inactive)
REMARK    1  A    between atoms: O_2  and  C_3 
REMARK    2  A    between atoms: C_5  and  O_6 
REMARK    3  A    between atoms: C_9  and  C_10 
REMARK       I    between atoms: C_10  and  N_12 
REMARK       I    between atoms: C_13  and  N_14 
REMARK       I    between atoms: C_13  and  N_26 
REMARK    4  A    between atoms: N_14  and  C_15 
REMARK    5  A    between atoms: C_15  and  C_16 
REMARK    6  A    between atoms: C_16  and  C_17 
REMARK    7  A    between atoms: N_26  and  C_27 
ROOT
ATOM      1  C   UNL d   1      24.882 -14.662  -2.389  0.00  0.00     0.294 C 
ATOM      2  O   UNL d   1      24.204 -14.451  -3.396  0.00  0.00    -0.265 OA
ATOM      3  N   UNL d   1      25.916 -13.868  -1.947  0.00  0.00    -0.023 NA
ATOM      4  C   UNL d   1      26.209 -12.782  -2.606  0.00  0.00     0.704 C 
ATOM      5  N   UNL d   1      27.225 -11.984  -2.153  0.00  0.00    -0.224 N 
ATOM      6  N   UNL d   1      25.547 -12.323  -3.714  0.00  0.00    -0.190 N 
ATOM      7  H   UNL d   1      27.305 -11.066  -2.572  0.00  0.00     0.177 HD
ATOM      8  H   UNL d   1      24.771 -12.914  -4.021  0.00  0.00     0.184 HD
ENDROOT
BRANCH   5   9
ATOM      9  C   UNL d   1      27.960 -12.246  -0.942  0.00  0.00     0.142 C 
BRANCH   9  10
ATOM     10  C   UNL d   1      27.041 -12.197   0.265  0.00  0.00     0.057 C 
BRANCH  10  11
ATOM     11  C   UNL d   1      27.391 -13.115   1.395  0.00  0.00    -0.048 A 
ATOM     12  C   UNL d   1      27.538 -12.645   2.634  0.00  0.00    -0.006 A 
ATOM     13  C   UNL d   1      27.419 -11.332   3.153  0.00  0.00     0.014 A 
ATOM     14  C   UNL d   1      27.932 -13.791   3.462  0.00  0.00     0.038 A 
ATOM     15  C   UNL d   1      27.779 -11.121   4.424  0.00  0.00     0.001 A 
ATOM     16  C   UNL d   1      28.157 -12.227   5.292  0.00  0.00     0.002 A 
ATOM     17  C   UNL d   1      28.239 -13.510   4.884  0.00  0.00     0.030 A 
ATOM     18  N   UNL d   1      27.956 -14.872   2.791  0.00  0.00    -0.385 N 
ATOM     19  C   UNL d   1      27.654 -14.595   1.354  0.00  0.00     0.155 A 
ATOM     20  H   UNL d   1      28.157 -15.781   3.213  0.00  0.00     0.160 HD
ENDBRANCH  10  11
ENDBRANCH   9  10
ENDBRANCH   5   9
BRANCH   6  21
ATOM     21  C   UNL d   1      25.780 -11.221  -4.544  0.00  0.00     0.049 A 
ATOM     22  C   UNL d   1      26.222 -11.436  -5.855  0.00  0.00     0.030 A 
ATOM     23  C   UNL d   1      26.397 -10.365  -6.730  0.00  0.00     0.003 A 
ATOM     24  C   UNL d   1      26.075  -9.073  -6.323  0.00  0.00     0.007 A 
ATOM     25  C   UNL d   1      25.654  -8.834  -5.013  0.00  0.00    -0.060 A 
ATOM     26  C   UNL d   1      25.366  -7.449  -4.525  0.00  0.00     0.048 C 
ATOM     27  C   UNL d   1      25.529  -9.911  -4.130  0.00  0.00     0.036 A 
ENDBRANCH   6  21
BRANCH   1  28
ATOM     28  C   UNL d   1      24.592 -15.876  -1.578  0.00  0.00     0.040 A 
ATOM     29  C   UNL d   1      23.259 -16.167  -1.271  0.00  0.00     0.054 A 
ATOM     30  C   UNL d   1      22.926 -17.356  -0.626  0.00  0.00     0.071 A 
ATOM     31  C   UNL d   1      23.951 -18.202  -0.187  0.00  0.00     0.073 A 
ATOM     32  C   UNL d   1      25.290 -17.912  -0.477  0.00  0.00     0.071 A 
ATOM     33  C   UNL d   1      25.607 -16.754  -1.187  0.00  0.00     0.054 A 
BRANCH  30  34
ATOM     34  O   UNL d   1      21.642 -17.789  -0.423  0.00  0.00    -0.356 OA
ATOM     35  C   UNL d   1      21.243 -18.936  -1.180  0.00  0.00     0.210 C 
ENDBRANCH  30  34
BRANCH  32  36
ATOM     36  O   UNL d   1      26.207 -18.873  -0.144  0.00  0.00    -0.356 OA
ATOM     37  C   UNL d   1      27.030 -18.584   0.980  0.00  0.00     0.210 C 
ENDBRANCH  32  36
ENDBRANCH   1  28
TORSDOF 7
ENDMDL
MODEL 3
REMARK VINA RESULT:    -8.554      1.457      1.849
REMARK INTER + INTRA:         -12.905
REMARK INTER:                 -10.642
REMARK INTRA:                  -2.264
REMARK CONF_INDEPENDENT:        2.088
REMARK UNBOUND:                -2.264
REMARK  7 active torsions:
REMARK  status: ('A' for Active; 'I' for Inactive)
REMARK    1  A    between atoms: O_2  and  C_3 
REMARK    2  A    between atoms: C_5  and  O_6 
REMARK    3  A    between atoms: C_9  and  C_10 
REMARK       I    between atoms: C_10  and  N_12 
REMARK       I    between atoms: C_13  and  N_14 
REMARK       I    between atoms: C_13  and  N_26 
REMARK    4  A    between atoms: N_14  and  C_15 
REMARK    5  A    between atoms: C_15  and  C_16 
REMARK    6  A    between atoms: C_16  and  C_17 
REMARK    7  A    between atoms: N_26  and  C_27 
ROOT
ATOM      1  C   UNL d   1      27.075 -12.856  -0.337  0.00  0.00     0.294 C 
ATOM      2  O   UNL d   1      26.655 -12.134   0.570  0.00  0.00    -0.265 OA
ATOM      3  N   UNL d   1      27.977 -13.884  -0.180  0.00  0.00    -0.023 NA
ATOM      4  C   UNL d   1      28.419 -14.164   1.014  0.00  0.00     0.704 C 
ATOM      5  N   UNL d   1      29.301 -15.200   1.169  0.00  0.00    -0.224 N 
ATOM      6  N   UNL d   1      28.039 -13.535   2.169  0.00  0.00    -0.190 N 
ATOM      7  H   UNL d   1      29.479 -15.509   2.116  0.00  0.00     0.177 HD
ATOM      8  H   UNL d   1      27.357 -12.784   2.040  0.00  0.00     0.184 HD
ENDROOT
BRANCH   5   9
ATOM      9  C   UNL d   1      29.728 -16.048   0.085  0.00  0.00     0.142 C 
BRANCH   9  10
ATOM     10  C   UNL d   1      28.753 -17.195  -0.115  0.00  0.00     0.057 C 
BRANCH  10  11
ATOM     11  C   UNL d   1      27.581 -16.913  -1.003  0.00  0.00    -0.048 A 
ATOM     12  C   UNL d   1      26.345 -17.237  -0.623  0.00  0.00    -0.006 A 
ATOM     13  C   UNL d   1      25.864 -17.848   0.562  0.00  0.00     0.014 A 
ATOM     14  C   UNL d   1      25.466 -16.879  -1.743  0.00  0.00     0.038 A 
ATOM     15  C   UNL d   1      24.574 -18.200   0.611  0.00  0.00     0.001 A 
ATOM     16  C   UNL d   1      23.657 -17.849  -0.465  0.00  0.00     0.002 A 
ATOM     17  C   UNL d   1      24.031 -17.219  -1.597  0.00  0.00     0.030 A 
ATOM     18  N   UNL d   1      26.110 -16.327  -2.690  0.00  0.00    -0.385 N 
ATOM     19  C   UNL d   1      27.572 -16.304  -2.378  0.00  0.00     0.155 A 
ATOM     20  H   UNL d   1      25.655 -15.962  -3.530  0.00  0.00     0.160 HD
ENDBRANCH  10  11
ENDBRANCH   9  10
ENDBRANCH   5   9
BRANCH   6  21
ATOM     21  C   UNL d   1      28.464 -13.689   3.493  0.00  0.00     0.049 A 
ATOM     22  C   UNL d   1      28.068 -14.826   4.208  0.00  0.00     0.030 A 
ATOM     23  C   UNL d   1      28.530 -15.046   5.505  0.00  0.00     0.003 A 
ATOM     24  C   UNL d   1      29.441 -14.162   6.080  0.00  0.00     0.007 A 
ATOM     25  C   UNL d   1      29.831 -13.011   5.392  0.00  0.00    -0.060 A 
ATOM     26  C   UNL d   1      30.754 -12.007   6.009  0.00  0.00     0.048 C 
ATOM     27  C   UNL d   1      29.322 -12.776   4.111  0.00  0.00     0.036 A 
ENDBRANCH   6  21
BRANCH   1  28
ATOM     28  C   UNL d   1      26.600 -12.603  -1.724  0.00  0.00     0.040 A 
ATOM     29  C   UNL d   1      26.813 -11.337  -2.279  0.00  0.00     0.054 A 
ATOM     30  C   UNL d   1      26.503 -11.090  -3.614  0.00  0.00     0.071 A 
ATOM     31  C   UNL d   1      25.868 -12.089  -4.362  0.00  0.00     0.073 A 
ATOM     32  C   UNL d   1      25.637 -13.354  -3.810  0.00  0.00     0.071 A 
ATOM     33  C   UNL d   1      26.018 -13.614  -2.494  0.00  0.00     0.054 A 
BRANCH  30  34
ATOM     34  O   UNL d   1      26.817  -9.933  -4.277  0.00  0.00    -0.356 OA
ATOM     35  C   UNL d   1      25.848  -9.473  -5.224  0.00  0.00     0.210 C 
ENDBRANCH  30  34
BRANCH  32  36
ATOM     36  O   UNL d   1      25.155 -14.312  -4.663  0.00  0.00    -0.356 OA
ATOM     37  C   UNL d   1      26.133 -15.041  -5.395  0.00  0.00     0.210 C 
ENDBRANCH  32  36
ENDBRANCH   1  28
TORSDOF 7
ENDMDL
MODEL 4
REMARK VINA RESULT:    -8.523      1.483      2.591
REMARK INTER + INTRA:         -12.871
REMARK INTER:                 -10.611
REMARK INTRA:                  -2.260
REMARK CONF_INDEPENDENT:        2.088
REMARK UNBOUND:                -2.260
REMARK  7 active torsions:
REMARK  status: ('A' for Active; 'I' for Inactive)
REMARK    1  A    between atoms: O_2  and  C_3 
REMARK    2  A    between atoms: C_5  and  O_6 
REMARK    3  A    between atoms: C_9  and  C_10 
REMARK       I    between atoms: C_10  and  N_12 
REMARK       I    between atoms: C_13  and  N_14 
REMARK       I    between atoms: C_13  and  N_26 
REMARK    4  A    between atoms: N_14  and  C_15 
REMARK    5  A    between atoms: C_15  and  C_16 
REMARK    6  A    between atoms: C_16  and  C_17 
REMARK    7  A    between atoms: N_26  and  C_27 
ROOT
ATOM      1  C   UNL d   1      27.176 -12.793  -0.426  0.00  0.00     0.294 C 
ATOM      2  O   UNL d   1      26.711 -12.082   0.468  0.00  0.00    -0.265 OA
ATOM      3  N   UNL d   1      28.050 -13.839  -0.235  0.00  0.00    -0.023 NA
ATOM      4  C   UNL d   1      28.412 -14.151   0.978  0.00  0.00     0.704 C 
ATOM      5  N   UNL d   1      29.267 -15.204   1.166  0.00  0.00    -0.224 N 
ATOM      6  N   UNL d   1      27.972 -13.538   2.120  0.00  0.00    -0.190 N 
ATOM      7  H   UNL d   1      29.381 -15.535   2.115  0.00  0.00     0.177 HD
ATOM      8  H   UNL d   1      27.310 -12.774   1.965  0.00  0.00     0.184 HD
ENDROOT
BRANCH   5   9
ATOM      9  C   UNL d   1      29.747 -16.037   0.093  0.00  0.00     0.142 C 
BRANCH   9  10
ATOM     10  C   UNL d   1      28.804 -17.203  -0.145  0.00  0.00     0.057 C 
BRANCH  10  11
ATOM     11  C   UNL d   1      27.610 -16.917  -1.003  0.00  0.00    -0.048 A 
ATOM     12  C   UNL d   1      26.383 -17.238  -0.591  0.00  0.00    -0.006 A 
ATOM     13  C   UNL d   1      25.931 -17.851   0.604  0.00  0.00     0.014 A 
ATOM     14  C   UNL d   1      25.476 -16.877  -1.687  0.00  0.00     0.038 A 
ATOM     15  C   UNL d   1      24.643 -18.200   0.686  0.00  0.00     0.001 A 
ATOM     16  C   UNL d   1      23.699 -17.846  -0.365  0.00  0.00     0.002 A 
ATOM     17  C   UNL d   1      24.045 -17.214  -1.505  0.00  0.00     0.030 A 
ATOM     18  N   UNL d   1      26.098 -16.324  -2.650  0.00  0.00    -0.385 N 
ATOM     19  C   UNL d   1      27.567 -16.305  -2.375  0.00  0.00     0.155 A 
ATOM     20  H   UNL d   1      25.622 -15.957  -3.477  0.00  0.00     0.160 HD
ENDBRANCH  10  11
ENDBRANCH   9  10
ENDBRANCH   5   9
BRANCH   6  21
ATOM     21  C   UNL d   1      28.311 -13.726   3.464  0.00  0.00     0.049 A 
ATOM     22  C   UNL d   1      27.783 -14.824   4.154  0.00  0.00     0.030 A 
ATOM     23  C   UNL d   1      28.155 -15.081   5.473  0.00  0.00     0.003 A 
ATOM     24  C   UNL d   1      29.104 -14.276   6.098  0.00  0.00     0.007 A 
ATOM     25  C   UNL d   1      29.626 -13.163   5.436  0.00  0.00    -0.060 A 
ATOM     26  C   UNL d   1      30.596 -12.240   6.105  0.00  0.00     0.048 C 
ATOM     27  C   UNL d   1      29.208 -12.888   4.130  0.00  0.00     0.036 A 
ENDBRANCH   6  21
BRANCH   1  28
ATOM     28  C   UNL d   1      26.792 -12.504  -1.834  0.00  0.00     0.040 A 
ATOM     29  C   UNL d   1      26.257 -13.544  -2.603  0.00  0.00     0.054 A 
ATOM     30  C   UNL d   1      25.765 -13.296  -3.881  0.00  0.00     0.071 A 
ATOM     31  C   UNL d   1      25.917 -12.018  -4.433  0.00  0.00     0.073 A 
ATOM     32  C   UNL d   1      26.465 -10.975  -3.677  0.00  0.00     0.071 A 
ATOM     33  C   UNL d   1      26.889 -11.218  -2.371  0.00  0.00     0.054 A 
BRANCH  30  34
ATOM     34  O   UNL d   1      25.091 -14.216  -4.640  0.00  0.00    -0.356 OA
ATOM     35  C   UNL d   1      25.905 -15.137  -5.374  0.00  0.00     0.210 C 
ENDBRANCH  30  34
BRANCH  32  36
ATOM     36  O   UNL d   1      26.431  -9.728  -4.244  0.00  0.00    -0.356 OA
ATOM     37  C   UNL d   1      25.141  -9.242  -4.597  0.00  0.00     0.210 C 
ENDBRANCH  32  36
ENDBRANCH   1  28
TORSDOF 7
ENDMDL
MODEL 5
REMARK VINA RESULT:    -8.465      0.378      1.951
REMARK INTER + INTRA:         -12.428
REMARK INTER:                 -10.553
REMARK INTRA:                  -1.875
REMARK CONF_INDEPENDENT:        2.088
REMARK UNBOUND:                -1.875
REMARK  7 active torsions:
REMARK  status: ('A' for Active; 'I' for Inactive)
REMARK    1  A    between atoms: O_2  and  C_3 
REMARK    2  A    between atoms: C_5  and  O_6 
REMARK    3  A    between atoms: C_9  and  C_10 
REMARK       I    between atoms: C_10  and  N_12 
REMARK       I    between atoms: C_13  and  N_14 
REMARK       I    between atoms: C_13  and  N_26 
REMARK    4  A    between atoms: N_14  and  C_15 
REMARK    5  A    between atoms: C_15  and  C_16 
REMARK    6  A    between atoms: C_16  and  C_17 
REMARK    7  A    between atoms: N_26  and  C_27 
ROOT
ATOM      1  C   UNL d   1      27.395 -13.216  -1.418  0.00  0.00     0.294 C 
ATOM      2  O   UNL d   1      26.847 -12.358  -0.723  0.00  0.00    -0.265 OA
ATOM      3  N   UNL d   1      28.151 -14.262  -0.940  0.00  0.00    -0.023 NA
ATOM      4  C   UNL d   1      28.294 -14.405   0.348  0.00  0.00     0.704 C 
ATOM      5  N   UNL d   1      29.030 -15.458   0.821  0.00  0.00    -0.224 N 
ATOM      6  N   UNL d   1      27.723 -13.608   1.303  0.00  0.00    -0.190 N 
ATOM      7  H   UNL d   1      28.969 -15.648   1.814  0.00  0.00     0.177 HD
ATOM      8  H   UNL d   1      27.151 -12.845   0.934  0.00  0.00     0.184 HD
ENDROOT
BRANCH   5   9
ATOM      9  C   UNL d   1      29.613 -16.465  -0.028  0.00  0.00     0.142 C 
BRANCH   9  10
ATOM     10  C   UNL d   1      28.568 -17.050  -0.962  0.00  0.00     0.057 C 
BRANCH  10  11
ATOM     11  C   UNL d   1      27.267 -17.439  -0.331  0.00  0.00    -0.048 A 
ATOM     12  C   UNL d   1      26.111 -16.996  -0.825  0.00  0.00    -0.006 A 
ATOM     13  C   UNL d   1      25.831 -16.153  -1.929  0.00  0.00     0.014 A 
ATOM     14  C   UNL d   1      25.062 -17.516   0.060  0.00  0.00     0.038 A 
ATOM     15  C   UNL d   1      24.570 -15.741  -2.104  0.00  0.00     0.001 A 
ATOM     16  C   UNL d   1      23.491 -16.245  -1.267  0.00  0.00     0.002 A 
ATOM     17  C   UNL d   1      23.673 -17.091  -0.232  0.00  0.00     0.030 A 
ATOM     18  N   UNL d   1      25.542 -18.264   0.971  0.00  0.00    -0.385 N 
ATOM     19  C   UNL d   1      27.033 -18.293   0.885  0.00  0.00     0.155 A 
ATOM     20  H   UNL d   1      24.955 -18.758   1.647  0.00  0.00     0.160 HD
ENDBRANCH  10  11
ENDBRANCH   9  10
ENDBRANCH   5   9
BRANCH   6  21
ATOM     21  C   UNL d   1      27.831 -13.607   2.698  0.00  0.00     0.049 A 
ATOM     22  C   UNL d   1      27.780 -14.826   3.386  0.00  0.00     0.030 A 
ATOM     23  C   UNL d   1      27.954 -14.869   4.769  0.00  0.00     0.003 A 
ATOM     24  C   UNL d   1      28.241 -13.701   5.472  0.00  0.00     0.007 A 
ATOM     25  C   UNL d   1      28.275 -12.473   4.807  0.00  0.00    -0.060 A 
ATOM     26  C   UNL d   1      28.514 -11.192   5.545  0.00  0.00     0.048 C 
ATOM     27  C   UNL d   1      28.050 -12.437   3.428  0.00  0.00     0.036 A 
ENDBRANCH   6  21
BRANCH   1  28
ATOM     28  C   UNL d   1      27.260 -13.125  -2.898  0.00  0.00     0.040 A 
ATOM     29  C   UNL d   1      27.787 -14.159  -3.678  0.00  0.00     0.054 A 
ATOM     30  C   UNL d   1      27.576 -14.184  -5.054  0.00  0.00     0.071 A 
ATOM     31  C   UNL d   1      26.928 -13.103  -5.663  0.00  0.00     0.073 A 
ATOM     32  C   UNL d   1      26.409 -12.056  -4.892  0.00  0.00     0.071 A 
ATOM     33  C   UNL d   1      26.564 -12.077  -3.506  0.00  0.00     0.054 A 
BRANCH  30  34
ATOM     34  O   UNL d   1      27.924 -15.229  -5.869  0.00  0.00    -0.356 OA
ATOM     35  C   UNL d   1      29.310 -15.587  -5.869  0.00  0.00     0.210 C 
ENDBRANCH  30  34
BRANCH  32  36
ATOM     36  O   UNL d   1      25.658 -11.123  -5.557  0.00  0.00    -0.356 OA
ATOM     37  C   UNL d   1      26.251 -10.565  -6.723  0.00  0.00     0.210 C 
ENDBRANCH  32  36
ENDBRANCH   1  28
TORSDOF 7
ENDMDL
MODEL 6
REMARK VINA RESULT:    -8.236      3.090      6.345
REMARK INTER + INTRA:         -12.050
REMARK INTER:                 -10.324
REMARK INTRA:                  -1.726
REMARK CONF_INDEPENDENT:        2.088
REMARK UNBOUND:                -1.726
REMARK  7 active torsions:
REMARK  status: ('A' for Active; 'I' for Inactive)
REMARK    1  A    between atoms: O_2  and  C_3 
REMARK    2  A    between atoms: C_5  and  O_6 
REMARK    3  A    between atoms: C_9  and  C_10 
REMARK       I    between atoms: C_10  and  N_12 
REMARK       I    between atoms: C_13  and  N_14 
REMARK       I    between atoms: C_13  and  N_26 
REMARK    4  A    between atoms: N_14  and  C_15 
REMARK    5  A    between atoms: C_15  and  C_16 
REMARK    6  A    between atoms: C_16  and  C_17 
REMARK    7  A    between atoms: N_26  and  C_27 
ROOT
ATOM      1  C   UNL d   1      27.796 -17.218  -0.405  0.00  0.00     0.294 C 
ATOM      2  O   UNL d   1      28.161 -18.366  -0.142  0.00  0.00    -0.265 OA
ATOM      3  N   UNL d   1      28.621 -16.120  -0.487  0.00  0.00    -0.023 NA
ATOM      4  C   UNL d   1      29.903 -16.275  -0.307  0.00  0.00     0.704 C 
ATOM      5  N   UNL d   1      30.725 -15.184  -0.408  0.00  0.00    -0.224 N 
ATOM      6  N   UNL d   1      30.532 -17.467  -0.066  0.00  0.00    -0.190 N 
ATOM      7  H   UNL d   1      31.720 -15.365  -0.448  0.00  0.00     0.177 HD
ATOM      8  H   UNL d   1      29.909 -18.276  -0.024  0.00  0.00     0.184 HD
ENDROOT
BRANCH   5   9
ATOM      9  C   UNL d   1      30.257 -13.869  -0.766  0.00  0.00     0.142 C 
BRANCH   9  10
ATOM     10  C   UNL d   1      29.647 -13.171   0.436  0.00  0.00     0.057 C 
BRANCH  10  11
ATOM     11  C   UNL d   1      30.061 -13.691   1.778  0.00  0.00    -0.048 A 
ATOM     12  C   UNL d   1      29.159 -13.881   2.742  0.00  0.00    -0.006 A 
ATOM     13  C   UNL d   1      27.757 -13.676   2.761  0.00  0.00     0.014 A 
ATOM     14  C   UNL d   1      29.910 -14.333   3.920  0.00  0.00     0.038 A 
ATOM     15  C   UNL d   1      27.117 -13.804   3.929  0.00  0.00     0.001 A 
ATOM     16  C   UNL d   1      27.812 -14.270   5.121  0.00  0.00     0.002 A 
ATOM     17  C   UNL d   1      29.133 -14.538   5.165  0.00  0.00     0.030 A 
ATOM     18  N   UNL d   1      31.149 -14.465   3.667  0.00  0.00    -0.385 N 
ATOM     19  C   UNL d   1      31.441 -14.033   2.266  0.00  0.00     0.155 A 
ATOM     20  H   UNL d   1      31.819 -14.823   4.352  0.00  0.00     0.160 HD
ENDBRANCH  10  11
ENDBRANCH   9  10
ENDBRANCH   5   9
BRANCH   6  21
ATOM     21  C   UNL d   1      31.872 -17.773   0.198  0.00  0.00     0.049 A 
ATOM     22  C   UNL d   1      32.612 -18.477  -0.758  0.00  0.00     0.030 A 
ATOM     23  C   UNL d   1      33.967 -18.738  -0.558  0.00  0.00     0.003 A 
ATOM     24  C   UNL d   1      34.612 -18.244   0.574  0.00  0.00     0.007 A 
ATOM     25  C   UNL d   1      33.887 -17.558   1.550  0.00  0.00    -0.060 A 
ATOM     26  C   UNL d   1      34.536 -17.074   2.809  0.00  0.00     0.048 C 
ATOM     27  C   UNL d   1      32.518 -17.346   1.361  0.00  0.00     0.036 A 
ENDBRANCH   6  21
BRANCH   1  28
ATOM     28  C   UNL d   1      26.347 -16.971  -0.640  0.00  0.00     0.040 A 
ATOM     29  C   UNL d   1      25.981 -15.919  -1.486  0.00  0.00     0.054 A 
ATOM     30  C   UNL d   1      24.648 -15.726  -1.838  0.00  0.00     0.071 A 
ATOM     31  C   UNL d   1      23.664 -16.526  -1.243  0.00  0.00     0.073 A 
ATOM     32  C   UNL d   1      24.020 -17.571  -0.382  0.00  0.00     0.071 A 
ATOM     33  C   UNL d   1      25.364 -17.802  -0.094  0.00  0.00     0.054 A 
BRANCH  30  34
ATOM     34  O   UNL d   1      24.220 -14.822  -2.774  0.00  0.00    -0.356 OA
ATOM     35  C   UNL d   1      25.181 -14.448  -3.766  0.00  0.00     0.210 C 
ENDBRANCH  30  34
BRANCH  32  36
ATOM     36  O   UNL d   1      23.004 -18.396   0.027  0.00  0.00    -0.356 OA
ATOM     37  C   UNL d   1      21.931 -18.562  -0.892  0.00  0.00     0.210 C 
ENDBRANCH  32  36
ENDBRANCH   1  28
TORSDOF 7
ENDMDL
MODEL 7
REMARK VINA RESULT:    -8.214      3.733      6.107
REMARK INTER + INTRA:         -12.065
REMARK INTER:                 -10.302
REMARK INTRA:                  -1.763
REMARK CONF_INDEPENDENT:        2.088
REMARK UNBOUND:                -1.763
REMARK  7 active torsions:
REMARK  status: ('A' for Active; 'I' for Inactive)
REMARK    1  A    between atoms: O_2  and  C_3 
REMARK    2  A    between atoms: C_5  and  O_6 
REMARK    3  A    between atoms: C_9  and  C_10 
REMARK       I    between atoms: C_10  and  N_12 
REMARK       I    between atoms: C_13  and  N_14 
REMARK       I    between atoms: C_13  and  N_26 
REMARK    4  A    between atoms: N_14  and  C_15 
REMARK    5  A    between atoms: C_15  and  C_16 
REMARK    6  A    between atoms: C_16  and  C_17 
REMARK    7  A    between atoms: N_26  and  C_27 
ROOT
ATOM      1  C   UNL d   1      26.372 -14.403  -4.367  0.00  0.00     0.294 C 
ATOM      2  O   UNL d   1      25.155 -14.597  -4.348  0.00  0.00    -0.265 OA
ATOM      3  N   UNL d   1      27.281 -14.973  -3.505  0.00  0.00    -0.023 NA
ATOM      4  C   UNL d   1      26.859 -15.814  -2.602  0.00  0.00     0.704 C 
ATOM      5  N   UNL d   1      27.768 -16.394  -1.758  0.00  0.00    -0.224 N 
ATOM      6  N   UNL d   1      25.562 -16.221  -2.442  0.00  0.00    -0.190 N 
ATOM      7  H   UNL d   1      27.441 -17.172  -1.199  0.00  0.00     0.177 HD
ATOM      8  H   UNL d   1      24.901 -15.803  -3.100  0.00  0.00     0.184 HD
ENDROOT
BRANCH   5   9
ATOM      9  C   UNL d   1      29.189 -16.173  -1.849  0.00  0.00     0.142 C 
BRANCH   9  10
ATOM     10  C   UNL d   1      29.825 -17.162  -2.809  0.00  0.00     0.057 C 
BRANCH  10  11
ATOM     11  C   UNL d   1      30.122 -16.647  -4.183  0.00  0.00    -0.048 A 
ATOM     12  C   UNL d   1      30.366 -17.488  -5.189  0.00  0.00    -0.006 A 
ATOM     13  C   UNL d   1      30.405 -18.904  -5.231  0.00  0.00     0.014 A 
ATOM     14  C   UNL d   1      30.671 -16.652  -6.356  0.00  0.00     0.038 A 
ATOM     15  C   UNL d   1      30.834 -19.489  -6.354  0.00  0.00     0.001 A 
ATOM     16  C   UNL d   1      31.129 -18.706  -7.546  0.00  0.00     0.002 A 
ATOM     17  C   UNL d   1      31.061 -17.360  -7.598  0.00  0.00     0.030 A 
ATOM     18  N   UNL d   1      30.556 -15.413  -6.092  0.00  0.00    -0.385 N 
ATOM     19  C   UNL d   1      30.228 -15.220  -4.646  0.00  0.00     0.155 A 
ATOM     20  H   UNL d   1      30.677 -14.683  -6.798  0.00  0.00     0.160 HD
ENDBRANCH  10  11
ENDBRANCH   9  10
ENDBRANCH   5   9
BRANCH   6  21
ATOM     21  C   UNL d   1      24.963 -17.062  -1.497  0.00  0.00     0.049 A 
ATOM     22  C   UNL d   1      25.668 -17.390  -0.333  0.00  0.00     0.030 A 
ATOM     23  C   UNL d   1      25.074 -18.168   0.662  0.00  0.00     0.003 A 
ATOM     24  C   UNL d   1      23.749 -18.575   0.529  0.00  0.00     0.007 A 
ATOM     25  C   UNL d   1      23.036 -18.277  -0.634  0.00  0.00    -0.060 A 
ATOM     26  C   UNL d   1      21.633 -18.758  -0.836  0.00  0.00     0.048 C 
ATOM     27  C   UNL d   1      23.658 -17.538  -1.645  0.00  0.00     0.036 A 
ENDBRANCH   6  21
BRANCH   1  28
ATOM     28  C   UNL d   1      26.927 -13.467  -5.383  0.00  0.00     0.040 A 
ATOM     29  C   UNL d   1      26.436 -12.158  -5.417  0.00  0.00     0.054 A 
ATOM     30  C   UNL d   1      27.010 -11.210  -6.260  0.00  0.00     0.071 A 
ATOM     31  C   UNL d   1      28.008 -11.612  -7.157  0.00  0.00     0.073 A 
ATOM     32  C   UNL d   1      28.494 -12.925  -7.141  0.00  0.00     0.071 A 
ATOM     33  C   UNL d   1      27.962 -13.848  -6.241  0.00  0.00     0.054 A 
BRANCH  30  34
ATOM     34  O   UNL d   1      26.696  -9.877  -6.249  0.00  0.00    -0.356 OA
ATOM     35  C   UNL d   1      25.303  -9.564  -6.141  0.00  0.00     0.210 C 
ENDBRANCH  30  34
BRANCH  32  36
ATOM     36  O   UNL d   1      29.574 -13.184  -7.943  0.00  0.00    -0.356 OA
ATOM     37  C   UNL d   1      29.741 -12.317  -9.059  0.00  0.00     0.210 C 
ENDBRANCH  32  36
ENDBRANCH   1  28
TORSDOF 7
ENDMDL
MODEL 8
REMARK VINA RESULT:    -8.008      2.318      7.696
REMARK INTER + INTRA:         -12.289
REMARK INTER:                 -10.096
REMARK INTRA:                  -2.193
REMARK CONF_INDEPENDENT:        2.088
REMARK UNBOUND:                -2.193
REMARK  7 active torsions:
REMARK  status: ('A' for Active; 'I' for Inactive)
REMARK    1  A    between atoms: O_2  and  C_3 
REMARK    2  A    between atoms: C_5  and  O_6 
REMARK    3  A    between atoms: C_9  and  C_10 
REMARK       I    between atoms: C_10  and  N_12 
REMARK       I    between atoms: C_13  and  N_14 
REMARK       I    between atoms: C_13  and  N_26 
REMARK    4  A    between atoms: N_14  and  C_15 
REMARK    5  A    between atoms: C_15  and  C_16 
REMARK    6  A    between atoms: C_16  and  C_17 
REMARK    7  A    between atoms: N_26  and  C_27 
ROOT
ATOM      1  C   UNL d   1      25.139 -14.341  -2.790  0.00  0.00     0.294 C 
ATOM      2  O   UNL d   1      24.261 -14.075  -3.613  0.00  0.00    -0.265 OA
ATOM      3  N   UNL d   1      26.321 -13.652  -2.638  0.00  0.00    -0.023 NA
ATOM      4  C   UNL d   1      26.549 -12.610  -3.389  0.00  0.00     0.704 C 
ATOM      5  N   UNL d   1      27.717 -11.915  -3.223  0.00  0.00    -0.224 N 
ATOM      6  N   UNL d   1      25.687 -12.101  -4.323  0.00  0.00    -0.190 N 
ATOM      7  H   UNL d   1      27.782 -11.016  -3.683  0.00  0.00     0.177 HD
ATOM      8  H   UNL d   1      24.807 -12.613  -4.413  0.00  0.00     0.184 HD
ENDROOT
BRANCH   5   9
ATOM      9  C   UNL d   1      28.694 -12.234  -2.213  0.00  0.00     0.142 C 
BRANCH   9  10
ATOM     10  C   UNL d   1      28.121 -12.018  -0.824  0.00  0.00     0.057 C 
BRANCH  10  11
ATOM     11  C   UNL d   1      28.166 -13.197   0.097  0.00  0.00    -0.048 A 
ATOM     12  C   UNL d   1      27.872 -13.063   1.391  0.00  0.00    -0.006 A 
ATOM     13  C   UNL d   1      27.487 -11.928   2.146  0.00  0.00     0.014 A 
ATOM     14  C   UNL d   1      28.074 -14.386   1.995  0.00  0.00     0.038 A 
ATOM     15  C   UNL d   1      27.405 -12.054   3.475  0.00  0.00     0.001 A 
ATOM     16  C   UNL d   1      27.575 -13.348   4.121  0.00  0.00     0.002 A 
ATOM     17  C   UNL d   1      27.888 -14.482   3.462  0.00  0.00     0.030 A 
ATOM     18  N   UNL d   1      28.398 -15.257   1.126  0.00  0.00    -0.385 N 
ATOM     19  C   UNL d   1      28.548 -14.618  -0.217  0.00  0.00     0.155 A 
ATOM     20  H   UNL d   1      28.527 -16.245   1.355  0.00  0.00     0.160 HD
ENDBRANCH  10  11
ENDBRANCH   9  10
ENDBRANCH   5   9
BRANCH   6  21
ATOM     21  C   UNL d   1      25.818 -11.041  -5.226  0.00  0.00     0.049 A 
ATOM     22  C   UNL d   1      25.531  -9.740  -4.797  0.00  0.00     0.030 A 
ATOM     23  C   UNL d   1      25.717  -8.652  -5.649  0.00  0.00     0.003 A 
ATOM     24  C   UNL d   1      26.251  -8.848  -6.921  0.00  0.00     0.007 A 
ATOM     25  C   UNL d   1      26.523 -10.139  -7.377  0.00  0.00    -0.060 A 
ATOM     26  C   UNL d   1      27.033 -10.388  -8.762  0.00  0.00     0.048 C 
ATOM     27  C   UNL d   1      26.286 -11.226  -6.530  0.00  0.00     0.036 A 
ENDBRANCH   6  21
BRANCH   1  28
ATOM     28  C   UNL d   1      24.938 -15.508  -1.888  0.00  0.00     0.040 A 
ATOM     29  C   UNL d   1      26.052 -16.037  -1.227  0.00  0.00     0.054 A 
ATOM     30  C   UNL d   1      25.898 -17.043  -0.277  0.00  0.00     0.071 A 
ATOM     31  C   UNL d   1      24.629 -17.599  -0.075  0.00  0.00     0.073 A 
ATOM     32  C   UNL d   1      23.510 -17.087  -0.743  0.00  0.00     0.071 A 
ATOM     33  C   UNL d   1      23.666 -16.029  -1.638  0.00  0.00     0.054 A 
BRANCH  30  34
ATOM     34  O   UNL d   1      26.908 -17.510   0.521  0.00  0.00    -0.356 OA
ATOM     35  C   UNL d   1      27.030 -18.934   0.605  0.00  0.00     0.210 C 
ENDBRANCH  30  34
BRANCH  32  36
ATOM     36  O   UNL d   1      22.293 -17.589  -0.366  0.00  0.00    -0.356 OA
ATOM     37  C   UNL d   1      22.051 -18.950  -0.704  0.00  0.00     0.210 C 
ENDBRANCH  32  36
ENDBRANCH   1  28
TORSDOF 7
ENDMDL
MODEL 9
REMARK VINA RESULT:    -7.125      3.141      7.453
REMARK INTER + INTRA:         -12.086
REMARK INTER:                  -9.213
REMARK INTRA:                  -2.873
REMARK CONF_INDEPENDENT:        2.088
REMARK UNBOUND:                -2.873
REMARK  7 active torsions:
REMARK  status: ('A' for Active; 'I' for Inactive)
REMARK    1  A    between atoms: O_2  and  C_3 
REMARK    2  A    between atoms: C_5  and  O_6 
REMARK    3  A    between atoms: C_9  and  C_10 
REMARK       I    between atoms: C_10  and  N_12 
REMARK       I    between atoms: C_13  and  N_14 
REMARK       I    between atoms: C_13  and  N_26 
REMARK    4  A    between atoms: N_14  and  C_15 
REMARK    5  A    between atoms: C_15  and  C_16 
REMARK    6  A    between atoms: C_16  and  C_17 
REMARK    7  A    between atoms: N_26  and  C_27 
ROOT
ATOM      1  C   UNL d   1      25.099 -14.288  -2.869  0.00  0.00     0.294 C 
ATOM      2  O   UNL d   1      24.512 -14.169  -3.946  0.00  0.00    -0.265 OA
ATOM      3  N   UNL d   1      25.940 -13.350  -2.314  0.00  0.00    -0.023 NA
ATOM      4  C   UNL d   1      26.129 -12.221  -2.937  0.00  0.00     0.704 C 
ATOM      5  N   UNL d   1      26.951 -11.282  -2.374  0.00  0.00    -0.224 N 
ATOM      6  N   UNL d   1      25.532 -11.852  -4.112  0.00  0.00    -0.190 N 
ATOM      7  H   UNL d   1      26.932 -10.355  -2.781  0.00  0.00     0.177 HD
ATOM      8  H   UNL d   1      24.897 -12.552  -4.504  0.00  0.00     0.184 HD
ENDROOT
BRANCH   5   9
ATOM      9  C   UNL d   1      27.579 -11.445  -1.087  0.00  0.00     0.142 C 
BRANCH   9  10
ATOM     10  C   UNL d   1      28.938 -12.106  -1.233  0.00  0.00     0.057 C 
BRANCH  10  11
ATOM     11  C   UNL d   1      28.928 -13.585  -1.466  0.00  0.00    -0.048 A 
ATOM     12  C   UNL d   1      29.020 -14.081  -2.701  0.00  0.00    -0.006 A 
ATOM     13  C   UNL d   1      29.138 -13.437  -3.958  0.00  0.00     0.014 A 
ATOM     14  C   UNL d   1      28.919 -15.539  -2.565  0.00  0.00     0.038 A 
ATOM     15  C   UNL d   1      29.053 -14.188  -5.061  0.00  0.00     0.001 A 
ATOM     16  C   UNL d   1      28.974 -15.640  -4.979  0.00  0.00     0.002 A 
ATOM     17  C   UNL d   1      28.913 -16.326  -3.820  0.00  0.00     0.030 A 
ATOM     18  N   UNL d   1      28.839 -15.894  -1.345  0.00  0.00    -0.385 N 
ATOM     19  C   UNL d   1      28.790 -14.693  -0.458  0.00  0.00     0.155 A 
ATOM     20  H   UNL d   1      28.817 -16.875  -1.055  0.00  0.00     0.160 HD
ENDBRANCH  10  11
ENDBRANCH   9  10
ENDBRANCH   5   9
BRANCH   6  21
ATOM     21  C   UNL d   1      25.680 -10.714  -4.912  0.00  0.00     0.049 A 
ATOM     22  C   UNL d   1      26.323 -10.829  -6.150  0.00  0.00     0.030 A 
ATOM     23  C   UNL d   1      26.425  -9.731  -7.003  0.00  0.00     0.003 A 
ATOM     24  C   UNL d   1      25.833  -8.519  -6.653  0.00  0.00     0.007 A 
ATOM     25  C   UNL d   1      25.207  -8.377  -5.413  0.00  0.00    -0.060 A 
ATOM     26  C   UNL d   1      24.621  -7.070  -4.978  0.00  0.00     0.048 C 
ATOM     27  C   UNL d   1      25.153  -9.473  -4.546  0.00  0.00     0.036 A 
ENDBRANCH   6  21
BRANCH   1  28
ATOM     28  C   UNL d   1      24.915 -15.546  -2.094  0.00  0.00     0.040 A 
ATOM     29  C   UNL d   1      26.050 -16.293  -1.761  0.00  0.00     0.054 A 
ATOM     30  C   UNL d   1      25.945 -17.406  -0.932  0.00  0.00     0.071 A 
ATOM     31  C   UNL d   1      24.675 -17.837  -0.528  0.00  0.00     0.073 A 
ATOM     32  C   UNL d   1      23.532 -17.105  -0.870  0.00  0.00     0.071 A 
ATOM     33  C   UNL d   1      23.656 -15.950  -1.641  0.00  0.00     0.054 A 
BRANCH  30  34
ATOM     34  O   UNL d   1      27.016 -18.101  -0.435  0.00  0.00    -0.356 OA
ATOM     35  C   UNL d   1      27.015 -18.323   0.979  0.00  0.00     0.210 C 
ENDBRANCH  30  34
BRANCH  32  36
ATOM     36  O   UNL d   1      22.354 -17.514  -0.302  0.00  0.00    -0.356 OA
ATOM     37  C   UNL d   1      22.176 -18.921  -0.187  0.00  0.00     0.210 C 
ENDBRANCH  32  36
ENDBRANCH   1  28
TORSDOF 7
ENDMDL
