MODEL 1
REMARK VINA RESULT:   -32.065      0.000      0.000
REMARK INTER + INTRA:         -38.380
REMARK INTER:                 -37.136
REMARK INTRA:                  -1.244
REMARK CONF_INDEPENDENT:        5.071
REMARK UNBOUND:                -1.244
REMARK  17 active torsions:
REMARK  status: ('A' for Active; 'I' for Inactive)
REMARK    1  A    between atoms: C_2  and  C_3 
REMARK    2  A    between atoms: C_3  and  C_4 
REMARK    3  A    between atoms: C_4  and  C_5 
REMARK    4  A    between atoms: C_5  and  C_6 
REMARK    5  A    between atoms: C_6  and  O_7 
REMARK    6  A    between atoms: O_7  and  C_8 
REMARK    7  A    between atoms: C_11  and  O_12 
REMARK    8  A    between atoms: O_12  and  C_13 
REMARK    9  A    between atoms: C_13  and  C_14 
REMARK   10  A    between atoms: C_14  and  O_15 
REMARK   11  A    between atoms: O_15  and  C_16 
REMARK   12  A    between atoms: C_19  and  C_20 
REMARK   13  A    between atoms: N_21  and  N_22 
REMARK       I    between atoms: N_22  and  C_23 
REMARK   14  A    between atoms: C_23  and  C_25 
REMARK   15  A    between atoms: C_25  and  C_26 
REMARK   16  A    between atoms: C_29  and  N_30 
REMARK   17  A    between atoms: C_33  and  O_34 
ROOT
ATOM      1  C   UNL d   1      26.315 -13.034  -5.034  0.00  0.00     0.102 A 
ATOM      2  C   UNL d   1      25.580 -12.570  -3.914  0.00  0.00     0.040 A 
ATOM      3  C   UNL d   1      25.169 -13.424  -2.861  0.00  0.00     0.016 A 
ATOM      4  C   UNL d   1      25.422 -14.793  -2.931  0.00  0.00    -0.014 A 
ATOM      5  C   UNL d   1      26.157 -15.263  -4.017  0.00  0.00     0.052 A 
ATOM      6  C   UNL d   1      26.629 -14.416  -5.053  0.00  0.00     0.102 A 
ENDROOT
BRANCH   1   7
ATOM      7  O   UNL d   1      26.787 -11.994  -5.826  0.00  0.00    -0.346 OA
BRANCH   7   8
ATOM      8  C   UNL d   1      28.031 -11.370  -5.503  0.00  0.00     0.202 C 
BRANCH   8   9
ATOM      9  C   UNL d   1      28.120  -9.863  -5.684  0.00  0.00     0.202 C 
BRANCH   9  10
ATOM     10  O   UNL d   1      27.362  -9.262  -4.593  0.00  0.00    -0.349 OA
BRANCH  10  11
ATOM     11  C   UNL d   1      26.150  -8.728  -4.933  0.00  0.00     0.069 A 
ATOM     12  C   UNL d   1      25.827  -7.451  -4.456  0.00  0.00     0.039 A 
ATOM     13  C   UNL d   1      24.603  -6.862  -4.810  0.00  0.00     0.039 A 
ATOM     14  C   UNL d   1      23.727  -7.525  -5.671  0.00  0.00     0.068 A 
ATOM     15  C   UNL d   1      24.059  -8.790  -6.142  0.00  0.00     0.039 A 
ATOM     16  C   UNL d   1      25.250  -9.389  -5.759  0.00  0.00     0.039 A 
BRANCH  14  17
ATOM     17  O   UNL d   1      22.620  -6.836  -6.083  0.00  0.00    -0.351 OA
BRANCH  17  18
ATOM     18  C   UNL d   1      22.668  -6.380  -7.436  0.00  0.00     0.175 C 
BRANCH  18  19
ATOM     19  C   UNL d   1      21.260  -6.441  -8.011  0.00  0.00     0.027 C 
BRANCH  19  20
ATOM     20  C   UNL d   1      20.227  -6.137  -6.933  0.00  0.00     0.002 C 
BRANCH  20  21
ATOM     21  C   UNL d   1      18.886  -5.771  -7.556  0.00  0.00    -0.000 C 
BRANCH  21  22
ATOM     22  C   UNL d   1      18.330  -6.932  -8.372  0.00  0.00    -0.005 C 
ATOM     23  C   UNL d   1      17.973  -8.099  -7.471  0.00  0.00     0.005 C 
ENDBRANCH  21  22
ENDBRANCH  20  21
ENDBRANCH  19  20
ENDBRANCH  18  19
ENDBRANCH  17  18
ENDBRANCH  14  17
ENDBRANCH  10  11
ENDBRANCH   9  10
ENDBRANCH   8   9
ENDBRANCH   7   8
ENDBRANCH   1   7
BRANCH   6  24
ATOM     24  O   UNL d   1      27.411 -15.189  -5.880  0.00  0.00    -0.353 OA
ATOM     25  C   UNL d   1      28.665 -15.558  -5.400  0.00  0.00     0.210 C 
ENDBRANCH   6  24
BRANCH   4  26
ATOM     26  C   UNL d   1      24.895 -15.752  -1.904  0.00  0.00     0.150 C 
ATOM     27  N   UNL d   1      25.180 -17.019  -1.965  0.00  0.00    -0.184 NA
BRANCH  27  28
ATOM     28  N   UNL d   1      24.646 -17.898  -1.044  0.00  0.00    -0.247 N 
ATOM     29  C   UNL d   1      23.362 -17.598  -0.548  0.00  0.00     0.243 C 
ATOM     30  O   UNL d   1      22.727 -16.629  -0.925  0.00  0.00    -0.271 OA
ATOM     31  H   UNL d   1      25.185 -18.699  -0.742  0.00  0.00     0.192 HD
BRANCH  29  32
ATOM     32  C   UNL d   1      22.796 -18.597   0.477  0.00  0.00     0.173 C 
BRANCH  32  33
ATOM     33  C   UNL d   1      21.388 -18.951   0.075  0.00  0.00     0.109 A 
ATOM     34  N   UNL d   1      20.753 -18.411  -0.945  0.00  0.00    -0.144 NA
ATOM     35  N   UNL d   1      19.533 -19.011  -1.183  0.00  0.00    -0.124 NA
ATOM     36  C   UNL d   1      19.237 -19.935  -0.298  0.00  0.00     0.187 A 
ATOM     37  S   UNL d   1      20.448 -20.128   0.915  0.00  0.00    -0.033 SA
BRANCH  36  38
ATOM     38  N   UNL d   1      18.096 -20.646  -0.313  0.00  0.00    -0.377 N 
ATOM     39  H   UNL d   1      17.973 -21.374   0.383  0.00  0.00     0.158 HD
ATOM     40  H   UNL d   1      17.271 -20.351  -0.816  0.00  0.00     0.158 HD
ENDBRANCH  36  38
ENDBRANCH  32  33
ENDBRANCH  29  32
ENDBRANCH  27  28
ENDBRANCH   4  26
TORSDOF 17
ENDMDL
MODEL 2
REMARK VINA RESULT:   -30.693      4.198      7.155
REMARK INTER + INTRA:         -38.374
REMARK INTER:                 -35.764
REMARK INTRA:                  -2.609
REMARK CONF_INDEPENDENT:        5.071
REMARK UNBOUND:                -2.609
REMARK  17 active torsions:
REMARK  status: ('A' for Active; 'I' for Inactive)
REMARK    1  A    between atoms: C_2  and  C_3 
REMARK    2  A    between atoms: C_3  and  C_4 
REMARK    3  A    between atoms: C_4  and  C_5 
REMARK    4  A    between atoms: C_5  and  C_6 
REMARK    5  A    between atoms: C_6  and  O_7 
REMARK    6  A    between atoms: O_7  and  C_8 
REMARK    7  A    between atoms: C_11  and  O_12 
REMARK    8  A    between atoms: O_12  and  C_13 
REMARK    9  A    between atoms: C_13  and  C_14 
REMARK   10  A    between atoms: C_14  and  O_15 
REMARK   11  A    between atoms: O_15  and  C_16 
REMARK   12  A    between atoms: C_19  and  C_20 
REMARK   13  A    between atoms: N_21  and  N_22 
REMARK       I    between atoms: N_22  and  C_23 
REMARK   14  A    between atoms: C_23  and  C_25 
REMARK   15  A    between atoms: C_25  and  C_26 
REMARK   16  A    between atoms: C_29  and  N_30 
REMARK   17  A    between atoms: C_33  and  O_34 
ROOT
ATOM      1  C   UNL d   1      26.352 -13.024  -5.062  0.00  0.00     0.102 A 
ATOM      2  C   UNL d   1      25.558 -12.577  -3.976  0.00  0.00     0.040 A 
ATOM      3  C   UNL d   1      25.182 -13.422  -2.902  0.00  0.00     0.016 A 
ATOM      4  C   UNL d   1      25.533 -14.771  -2.918  0.00  0.00    -0.014 A 
ATOM      5  C   UNL d   1      26.325 -15.224  -3.970  0.00  0.00     0.052 A 
ATOM      6  C   UNL d   1      26.763 -14.380  -5.025  0.00  0.00     0.102 A 
ENDROOT
BRANCH   1   7
ATOM      7  O   UNL d   1      26.769 -11.981  -5.879  0.00  0.00    -0.346 OA
BRANCH   7   8
ATOM      8  C   UNL d   1      27.598 -10.950  -5.339  0.00  0.00     0.202 C 
BRANCH   8   9
ATOM      9  C   UNL d   1      29.102 -11.150  -5.429  0.00  0.00     0.202 C 
BRANCH   9  10
ATOM     10  O   UNL d   1      29.633 -10.965  -4.084  0.00  0.00    -0.349 OA
BRANCH  10  11
ATOM     11  C   UNL d   1      29.102 -11.773  -3.117  0.00  0.00     0.069 A 
ATOM     12  C   UNL d   1      28.434 -11.174  -2.041  0.00  0.00     0.039 A 
ATOM     13  C   UNL d   1      27.853 -11.976  -1.046  0.00  0.00     0.039 A 
ATOM     14  C   UNL d   1      27.901 -13.368  -1.149  0.00  0.00     0.068 A 
ATOM     15  C   UNL d   1      28.562 -13.951  -2.222  0.00  0.00     0.039 A 
ATOM     16  C   UNL d   1      29.172 -13.158  -3.184  0.00  0.00     0.039 A 
BRANCH  14  17
ATOM     17  O   UNL d   1      27.196 -14.083  -0.220  0.00  0.00    -0.351 OA
BRANCH  17  18
ATOM     18  C   UNL d   1      27.280 -13.578   1.114  0.00  0.00     0.175 C 
BRANCH  18  19
ATOM     19  C   UNL d   1      28.011 -14.604   1.969  0.00  0.00     0.027 C 
BRANCH  19  20
ATOM     20  C   UNL d   1      29.116 -13.937   2.779  0.00  0.00     0.002 C 
BRANCH  20  21
ATOM     21  C   UNL d   1      29.030 -14.339   4.245  0.00  0.00    -0.000 C 
BRANCH  21  22
ATOM     22  C   UNL d   1      27.719 -13.866   4.863  0.00  0.00    -0.005 C 
ATOM     23  C   UNL d   1      27.868 -12.467   5.431  0.00  0.00     0.005 C 
ENDBRANCH  21  22
ENDBRANCH  20  21
ENDBRANCH  19  20
ENDBRANCH  18  19
ENDBRANCH  17  18
ENDBRANCH  14  17
ENDBRANCH  10  11
ENDBRANCH   9  10
ENDBRANCH   8   9
ENDBRANCH   7   8
ENDBRANCH   1   7
BRANCH   6  24
ATOM     24  O   UNL d   1      27.617 -15.124  -5.806  0.00  0.00    -0.353 OA
ATOM     25  C   UNL d   1      28.577 -14.426  -6.534  0.00  0.00     0.210 C 
ENDBRANCH   6  24
BRANCH   4  26
ATOM     26  C   UNL d   1      25.049 -15.731  -1.870  0.00  0.00     0.150 C 
ATOM     27  N   UNL d   1      24.953 -17.002  -2.122  0.00  0.00    -0.184 NA
BRANCH  27  28
ATOM     28  N   UNL d   1      24.458 -17.866  -1.166  0.00  0.00    -0.247 N 
ATOM     29  C   UNL d   1      23.208 -17.542  -0.602  0.00  0.00     0.243 C 
ATOM     30  O   UNL d   1      22.568 -16.566  -0.951  0.00  0.00    -0.271 OA
ATOM     31  H   UNL d   1      25.000 -18.673  -0.889  0.00  0.00     0.192 HD
BRANCH  29  32
ATOM     32  C   UNL d   1      22.684 -18.525   0.460  0.00  0.00     0.173 C 
BRANCH  32  33
ATOM     33  C   UNL d   1      21.306 -18.980   0.056  0.00  0.00     0.109 A 
ATOM     34  N   UNL d   1      20.726 -18.657  -1.083  0.00  0.00    -0.144 NA
ATOM     35  N   UNL d   1      19.530 -19.319  -1.269  0.00  0.00    -0.124 NA
ATOM     36  C   UNL d   1      19.193 -20.065  -0.243  0.00  0.00     0.187 A 
ATOM     37  S   UNL d   1      20.332 -19.998   1.050  0.00  0.00    -0.033 SA
BRANCH  36  38
ATOM     38  N   UNL d   1      18.063 -20.792  -0.185  0.00  0.00    -0.377 N 
ATOM     39  H   UNL d   1      17.189 -20.346  -0.444  0.00  0.00     0.158 HD
ATOM     40  H   UNL d   1      18.061 -21.801  -0.127  0.00  0.00     0.158 HD
ENDBRANCH  36  38
ENDBRANCH  32  33
ENDBRANCH  29  32
ENDBRANCH  27  28
ENDBRANCH   4  26
TORSDOF 17
ENDMDL
MODEL 3
REMARK VINA RESULT:   -29.878      3.847      7.131
REMARK INTER + INTRA:         -37.933
REMARK INTER:                 -34.950
REMARK INTRA:                  -2.984
REMARK CONF_INDEPENDENT:        5.071
REMARK UNBOUND:                -2.984
REMARK  17 active torsions:
REMARK  status: ('A' for Active; 'I' for Inactive)
REMARK    1  A    between atoms: C_2  and  C_3 
REMARK    2  A    between atoms: C_3  and  C_4 
REMARK    3  A    between atoms: C_4  and  C_5 
REMARK    4  A    between atoms: C_5  and  C_6 
REMARK    5  A    between atoms: C_6  and  O_7 
REMARK    6  A    between atoms: O_7  and  C_8 
REMARK    7  A    between atoms: C_11  and  O_12 
REMARK    8  A    between atoms: O_12  and  C_13 
REMARK    9  A    between atoms: C_13  and  C_14 
REMARK   10  A    between atoms: C_14  and  O_15 
REMARK   11  A    between atoms: O_15  and  C_16 
REMARK   12  A    between atoms: C_19  and  C_20 
REMARK   13  A    between atoms: N_21  and  N_22 
REMARK       I    between atoms: N_22  and  C_23 
REMARK   14  A    between atoms: C_23  and  C_25 
REMARK   15  A    between atoms: C_25  and  C_26 
REMARK   16  A    between atoms: C_29  and  N_30 
REMARK   17  A    between atoms: C_33  and  O_34 
ROOT
ATOM      1  C   UNL d   1      26.335 -13.123  -5.195  0.00  0.00     0.102 A 
ATOM      2  C   UNL d   1      25.645 -12.618  -4.065  0.00  0.00     0.040 A 
ATOM      3  C   UNL d   1      25.263 -13.435  -2.972  0.00  0.00     0.016 A 
ATOM      4  C   UNL d   1      25.499 -14.808  -3.009  0.00  0.00    -0.014 A 
ATOM      5  C   UNL d   1      26.189 -15.318  -4.106  0.00  0.00     0.052 A 
ATOM      6  C   UNL d   1      26.633 -14.508  -5.184  0.00  0.00     0.102 A 
ENDROOT
BRANCH   1   7
ATOM      7  O   UNL d   1      26.789 -12.113  -6.034  0.00  0.00    -0.346 OA
BRANCH   7   8
ATOM      8  C   UNL d   1      26.685 -10.750  -5.618  0.00  0.00     0.202 C 
BRANCH   8   9
ATOM      9  C   UNL d   1      27.934  -9.891  -5.734  0.00  0.00     0.202 C 
BRANCH   9  10
ATOM     10  O   UNL d   1      28.591  -9.924  -4.432  0.00  0.00    -0.349 OA
BRANCH  10  11
ATOM     11  C   UNL d   1      28.950 -11.162  -3.977  0.00  0.00     0.069 A 
ATOM     12  C   UNL d   1      29.765 -11.961  -4.790  0.00  0.00     0.039 A 
ATOM     13  C   UNL d   1      30.175 -13.225  -4.340  0.00  0.00     0.039 A 
ATOM     14  C   UNL d   1      29.812 -13.671  -3.068  0.00  0.00     0.068 A 
ATOM     15  C   UNL d   1      29.008 -12.869  -2.268  0.00  0.00     0.039 A 
ATOM     16  C   UNL d   1      28.568 -11.636  -2.729  0.00  0.00     0.039 A 
BRANCH  14  17
ATOM     17  O   UNL d   1      30.361 -14.849  -2.643  0.00  0.00    -0.351 OA
BRANCH  17  18
ATOM     18  C   UNL d   1      29.510 -15.989  -2.778  0.00  0.00     0.175 C 
BRANCH  18  19
ATOM     19  C   UNL d   1      30.360 -17.168  -3.230  0.00  0.00     0.027 C 
BRANCH  19  20
ATOM     20  C   UNL d   1      30.020 -17.555  -4.665  0.00  0.00     0.002 C 
BRANCH  20  21
ATOM     21  C   UNL d   1      30.874 -16.772  -5.653  0.00  0.00    -0.000 C 
BRANCH  21  22
ATOM     22  C   UNL d   1      31.206 -17.620  -6.876  0.00  0.00    -0.005 C 
ATOM     23  C   UNL d   1      30.952 -19.089  -6.594  0.00  0.00     0.005 C 
ENDBRANCH  21  22
ENDBRANCH  20  21
ENDBRANCH  19  20
ENDBRANCH  18  19
ENDBRANCH  17  18
ENDBRANCH  14  17
ENDBRANCH  10  11
ENDBRANCH   9  10
ENDBRANCH   8   9
ENDBRANCH   7   8
ENDBRANCH   1   7
BRANCH   6  24
ATOM     24  O   UNL d   1      27.377 -15.315  -6.014  0.00  0.00    -0.353 OA
ATOM     25  C   UNL d   1      28.579 -14.797  -6.489  0.00  0.00     0.210 C 
ENDBRANCH   6  24
BRANCH   4  26
ATOM     26  C   UNL d   1      24.998 -15.730  -1.936  0.00  0.00     0.150 C 
ATOM     27  N   UNL d   1      25.001 -17.018  -2.108  0.00  0.00    -0.184 NA
BRANCH  27  28
ATOM     28  N   UNL d   1      24.490 -17.852  -1.133  0.00  0.00    -0.247 N 
ATOM     29  C   UNL d   1      23.253 -17.486  -0.567  0.00  0.00     0.243 C 
ATOM     30  O   UNL d   1      22.636 -16.499  -0.930  0.00  0.00    -0.271 OA
ATOM     31  H   UNL d   1      25.013 -18.668  -0.845  0.00  0.00     0.192 HD
BRANCH  29  32
ATOM     32  C   UNL d   1      22.711 -18.435   0.516  0.00  0.00     0.173 C 
BRANCH  32  33
ATOM     33  C   UNL d   1      21.354 -18.928   0.087  0.00  0.00     0.109 A 
ATOM     34  N   UNL d   1      20.787 -18.625  -1.064  0.00  0.00    -0.144 NA
ATOM     35  N   UNL d   1      19.612 -19.319  -1.270  0.00  0.00    -0.124 NA
ATOM     36  C   UNL d   1      19.275 -20.069  -0.247  0.00  0.00     0.187 A 
ATOM     37  S   UNL d   1      20.387 -19.967   1.067  0.00  0.00    -0.033 SA
BRANCH  36  38
ATOM     38  N   UNL d   1      18.164 -20.826  -0.208  0.00  0.00    -0.377 N 
ATOM     39  H   UNL d   1      18.238 -21.773   0.147  0.00  0.00     0.158 HD
ATOM     40  H   UNL d   1      17.234 -20.439  -0.289  0.00  0.00     0.158 HD
ENDBRANCH  36  38
ENDBRANCH  32  33
ENDBRANCH  29  32
ENDBRANCH  27  28
ENDBRANCH   4  26
TORSDOF 17
ENDMDL
MODEL 4
REMARK VINA RESULT:   -29.857      4.837      7.430
REMARK INTER + INTRA:         -38.050
REMARK INTER:                 -34.928
REMARK INTRA:                  -3.122
REMARK CONF_INDEPENDENT:        5.071
REMARK UNBOUND:                -3.122
REMARK  17 active torsions:
REMARK  status: ('A' for Active; 'I' for Inactive)
REMARK    1  A    between atoms: C_2  and  C_3 
REMARK    2  A    between atoms: C_3  and  C_4 
REMARK    3  A    between atoms: C_4  and  C_5 
REMARK    4  A    between atoms: C_5  and  C_6 
REMARK    5  A    between atoms: C_6  and  O_7 
REMARK    6  A    between atoms: O_7  and  C_8 
REMARK    7  A    between atoms: C_11  and  O_12 
REMARK    8  A    between atoms: O_12  and  C_13 
REMARK    9  A    between atoms: C_13  and  C_14 
REMARK   10  A    between atoms: C_14  and  O_15 
REMARK   11  A    between atoms: O_15  and  C_16 
REMARK   12  A    between atoms: C_19  and  C_20 
REMARK   13  A    between atoms: N_21  and  N_22 
REMARK       I    between atoms: N_22  and  C_23 
REMARK   14  A    between atoms: C_23  and  C_25 
REMARK   15  A    between atoms: C_25  and  C_26 
REMARK   16  A    between atoms: C_29  and  N_30 
REMARK   17  A    between atoms: C_33  and  O_34 
ROOT
ATOM      1  C   UNL d   1      26.914 -13.276  -4.941  0.00  0.00     0.102 A 
ATOM      2  C   UNL d   1      26.652 -14.581  -5.429  0.00  0.00     0.040 A 
ATOM      3  C   UNL d   1      26.002 -15.572  -4.654  0.00  0.00     0.016 A 
ATOM      4  C   UNL d   1      25.654 -15.308  -3.330  0.00  0.00    -0.014 A 
ATOM      5  C   UNL d   1      25.891 -14.026  -2.840  0.00  0.00     0.052 A 
ATOM      6  C   UNL d   1      26.487 -13.000  -3.618  0.00  0.00     0.102 A 
ENDROOT
BRANCH   1   7
ATOM      7  O   UNL d   1      27.364 -12.418  -5.937  0.00  0.00    -0.346 OA
BRANCH   7   8
ATOM      8  C   UNL d   1      28.768 -12.228  -6.123  0.00  0.00     0.202 C 
BRANCH   8   9
ATOM      9  C   UNL d   1      29.431 -13.000  -7.253  0.00  0.00     0.202 C 
BRANCH   9  10
ATOM     10  O   UNL d   1      30.535 -13.747  -6.662  0.00  0.00    -0.349 OA
BRANCH  10  11
ATOM     11  C   UNL d   1      30.235 -14.470  -5.541  0.00  0.00     0.069 A 
ATOM     12  C   UNL d   1      29.880 -15.816  -5.691  0.00  0.00     0.039 A 
ATOM     13  C   UNL d   1      29.594 -16.594  -4.558  0.00  0.00     0.039 A 
ATOM     14  C   UNL d   1      29.704 -16.042  -3.281  0.00  0.00     0.068 A 
ATOM     15  C   UNL d   1      30.060 -14.706  -3.143  0.00  0.00     0.039 A 
ATOM     16  C   UNL d   1      30.303 -13.926  -4.265  0.00  0.00     0.039 A 
BRANCH  14  17
ATOM     17  O   UNL d   1      29.546 -16.892  -2.222  0.00  0.00    -0.351 OA
BRANCH  17  18
ATOM     18  C   UNL d   1      28.240 -16.887  -1.640  0.00  0.00     0.175 C 
BRANCH  18  19
ATOM     19  C   UNL d   1      28.379 -17.174  -0.151  0.00  0.00     0.027 C 
BRANCH  19  20
ATOM     20  C   UNL d   1      27.348 -16.384   0.645  0.00  0.00     0.002 C 
BRANCH  20  21
ATOM     21  C   UNL d   1      27.931 -15.062   1.125  0.00  0.00    -0.000 C 
BRANCH  21  22
ATOM     22  C   UNL d   1      27.097 -13.887   0.626  0.00  0.00    -0.005 C 
ATOM     23  C   UNL d   1      26.779 -12.934   1.763  0.00  0.00     0.005 C 
ENDBRANCH  21  22
ENDBRANCH  20  21
ENDBRANCH  19  20
ENDBRANCH  18  19
ENDBRANCH  17  18
ENDBRANCH  14  17
ENDBRANCH  10  11
ENDBRANCH   9  10
ENDBRANCH   8   9
ENDBRANCH   7   8
ENDBRANCH   1   7
BRANCH   6  24
ATOM     24  O   UNL d   1      26.450 -11.850  -2.864  0.00  0.00    -0.353 OA
ATOM     25  C   UNL d   1      27.672 -11.311  -2.473  0.00  0.00     0.210 C 
ENDBRANCH   6  24
BRANCH   4  26
ATOM     26  C   UNL d   1      25.082 -16.366  -2.432  0.00  0.00     0.150 C 
ATOM     27  N   UNL d   1      25.102 -16.229  -1.140  0.00  0.00    -0.184 NA
BRANCH  27  28
ATOM     28  N   UNL d   1      24.619 -17.233  -0.325  0.00  0.00    -0.247 N 
ATOM     29  C   UNL d   1      23.225 -17.439  -0.327  0.00  0.00     0.243 C 
ATOM     30  O   UNL d   1      22.471 -16.790  -1.031  0.00  0.00    -0.271 OA
ATOM     31  H   UNL d   1      25.258 -17.764   0.251  0.00  0.00     0.192 HD
BRANCH  29  32
ATOM     32  C   UNL d   1      22.719 -18.564   0.592  0.00  0.00     0.173 C 
BRANCH  32  33
ATOM     33  C   UNL d   1      21.343 -18.973   0.137  0.00  0.00     0.109 A 
ATOM     34  N   UNL d   1      20.854 -18.719  -1.060  0.00  0.00    -0.144 NA
ATOM     35  N   UNL d   1      19.632 -19.325  -1.269  0.00  0.00    -0.124 NA
ATOM     36  C   UNL d   1      19.187 -19.958  -0.208  0.00  0.00     0.187 A 
ATOM     37  S   UNL d   1      20.248 -19.843   1.147  0.00  0.00    -0.033 SA
BRANCH  36  38
ATOM     38  N   UNL d   1      18.013 -20.612  -0.165  0.00  0.00    -0.377 N 
ATOM     39  H   UNL d   1      17.290 -20.348  -0.827  0.00  0.00     0.158 HD
ATOM     40  H   UNL d   1      17.890 -21.490   0.320  0.00  0.00     0.158 HD
ENDBRANCH  36  38
ENDBRANCH  32  33
ENDBRANCH  29  32
ENDBRANCH  27  28
ENDBRANCH   4  26
TORSDOF 17
ENDMDL
MODEL 5
REMARK VINA RESULT:   -29.635      4.183      6.589
REMARK INTER + INTRA:         -38.245
REMARK INTER:                 -34.706
REMARK INTRA:                  -3.539
REMARK CONF_INDEPENDENT:        5.071
REMARK UNBOUND:                -3.539
REMARK  17 active torsions:
REMARK  status: ('A' for Active; 'I' for Inactive)
REMARK    1  A    between atoms: C_2  and  C_3 
REMARK    2  A    between atoms: C_3  and  C_4 
REMARK    3  A    between atoms: C_4  and  C_5 
REMARK    4  A    between atoms: C_5  and  C_6 
REMARK    5  A    between atoms: C_6  and  O_7 
REMARK    6  A    between atoms: O_7  and  C_8 
REMARK    7  A    between atoms: C_11  and  O_12 
REMARK    8  A    between atoms: O_12  and  C_13 
REMARK    9  A    between atoms: C_13  and  C_14 
REMARK   10  A    between atoms: C_14  and  O_15 
REMARK   11  A    between atoms: O_15  and  C_16 
REMARK   12  A    between atoms: C_19  and  C_20 
REMARK   13  A    between atoms: N_21  and  N_22 
REMARK       I    between atoms: N_22  and  C_23 
REMARK   14  A    between atoms: C_23  and  C_25 
REMARK   15  A    between atoms: C_25  and  C_26 
REMARK   16  A    between atoms: C_29  and  N_30 
REMARK   17  A    between atoms: C_33  and  O_34 
ROOT
ATOM      1  C   UNL d   1      26.514 -12.984  -5.192  0.00  0.00     0.102 A 
ATOM      2  C   UNL d   1      25.740 -12.453  -4.130  0.00  0.00     0.040 A 
ATOM      3  C   UNL d   1      25.243 -13.251  -3.070  0.00  0.00     0.016 A 
ATOM      4  C   UNL d   1      25.448 -14.630  -3.077  0.00  0.00    -0.014 A 
ATOM      5  C   UNL d   1      26.220 -15.166  -4.105  0.00  0.00     0.052 A 
ATOM      6  C   UNL d   1      26.777 -14.376  -5.145  0.00  0.00     0.102 A 
ENDROOT
BRANCH   1   7
ATOM      7  O   UNL d   1      27.065 -11.992  -5.994  0.00  0.00    -0.346 OA
BRANCH   7   8
ATOM      8  C   UNL d   1      28.231 -11.294  -5.552  0.00  0.00     0.202 C 
BRANCH   8   9
ATOM      9  C   UNL d   1      28.021  -9.942  -4.888  0.00  0.00     0.202 C 
BRANCH   9  10
ATOM     10  O   UNL d   1      28.911  -9.897  -3.735  0.00  0.00    -0.349 OA
BRANCH  10  11
ATOM     11  C   UNL d   1      28.513 -10.622  -2.645  0.00  0.00     0.069 A 
ATOM     12  C   UNL d   1      27.858  -9.953  -1.603  0.00  0.00     0.039 A 
ATOM     13  C   UNL d   1      27.411 -10.673  -0.484  0.00  0.00     0.039 A 
ATOM     14  C   UNL d   1      27.577 -12.058  -0.427  0.00  0.00     0.068 A 
ATOM     15  C   UNL d   1      28.224 -12.711  -1.469  0.00  0.00     0.039 A 
ATOM     16  C   UNL d   1      28.702 -11.995  -2.556  0.00  0.00     0.039 A 
BRANCH  14  17
ATOM     17  O   UNL d   1      26.996 -12.711   0.625  0.00  0.00    -0.351 OA
BRANCH  17  18
ATOM     18  C   UNL d   1      27.597 -13.964   0.958  0.00  0.00     0.175 C 
BRANCH  18  19
ATOM     19  C   UNL d   1      27.032 -15.027   0.027  0.00  0.00     0.027 C 
BRANCH  19  20
ATOM     20  C   UNL d   1      27.247 -16.419   0.610  0.00  0.00     0.002 C 
BRANCH  20  21
ATOM     21  C   UNL d   1      27.546 -17.427  -0.493  0.00  0.00    -0.000 C 
BRANCH  21  22
ATOM     22  C   UNL d   1      28.094 -16.730  -1.733  0.00  0.00    -0.005 C 
ATOM     23  C   UNL d   1      29.499 -16.215  -1.482  0.00  0.00     0.005 C 
ENDBRANCH  21  22
ENDBRANCH  20  21
ENDBRANCH  19  20
ENDBRANCH  18  19
ENDBRANCH  17  18
ENDBRANCH  14  17
ENDBRANCH  10  11
ENDBRANCH   9  10
ENDBRANCH   8   9
ENDBRANCH   7   8
ENDBRANCH   1   7
BRANCH   6  24
ATOM     24  O   UNL d   1      27.571 -15.207  -5.900  0.00  0.00    -0.353 OA
ATOM     25  C   UNL d   1      28.931 -15.222  -5.604  0.00  0.00     0.210 C 
ENDBRANCH   6  24
BRANCH   4  26
ATOM     26  C   UNL d   1      24.833 -15.530  -2.047  0.00  0.00     0.150 C 
ATOM     27  N   UNL d   1      23.547 -15.712  -2.000  0.00  0.00    -0.184 NA
BRANCH  27  28
ATOM     28  N   UNL d   1      22.989 -16.502  -1.016  0.00  0.00    -0.247 N 
ATOM     29  C   UNL d   1      23.648 -17.712  -0.721  0.00  0.00     0.243 C 
ATOM     30  O   UNL d   1      24.679 -18.046  -1.280  0.00  0.00    -0.271 OA
ATOM     31  H   UNL d   1      22.135 -16.210  -0.559  0.00  0.00     0.192 HD
BRANCH  29  32
ATOM     32  C   UNL d   1      23.002 -18.569   0.381  0.00  0.00     0.173 C 
BRANCH  32  33
ATOM     33  C   UNL d   1      21.575 -18.856  -0.009  0.00  0.00     0.109 A 
ATOM     34  N   UNL d   1      20.908 -18.178  -0.922  0.00  0.00    -0.144 NA
ATOM     35  N   UNL d   1      19.673 -18.733  -1.190  0.00  0.00    -0.124 NA
ATOM     36  C   UNL d   1      19.400 -19.766  -0.428  0.00  0.00     0.187 A 
ATOM     37  S   UNL d   1      20.654 -20.130   0.700  0.00  0.00    -0.033 SA
BRANCH  36  38
ATOM     38  N   UNL d   1      18.251 -20.462  -0.494  0.00  0.00    -0.377 N 
ATOM     39  H   UNL d   1      17.416 -19.983  -0.814  0.00  0.00     0.158 HD
ATOM     40  H   UNL d   1      18.218 -21.471  -0.468  0.00  0.00     0.158 HD
ENDBRANCH  36  38
ENDBRANCH  32  33
ENDBRANCH  29  32
ENDBRANCH  27  28
ENDBRANCH   4  26
TORSDOF 17
ENDMDL
MODEL 6
REMARK VINA RESULT:   -29.511      3.974      6.016
REMARK INTER + INTRA:         -37.600
REMARK INTER:                 -34.582
REMARK INTRA:                  -3.017
REMARK CONF_INDEPENDENT:        5.071
REMARK UNBOUND:                -3.017
REMARK  17 active torsions:
REMARK  status: ('A' for Active; 'I' for Inactive)
REMARK    1  A    between atoms: C_2  and  C_3 
REMARK    2  A    between atoms: C_3  and  C_4 
REMARK    3  A    between atoms: C_4  and  C_5 
REMARK    4  A    between atoms: C_5  and  C_6 
REMARK    5  A    between atoms: C_6  and  O_7 
REMARK    6  A    between atoms: O_7  and  C_8 
REMARK    7  A    between atoms: C_11  and  O_12 
REMARK    8  A    between atoms: O_12  and  C_13 
REMARK    9  A    between atoms: C_13  and  C_14 
REMARK   10  A    between atoms: C_14  and  O_15 
REMARK   11  A    between atoms: O_15  and  C_16 
REMARK   12  A    between atoms: C_19  and  C_20 
REMARK   13  A    between atoms: N_21  and  N_22 
REMARK       I    between atoms: N_22  and  C_23 
REMARK   14  A    between atoms: C_23  and  C_25 
REMARK   15  A    between atoms: C_25  and  C_26 
REMARK   16  A    between atoms: C_29  and  N_30 
REMARK   17  A    between atoms: C_33  and  O_34 
ROOT
ATOM      1  C   UNL d   1      26.482 -13.302  -5.376  0.00  0.00     0.102 A 
ATOM      2  C   UNL d   1      25.580 -12.692  -4.468  0.00  0.00     0.040 A 
ATOM      3  C   UNL d   1      25.074 -13.360  -3.325  0.00  0.00     0.016 A 
ATOM      4  C   UNL d   1      25.403 -14.695  -3.092  0.00  0.00    -0.014 A 
ATOM      5  C   UNL d   1      26.299 -15.304  -3.966  0.00  0.00     0.052 A 
ATOM      6  C   UNL d   1      26.864 -14.635  -5.084  0.00  0.00     0.102 A 
ENDROOT
BRANCH   1   7
ATOM      7  O   UNL d   1      27.003 -12.398  -6.293  0.00  0.00    -0.346 OA
BRANCH   7   8
ATOM      8  C   UNL d   1      26.897 -10.996  -6.040  0.00  0.00     0.202 C 
BRANCH   8   9
ATOM      9  C   UNL d   1      28.193 -10.208  -5.940  0.00  0.00     0.202 C 
BRANCH   9  10
ATOM     10  O   UNL d   1      28.285  -9.721  -4.569  0.00  0.00    -0.349 OA
BRANCH  10  11
ATOM     11  C   UNL d   1      28.251 -10.678  -3.592  0.00  0.00     0.069 A 
ATOM     12  C   UNL d   1      27.192 -10.659  -2.676  0.00  0.00     0.039 A 
ATOM     13  C   UNL d   1      27.112 -11.644  -1.680  0.00  0.00     0.039 A 
ATOM     14  C   UNL d   1      28.060 -12.668  -1.626  0.00  0.00     0.068 A 
ATOM     15  C   UNL d   1      29.104 -12.680  -2.542  0.00  0.00     0.039 A 
ATOM     16  C   UNL d   1      29.206 -11.683  -3.502  0.00  0.00     0.039 A 
BRANCH  14  17
ATOM     17  O   UNL d   1      27.843 -13.668  -0.719  0.00  0.00    -0.351 OA
BRANCH  17  18
ATOM     18  C   UNL d   1      26.658 -13.518   0.066  0.00  0.00     0.175 C 
BRANCH  18  19
ATOM     19  C   UNL d   1      27.047 -13.584   1.536  0.00  0.00     0.027 C 
BRANCH  19  20
ATOM     20  C   UNL d   1      28.034 -12.475   1.880  0.00  0.00     0.002 C 
BRANCH  20  21
ATOM     21  C   UNL d   1      27.487 -11.115   1.465  0.00  0.00    -0.000 C 
BRANCH  21  22
ATOM     22  C   UNL d   1      26.447 -10.620   2.464  0.00  0.00    -0.005 C 
ATOM     23  C   UNL d   1      26.114  -9.161   2.213  0.00  0.00     0.005 C 
ENDBRANCH  21  22
ENDBRANCH  20  21
ENDBRANCH  19  20
ENDBRANCH  18  19
ENDBRANCH  17  18
ENDBRANCH  14  17
ENDBRANCH  10  11
ENDBRANCH   9  10
ENDBRANCH   8   9
ENDBRANCH   7   8
ENDBRANCH   1   7
BRANCH   6  24
ATOM     24  O   UNL d   1      27.788 -15.490  -5.639  0.00  0.00    -0.353 OA
ATOM     25  C   UNL d   1      28.982 -15.667  -4.945  0.00  0.00     0.210 C 
ENDBRANCH   6  24
BRANCH   4  26
ATOM     26  C   UNL d   1      24.790 -15.480  -1.969  0.00  0.00     0.150 C 
ATOM     27  N   UNL d   1      25.356 -16.561  -1.524  0.00  0.00    -0.184 NA
BRANCH  27  28
ATOM     28  N   UNL d   1      24.756 -17.302  -0.526  0.00  0.00    -0.247 N 
ATOM     29  C   UNL d   1      23.682 -18.131  -0.906  0.00  0.00     0.243 C 
ATOM     30  O   UNL d   1      23.308 -18.224  -2.062  0.00  0.00    -0.271 OA
ATOM     31  H   UNL d   1      25.079 -17.215   0.429  0.00  0.00     0.192 HD
BRANCH  29  32
ATOM     32  C   UNL d   1      23.035 -18.942   0.230  0.00  0.00     0.173 C 
BRANCH  32  33
ATOM     33  C   UNL d   1      21.568 -19.105  -0.072  0.00  0.00     0.109 A 
ATOM     34  N   UNL d   1      20.888 -18.317  -0.879  0.00  0.00    -0.144 NA
ATOM     35  N   UNL d   1      19.602 -18.768  -1.094  0.00  0.00    -0.124 NA
ATOM     36  C   UNL d   1      19.311 -19.838  -0.391  0.00  0.00     0.187 A 
ATOM     37  S   UNL d   1      20.611 -20.369   0.609  0.00  0.00    -0.033 SA
BRANCH  36  38
ATOM     38  N   UNL d   1      18.114 -20.450  -0.422  0.00  0.00    -0.377 N 
ATOM     39  H   UNL d   1      17.347 -19.985  -0.895  0.00  0.00     0.158 HD
ATOM     40  H   UNL d   1      17.993 -21.431  -0.211  0.00  0.00     0.158 HD
ENDBRANCH  36  38
ENDBRANCH  32  33
ENDBRANCH  29  32
ENDBRANCH  27  28
ENDBRANCH   4  26
TORSDOF 17
ENDMDL
MODEL 7
REMARK VINA RESULT:   -29.357      4.158      6.132
REMARK INTER + INTRA:         -37.283
REMARK INTER:                 -34.428
REMARK INTRA:                  -2.854
REMARK CONF_INDEPENDENT:        5.071
REMARK UNBOUND:                -2.854
REMARK  17 active torsions:
REMARK  status: ('A' for Active; 'I' for Inactive)
REMARK    1  A    between atoms: C_2  and  C_3 
REMARK    2  A    between atoms: C_3  and  C_4 
REMARK    3  A    between atoms: C_4  and  C_5 
REMARK    4  A    between atoms: C_5  and  C_6 
REMARK    5  A    between atoms: C_6  and  O_7 
REMARK    6  A    between atoms: O_7  and  C_8 
REMARK    7  A    between atoms: C_11  and  O_12 
REMARK    8  A    between atoms: O_12  and  C_13 
REMARK    9  A    between atoms: C_13  and  C_14 
REMARK   10  A    between atoms: C_14  and  O_15 
REMARK   11  A    between atoms: O_15  and  C_16 
REMARK   12  A    between atoms: C_19  and  C_20 
REMARK   13  A    between atoms: N_21  and  N_22 
REMARK       I    between atoms: N_22  and  C_23 
REMARK   14  A    between atoms: C_23  and  C_25 
REMARK   15  A    between atoms: C_25  and  C_26 
REMARK   16  A    between atoms: C_29  and  N_30 
REMARK   17  A    between atoms: C_33  and  O_34 
ROOT
ATOM      1  C   UNL d   1      27.916 -15.053  -5.374  0.00  0.00     0.102 A 
ATOM      2  C   UNL d   1      26.502 -14.961  -5.395  0.00  0.00     0.040 A 
ATOM      3  C   UNL d   1      25.701 -15.207  -4.253  0.00  0.00     0.016 A 
ATOM      4  C   UNL d   1      26.292 -15.626  -3.062  0.00  0.00    -0.014 A 
ATOM      5  C   UNL d   1      27.681 -15.708  -3.020  0.00  0.00     0.052 A 
ATOM      6  C   UNL d   1      28.506 -15.409  -4.136  0.00  0.00     0.102 A 
ENDROOT
BRANCH   1   7
ATOM      7  O   UNL d   1      28.497 -14.567  -6.539  0.00  0.00    -0.346 OA
BRANCH   7   8
ATOM      8  C   UNL d   1      28.879 -13.192  -6.616  0.00  0.00     0.202 C 
BRANCH   8   9
ATOM      9  C   UNL d   1      28.235 -12.352  -7.708  0.00  0.00     0.202 C 
BRANCH   9  10
ATOM     10  O   UNL d   1      28.014 -11.026  -7.144  0.00  0.00    -0.349 OA
BRANCH  10  11
ATOM     11  C   UNL d   1      27.714 -10.988  -5.810  0.00  0.00     0.069 A 
ATOM     12  C   UNL d   1      26.514 -11.567  -5.380  0.00  0.00     0.039 A 
ATOM     13  C   UNL d   1      26.190 -11.569  -4.014  0.00  0.00     0.039 A 
ATOM     14  C   UNL d   1      27.080 -11.036  -3.080  0.00  0.00     0.068 A 
ATOM     15  C   UNL d   1      28.269 -10.468  -3.518  0.00  0.00     0.039 A 
ATOM     16  C   UNL d   1      28.571 -10.429  -4.871  0.00  0.00     0.039 A 
BRANCH  14  17
ATOM     17  O   UNL d   1      26.763 -11.197  -1.759  0.00  0.00    -0.351 OA
BRANCH  17  18
ATOM     18  C   UNL d   1      27.549 -12.171  -1.069  0.00  0.00     0.175 C 
BRANCH  18  19
ATOM     19  C   UNL d   1      26.617 -13.254  -0.546  0.00  0.00     0.027 C 
BRANCH  19  20
ATOM     20  C   UNL d   1      26.650 -13.301   0.977  0.00  0.00     0.002 C 
BRANCH  20  21
ATOM     21  C   UNL d   1      27.395 -14.537   1.464  0.00  0.00    -0.000 C 
BRANCH  21  22
ATOM     22  C   UNL d   1      28.731 -14.685   0.744  0.00  0.00    -0.005 C 
ATOM     23  C   UNL d   1      29.813 -13.891   1.452  0.00  0.00     0.005 C 
ENDBRANCH  21  22
ENDBRANCH  20  21
ENDBRANCH  19  20
ENDBRANCH  18  19
ENDBRANCH  17  18
ENDBRANCH  14  17
ENDBRANCH  10  11
ENDBRANCH   9  10
ENDBRANCH   8   9
ENDBRANCH   7   8
ENDBRANCH   1   7
BRANCH   6  24
ATOM     24  O   UNL d   1      29.810 -15.473  -3.700  0.00  0.00    -0.353 OA
ATOM     25  C   UNL d   1      30.012 -15.667  -2.336  0.00  0.00     0.210 C 
ENDBRANCH   6  24
BRANCH   4  26
ATOM     26  C   UNL d   1      25.475 -16.022  -1.866  0.00  0.00     0.150 C 
ATOM     27  N   UNL d   1      25.569 -17.215  -1.359  0.00  0.00    -0.184 NA
BRANCH  27  28
ATOM     28  N   UNL d   1      24.775 -17.582  -0.291  0.00  0.00    -0.247 N 
ATOM     29  C   UNL d   1      23.534 -18.177  -0.595  0.00  0.00     0.243 C 
ATOM     30  O   UNL d   1      23.177 -18.390  -1.741  0.00  0.00    -0.271 OA
ATOM     31  H   UNL d   1      25.086 -17.400   0.654  0.00  0.00     0.192 HD
BRANCH  29  32
ATOM     32  C   UNL d   1      22.673 -18.574   0.616  0.00  0.00     0.173 C 
BRANCH  32  33
ATOM     33  C   UNL d   1      21.304 -18.964   0.125  0.00  0.00     0.109 A 
ATOM     34  N   UNL d   1      20.747 -18.485  -0.969  0.00  0.00    -0.144 NA
ATOM     35  N   UNL d   1      19.554 -19.111  -1.270  0.00  0.00    -0.124 NA
ATOM     36  C   UNL d   1      19.196 -19.991  -0.363  0.00  0.00     0.187 A 
ATOM     37  S   UNL d   1      20.309 -20.107   0.949  0.00  0.00    -0.033 SA
BRANCH  36  38
ATOM     38  N   UNL d   1      18.065 -20.716  -0.430  0.00  0.00    -0.377 N 
ATOM     39  H   UNL d   1      17.368 -20.458  -1.121  0.00  0.00     0.158 HD
ATOM     40  H   UNL d   1      17.970 -21.626  -0.002  0.00  0.00     0.158 HD
ENDBRANCH  36  38
ENDBRANCH  32  33
ENDBRANCH  29  32
ENDBRANCH  27  28
ENDBRANCH   4  26
TORSDOF 17
ENDMDL
MODEL 8
REMARK VINA RESULT:   -29.201      4.339      6.981
REMARK INTER + INTRA:         -38.023
REMARK INTER:                 -34.272
REMARK INTRA:                  -3.751
REMARK CONF_INDEPENDENT:        5.071
REMARK UNBOUND:                -3.751
REMARK  17 active torsions:
REMARK  status: ('A' for Active; 'I' for Inactive)
REMARK    1  A    between atoms: C_2  and  C_3 
REMARK    2  A    between atoms: C_3  and  C_4 
REMARK    3  A    between atoms: C_4  and  C_5 
REMARK    4  A    between atoms: C_5  and  C_6 
REMARK    5  A    between atoms: C_6  and  O_7 
REMARK    6  A    between atoms: O_7  and  C_8 
REMARK    7  A    between atoms: C_11  and  O_12 
REMARK    8  A    between atoms: O_12  and  C_13 
REMARK    9  A    between atoms: C_13  and  C_14 
REMARK   10  A    between atoms: C_14  and  O_15 
REMARK   11  A    between atoms: O_15  and  C_16 
REMARK   12  A    between atoms: C_19  and  C_20 
REMARK   13  A    between atoms: N_21  and  N_22 
REMARK       I    between atoms: N_22  and  C_23 
REMARK   14  A    between atoms: C_23  and  C_25 
REMARK   15  A    between atoms: C_25  and  C_26 
REMARK   16  A    between atoms: C_29  and  N_30 
REMARK   17  A    between atoms: C_33  and  O_34 
ROOT
ATOM      1  C   UNL d   1      26.585 -12.914  -5.309  0.00  0.00     0.102 A 
ATOM      2  C   UNL d   1      25.913 -12.380  -4.181  0.00  0.00     0.040 A 
ATOM      3  C   UNL d   1      25.438 -13.189  -3.119  0.00  0.00     0.016 A 
ATOM      4  C   UNL d   1      25.560 -14.576  -3.187  0.00  0.00    -0.014 A 
ATOM      5  C   UNL d   1      26.231 -15.115  -4.282  0.00  0.00     0.052 A 
ATOM      6  C   UNL d   1      26.767 -14.319  -5.328  0.00  0.00     0.102 A 
ENDROOT
BRANCH   1   7
ATOM      7  O   UNL d   1      27.142 -11.925  -6.111  0.00  0.00    -0.346 OA
BRANCH   7   8
ATOM      8  C   UNL d   1      28.472 -11.471  -5.851  0.00  0.00     0.202 C 
BRANCH   8   9
ATOM      9  C   UNL d   1      28.627 -10.248  -4.961  0.00  0.00     0.202 C 
BRANCH   9  10
ATOM     10  O   UNL d   1      29.668 -10.563  -3.990  0.00  0.00    -0.349 OA
BRANCH  10  11
ATOM     11  C   UNL d   1      29.809 -11.887  -3.675  0.00  0.00     0.069 A 
ATOM     12  C   UNL d   1      30.935 -12.570  -4.153  0.00  0.00     0.039 A 
ATOM     13  C   UNL d   1      31.124 -13.921  -3.824  0.00  0.00     0.039 A 
ATOM     14  C   UNL d   1      30.218 -14.574  -2.986  0.00  0.00     0.068 A 
ATOM     15  C   UNL d   1      29.107 -13.886  -2.514  0.00  0.00     0.039 A 
ATOM     16  C   UNL d   1      28.899 -12.562  -2.872  0.00  0.00     0.039 A 
BRANCH  14  17
ATOM     17  O   UNL d   1      30.537 -15.845  -2.597  0.00  0.00    -0.351 OA
BRANCH  17  18
ATOM     18  C   UNL d   1      29.416 -16.681  -2.304  0.00  0.00     0.175 C 
BRANCH  18  19
ATOM     19  C   UNL d   1      28.993 -16.427  -0.864  0.00  0.00     0.027 C 
BRANCH  19  20
ATOM     20  C   UNL d   1      27.593 -16.973  -0.612  0.00  0.00     0.002 C 
BRANCH  20  21
ATOM     21  C   UNL d   1      26.836 -16.090   0.370  0.00  0.00    -0.000 C 
BRANCH  21  22
ATOM     22  C   UNL d   1      27.144 -14.617   0.126  0.00  0.00    -0.005 C 
ATOM     23  C   UNL d   1      28.030 -14.065   1.227  0.00  0.00     0.005 C 
ENDBRANCH  21  22
ENDBRANCH  20  21
ENDBRANCH  19  20
ENDBRANCH  18  19
ENDBRANCH  17  18
ENDBRANCH  14  17
ENDBRANCH  10  11
ENDBRANCH   9  10
ENDBRANCH   8   9
ENDBRANCH   7   8
ENDBRANCH   1   7
BRANCH   6  24
ATOM     24  O   UNL d   1      27.461 -15.165  -6.162  0.00  0.00    -0.353 OA
ATOM     25  C   UNL d   1      28.845 -15.200  -6.018  0.00  0.00     0.210 C 
ENDBRANCH   6  24
BRANCH   4  26
ATOM     26  C   UNL d   1      24.959 -15.479  -2.150  0.00  0.00     0.150 C 
ATOM     27  N   UNL d   1      23.672 -15.644  -2.073  0.00  0.00    -0.184 NA
BRANCH  27  28
ATOM     28  N   UNL d   1      23.130 -16.437  -1.082  0.00  0.00    -0.247 N 
ATOM     29  C   UNL d   1      23.783 -17.655  -0.812  0.00  0.00     0.243 C 
ATOM     30  O   UNL d   1      24.797 -17.994  -1.397  0.00  0.00    -0.271 OA
ATOM     31  H   UNL d   1      22.289 -16.140  -0.604  0.00  0.00     0.192 HD
BRANCH  29  32
ATOM     32  C   UNL d   1      23.153 -18.516   0.297  0.00  0.00     0.173 C 
BRANCH  32  33
ATOM     33  C   UNL d   1      21.712 -18.775  -0.056  0.00  0.00     0.109 A 
ATOM     34  N   UNL d   1      21.015 -18.041  -0.900  0.00  0.00    -0.144 NA
ATOM     35  N   UNL d   1      19.768 -18.576  -1.156  0.00  0.00    -0.124 NA
ATOM     36  C   UNL d   1      19.519 -19.653  -0.449  0.00  0.00     0.187 A 
ATOM     37  S   UNL d   1      20.811 -20.088   0.607  0.00  0.00    -0.033 SA
BRANCH  36  38
ATOM     38  N   UNL d   1      18.365 -20.340  -0.514  0.00  0.00    -0.377 N 
ATOM     39  H   UNL d   1      17.549 -19.876  -0.899  0.00  0.00     0.158 HD
ATOM     40  H   UNL d   1      18.319 -21.346  -0.424  0.00  0.00     0.158 HD
ENDBRANCH  36  38
ENDBRANCH  32  33
ENDBRANCH  29  32
ENDBRANCH  27  28
ENDBRANCH   4  26
TORSDOF 17
ENDMDL
