MODEL 1
REMARK VINA RESULT:    -8.146      0.000      0.000
REMARK INTER + INTRA:          -9.692
REMARK INTER:                  -9.040
REMARK INTRA:                  -0.651
REMARK CONF_INDEPENDENT:        0.895
REMARK UNBOUND:                -0.651
REMARK  3 active torsions:
REMARK  status: ('A' for Active; 'I' for Inactive)
REMARK       I    between atoms: C_2  and  N_4 
REMARK    1  A    between atoms: N_4  and  C_5 
REMARK    2  A    between atoms: C_8  and  N_9 
REMARK       I    between atoms: N_9  and  C_10 
REMARK    3  A    between atoms: C_10  and  C_12 
ROOT
ATOM      1  C   UNL d   1      22.441 -18.237  -0.059  0.00  0.00     0.036 A 
ATOM      2  C   UNL d   1      22.155 -17.105  -0.815  0.00  0.00     0.032 A 
ATOM      3  C   UNL d   1      23.192 -16.259  -1.270  0.00  0.00     0.033 A 
ATOM      4  C   UNL d   1      24.558 -16.548  -1.019  0.00  0.00     0.057 A 
ATOM      5  C   UNL d   1      24.811 -17.727  -0.271  0.00  0.00     0.062 A 
ATOM      6 CL   UNL d   1      26.315 -18.475   0.129  0.00  0.00    -0.082 Cl
ATOM      7  C   UNL d   1      23.762 -18.517   0.230  0.00  0.00     0.055 A 
ENDROOT
BRANCH   4   8
ATOM      8  N   UNL d   1      25.517 -15.612  -1.557  0.00  0.00    -0.321 N 
ATOM      9  C   UNL d   1      25.378 -14.841  -2.698  0.00  0.00     0.256 C 
ATOM     10  O   UNL d   1      24.453 -14.825  -3.502  0.00  0.00    -0.267 OA
ATOM     11  H   UNL d   1      26.373 -15.489  -1.022  0.00  0.00     0.169 HD
BRANCH   9  12
ATOM     12  C   UNL d   1      26.421 -13.885  -3.094  0.00  0.00     0.032 A 
ATOM     13  C   UNL d   1      27.735 -14.281  -3.326  0.00  0.00     0.018 A 
ATOM     14  C   UNL d   1      28.621 -13.367  -3.906  0.00  0.00     0.025 A 
ATOM     15  C   UNL d   1      28.188 -12.082  -4.263  0.00  0.00     0.034 A 
ATOM     16 CL   UNL d   1      29.304 -10.959  -4.934  0.00  0.00    -0.084 Cl
ATOM     17  C   UNL d   1      26.862 -11.704  -4.084  0.00  0.00     0.025 A 
ATOM     18  C   UNL d   1      25.980 -12.609  -3.506  0.00  0.00     0.018 A 
ENDBRANCH   9  12
ENDBRANCH   4   8
BRANCH   1  19
ATOM     19  N   UNL d   1      21.452 -19.125   0.417  0.00  0.00    -0.327 N 
ATOM     20  C   UNL d   1      20.522 -19.700  -0.433  0.00  0.00     0.218 C 
ATOM     21  C   UNL d   1      19.585 -20.676   0.230  0.00  0.00     0.117 C 
ATOM     22  O   UNL d   1      20.452 -19.488  -1.642  0.00  0.00    -0.274 OA
ATOM     23  H   UNL d   1      21.636 -19.596   1.295  0.00  0.00     0.169 HD
ENDBRANCH   1  19
TORSDOF 3
ENDMDL
MODEL 2
REMARK VINA RESULT:    -8.115      2.893      8.470
REMARK INTER + INTRA:          -9.652
REMARK INTER:                  -9.009
REMARK INTRA:                  -0.643
REMARK CONF_INDEPENDENT:        0.895
REMARK UNBOUND:                -0.643
REMARK  3 active torsions:
REMARK  status: ('A' for Active; 'I' for Inactive)
REMARK       I    between atoms: C_2  and  N_4 
REMARK    1  A    between atoms: N_4  and  C_5 
REMARK    2  A    between atoms: C_8  and  N_9 
REMARK       I    between atoms: N_9  and  C_10 
REMARK    3  A    between atoms: C_10  and  C_12 
ROOT
ATOM      1  C   UNL d   1      26.670 -15.650  -1.808  0.00  0.00     0.036 A 
ATOM      2  C   UNL d   1      25.353 -15.558  -2.244  0.00  0.00     0.032 A 
ATOM      3  C   UNL d   1      24.369 -16.454  -1.767  0.00  0.00     0.033 A 
ATOM      4  C   UNL d   1      24.667 -17.445  -0.796  0.00  0.00     0.057 A 
ATOM      5  C   UNL d   1      26.014 -17.487  -0.352  0.00  0.00     0.062 A 
ATOM      6 CL   UNL d   1      26.736 -18.448   0.888  0.00  0.00    -0.082 Cl
ATOM      7  C   UNL d   1      26.991 -16.632  -0.892  0.00  0.00     0.055 A 
ENDROOT
BRANCH   4   8
ATOM      8  N   UNL d   1      23.567 -18.282  -0.379  0.00  0.00    -0.321 N 
ATOM      9  C   UNL d   1      22.217 -17.990  -0.473  0.00  0.00     0.256 C 
ATOM     10  O   UNL d   1      21.683 -16.962  -0.876  0.00  0.00    -0.267 OA
ATOM     11  H   UNL d   1      23.813 -19.194  -0.003  0.00  0.00     0.169 HD
BRANCH   9  12
ATOM     12  C   UNL d   1      21.203 -18.968  -0.058  0.00  0.00     0.032 A 
ATOM     13  C   UNL d   1      21.023 -19.323   1.276  0.00  0.00     0.018 A 
ATOM     14  C   UNL d   1      19.906 -20.090   1.624  0.00  0.00     0.025 A 
ATOM     15  C   UNL d   1      18.976 -20.478   0.650  0.00  0.00     0.034 A 
ATOM     16 CL   UNL d   1      17.632 -21.456   1.091  0.00  0.00    -0.084 Cl
ATOM     17  C   UNL d   1      19.124 -20.075  -0.673  0.00  0.00     0.025 A 
ATOM     18  C   UNL d   1      20.234 -19.317  -1.023  0.00  0.00     0.018 A 
ENDBRANCH   9  12
ENDBRANCH   4   8
BRANCH   1  19
ATOM     19  N   UNL d   1      27.695 -14.781  -2.241  0.00  0.00    -0.327 N 
ATOM     20  C   UNL d   1      28.381 -14.998  -3.424  0.00  0.00     0.218 C 
ATOM     21  C   UNL d   1      29.393 -13.935  -3.767  0.00  0.00     0.117 C 
ATOM     22  O   UNL d   1      28.190 -15.947  -4.180  0.00  0.00    -0.274 OA
ATOM     23  H   UNL d   1      27.687 -13.836  -1.871  0.00  0.00     0.169 HD
ENDBRANCH   1  19
TORSDOF 3
ENDMDL
MODEL 3
REMARK VINA RESULT:    -7.824      1.071      1.121
REMARK INTER + INTRA:          -9.363
REMARK INTER:                  -8.719
REMARK INTRA:                  -0.643
REMARK CONF_INDEPENDENT:        0.895
REMARK UNBOUND:                -0.643
REMARK  3 active torsions:
REMARK  status: ('A' for Active; 'I' for Inactive)
REMARK       I    between atoms: C_2  and  N_4 
REMARK    1  A    between atoms: N_4  and  C_5 
REMARK    2  A    between atoms: C_8  and  N_9 
REMARK       I    between atoms: N_9  and  C_10 
REMARK    3  A    between atoms: C_10  and  C_12 
ROOT
ATOM      1  C   UNL d   1      22.990 -17.951  -0.063  0.00  0.00     0.036 A 
ATOM      2  C   UNL d   1      22.766 -16.978  -1.031  0.00  0.00     0.032 A 
ATOM      3  C   UNL d   1      23.848 -16.300  -1.639  0.00  0.00     0.033 A 
ATOM      4  C   UNL d   1      25.196 -16.610  -1.326  0.00  0.00     0.057 A 
ATOM      5  C   UNL d   1      25.385 -17.628  -0.357  0.00  0.00     0.062 A 
ATOM      6 CL   UNL d   1      26.846 -18.367   0.195  0.00  0.00    -0.082 Cl
ATOM      7  C   UNL d   1      24.295 -18.242   0.285  0.00  0.00     0.055 A 
ENDROOT
BRANCH   4   8
ATOM      8  N   UNL d   1      26.205 -15.856  -2.033  0.00  0.00    -0.321 N 
ATOM      9  C   UNL d   1      26.094 -15.296  -3.294  0.00  0.00     0.256 C 
ATOM     10  O   UNL d   1      25.155 -15.360  -4.079  0.00  0.00    -0.267 OA
ATOM     11  H   UNL d   1      27.078 -15.699  -1.536  0.00  0.00     0.169 HD
BRANCH   9  12
ATOM     12  C   UNL d   1      27.190 -14.502  -3.865  0.00  0.00     0.032 A 
ATOM     13  C   UNL d   1      28.506 -14.954  -3.864  0.00  0.00     0.018 A 
ATOM     14  C   UNL d   1      29.460 -14.254  -4.611  0.00  0.00     0.025 A 
ATOM     15  C   UNL d   1      29.091 -13.129  -5.361  0.00  0.00     0.034 A 
ATOM     16 CL   UNL d   1      30.286 -12.256  -6.238  0.00  0.00    -0.084 Cl
ATOM     17  C   UNL d   1      27.766 -12.710  -5.409  0.00  0.00     0.025 A 
ATOM     18  C   UNL d   1      26.817 -13.401  -4.666  0.00  0.00     0.018 A 
ENDBRANCH   9  12
ENDBRANCH   4   8
BRANCH   1  19
ATOM     19  N   UNL d   1      21.955 -18.669   0.573  0.00  0.00    -0.327 N 
ATOM     20  C   UNL d   1      20.971 -19.321  -0.152  0.00  0.00     0.218 C 
ATOM     21  C   UNL d   1      19.985 -20.096   0.684  0.00  0.00     0.117 C 
ATOM     22  O   UNL d   1      20.891 -19.325  -1.378  0.00  0.00    -0.274 OA
ATOM     23  H   UNL d   1      22.126 -18.987   1.520  0.00  0.00     0.169 HD
ENDBRANCH   1  19
TORSDOF 3
ENDMDL
MODEL 4
REMARK VINA RESULT:    -6.741      2.727      3.434
REMARK INTER + INTRA:          -8.373
REMARK INTER:                  -7.636
REMARK INTRA:                  -0.737
REMARK CONF_INDEPENDENT:        0.895
REMARK UNBOUND:                -0.737
REMARK  3 active torsions:
REMARK  status: ('A' for Active; 'I' for Inactive)
REMARK       I    between atoms: C_2  and  N_4 
REMARK    1  A    between atoms: N_4  and  C_5 
REMARK    2  A    between atoms: C_8  and  N_9 
REMARK       I    between atoms: N_9  and  C_10 
REMARK    3  A    between atoms: C_10  and  C_12 
ROOT
ATOM      1  C   UNL d   1      24.344 -17.081  -0.840  0.00  0.00     0.036 A 
ATOM      2  C   UNL d   1      25.639 -17.585  -0.807  0.00  0.00     0.032 A 
ATOM      3  C   UNL d   1      26.645 -17.051  -1.645  0.00  0.00     0.033 A 
ATOM      4  C   UNL d   1      26.393 -15.958  -2.514  0.00  0.00     0.057 A 
ATOM      5  C   UNL d   1      25.068 -15.451  -2.497  0.00  0.00     0.062 A 
ATOM      6 CL   UNL d   1      24.405 -14.075  -3.302  0.00  0.00    -0.082 Cl
ATOM      7  C   UNL d   1      24.066 -16.042  -1.706  0.00  0.00     0.055 A 
ENDROOT
BRANCH   4   8
ATOM      8  N   UNL d   1      27.513 -15.497  -3.301  0.00  0.00    -0.321 N 
ATOM      9  C   UNL d   1      27.551 -15.328  -4.674  0.00  0.00     0.256 C 
ATOM     10  O   UNL d   1      26.679 -15.575  -5.499  0.00  0.00    -0.267 OA
ATOM     11  H   UNL d   1      28.351 -15.244  -2.784  0.00  0.00     0.169 HD
BRANCH   9  12
ATOM     12  C   UNL d   1      28.749 -14.794  -5.334  0.00  0.00     0.032 A 
ATOM     13  C   UNL d   1      29.974 -15.452  -5.285  0.00  0.00     0.018 A 
ATOM     14  C   UNL d   1      31.013 -15.005  -6.109  0.00  0.00     0.025 A 
ATOM     15  C   UNL d   1      30.816 -13.926  -6.982  0.00  0.00     0.034 A 
ATOM     16 CL   UNL d   1      32.118 -13.364  -7.955  0.00  0.00    -0.084 Cl
ATOM     17  C   UNL d   1      29.576 -13.304  -7.074  0.00  0.00     0.025 A 
ATOM     18  C   UNL d   1      28.543 -13.743  -6.254  0.00  0.00     0.018 A 
ENDBRANCH   9  12
ENDBRANCH   4   8
BRANCH   1  19
ATOM     19  N   UNL d   1      23.300 -17.566  -0.023  0.00  0.00    -0.327 N 
ATOM     20  C   UNL d   1      22.380 -18.490  -0.491  0.00  0.00     0.218 C 
ATOM     21  C   UNL d   1      21.376 -18.950   0.535  0.00  0.00     0.117 C 
ATOM     22  O   UNL d   1      22.367 -18.950  -1.630  0.00  0.00    -0.274 OA
ATOM     23  H   UNL d   1      23.429 -17.502   0.980  0.00  0.00     0.169 HD
ENDBRANCH   1  19
TORSDOF 3
ENDMDL
MODEL 5
REMARK VINA RESULT:    -6.689      2.382      2.908
REMARK INTER + INTRA:          -8.235
REMARK INTER:                  -7.584
REMARK INTRA:                  -0.651
REMARK CONF_INDEPENDENT:        0.895
REMARK UNBOUND:                -0.651
REMARK  3 active torsions:
REMARK  status: ('A' for Active; 'I' for Inactive)
REMARK       I    between atoms: C_2  and  N_4 
REMARK    1  A    between atoms: N_4  and  C_5 
REMARK    2  A    between atoms: C_8  and  N_9 
REMARK       I    between atoms: N_9  and  C_10 
REMARK    3  A    between atoms: C_10  and  C_12 
ROOT
ATOM      1  C   UNL d   1      24.328 -17.100  -0.798  0.00  0.00     0.036 A 
ATOM      2  C   UNL d   1      24.083 -16.395  -1.972  0.00  0.00     0.032 A 
ATOM      3  C   UNL d   1      25.151 -15.890  -2.748  0.00  0.00     0.033 A 
ATOM      4  C   UNL d   1      26.506 -16.117  -2.395  0.00  0.00     0.057 A 
ATOM      5  C   UNL d   1      26.716 -16.866  -1.209  0.00  0.00     0.062 A 
ATOM      6 CL   UNL d   1      28.188 -17.450  -0.520  0.00  0.00    -0.082 Cl
ATOM      7  C   UNL d   1      25.639 -17.300  -0.415  0.00  0.00     0.055 A 
ENDROOT
BRANCH   4   8
ATOM      8  N   UNL d   1      27.499 -15.563  -3.285  0.00  0.00    -0.321 N 
ATOM      9  C   UNL d   1      27.362 -15.329  -4.643  0.00  0.00     0.256 C 
ATOM     10  O   UNL d   1      26.408 -15.582  -5.370  0.00  0.00    -0.267 OA
ATOM     11  H   UNL d   1      28.382 -15.291  -2.860  0.00  0.00     0.169 HD
BRANCH   9  12
ATOM     12  C   UNL d   1      28.445 -14.704  -5.413  0.00  0.00     0.032 A 
ATOM     13  C   UNL d   1      29.652 -15.356  -5.652  0.00  0.00     0.018 A 
ATOM     14  C   UNL d   1      30.550 -14.796  -6.568  0.00  0.00     0.025 A 
ATOM     15  C   UNL d   1      30.231 -13.611  -7.245  0.00  0.00     0.034 A 
ATOM     16 CL   UNL d   1      31.366 -12.916  -8.334  0.00  0.00    -0.084 Cl
ATOM     17  C   UNL d   1      29.003 -12.990  -7.050  0.00  0.00     0.025 A 
ATOM     18  C   UNL d   1      28.110 -13.541  -6.138  0.00  0.00     0.018 A 
ENDBRANCH   9  12
ENDBRANCH   4   8
BRANCH   1  19
ATOM     19  N   UNL d   1      23.306 -17.636   0.015  0.00  0.00    -0.327 N 
ATOM     20  C   UNL d   1      22.380 -18.538  -0.482  0.00  0.00     0.218 C 
ATOM     21  C   UNL d   1      21.404 -19.062   0.540  0.00  0.00     0.117 C 
ATOM     22  O   UNL d   1      22.342 -18.933  -1.645  0.00  0.00    -0.274 OA
ATOM     23  H   UNL d   1      23.460 -17.628   1.017  0.00  0.00     0.169 HD
ENDBRANCH   1  19
TORSDOF 3
ENDMDL
MODEL 6
REMARK VINA RESULT:    -6.678      3.767      4.457
REMARK INTER + INTRA:          -8.293
REMARK INTER:                  -7.572
REMARK INTRA:                  -0.721
REMARK CONF_INDEPENDENT:        0.895
REMARK UNBOUND:                -0.721
REMARK  3 active torsions:
REMARK  status: ('A' for Active; 'I' for Inactive)
REMARK       I    between atoms: C_2  and  N_4 
REMARK    1  A    between atoms: N_4  and  C_5 
REMARK    2  A    between atoms: C_8  and  N_9 
REMARK       I    between atoms: N_9  and  C_10 
REMARK    3  A    between atoms: C_10  and  C_12 
ROOT
ATOM      1  C   UNL d   1      23.137 -17.918  -0.194  0.00  0.00     0.036 A 
ATOM      2  C   UNL d   1      24.159 -18.552   0.505  0.00  0.00     0.032 A 
ATOM      3  C   UNL d   1      25.512 -18.218   0.268  0.00  0.00     0.033 A 
ATOM      4  C   UNL d   1      25.883 -17.200  -0.647  0.00  0.00     0.057 A 
ATOM      5  C   UNL d   1      24.812 -16.555  -1.317  0.00  0.00     0.062 A 
ATOM      6 CL   UNL d   1      24.840 -15.206  -2.395  0.00  0.00    -0.082 Cl
ATOM      7  C   UNL d   1      23.477 -16.950  -1.118  0.00  0.00     0.055 A 
ENDROOT
BRANCH   4   8
ATOM      8  N   UNL d   1      27.298 -16.945  -0.779  0.00  0.00    -0.321 N 
ATOM      9  C   UNL d   1      28.104 -16.249   0.104  0.00  0.00     0.256 C 
ATOM     10  O   UNL d   1      27.786 -15.672   1.138  0.00  0.00    -0.267 OA
ATOM     11  H   UNL d   1      27.752 -17.346  -1.596  0.00  0.00     0.169 HD
BRANCH   9  12
ATOM     12  C   UNL d   1      29.547 -16.117  -0.135  0.00  0.00     0.032 A 
ATOM     13  C   UNL d   1      30.318 -15.155   0.511  0.00  0.00     0.018 A 
ATOM     14  C   UNL d   1      31.712 -15.224   0.404  0.00  0.00     0.025 A 
ATOM     15  C   UNL d   1      32.320 -16.254  -0.328  0.00  0.00     0.034 A 
ATOM     16 CL   UNL d   1      34.032 -16.296  -0.484  0.00  0.00    -0.084 Cl
ATOM     17  C   UNL d   1      31.554 -17.248  -0.927  0.00  0.00     0.025 A 
ATOM     18  C   UNL d   1      30.170 -17.181  -0.824  0.00  0.00     0.018 A 
ENDBRANCH   9  12
ENDBRANCH   4   8
BRANCH   1  19
ATOM     19  N   UNL d   1      21.768 -18.200   0.003  0.00  0.00    -0.327 N 
ATOM     20  C   UNL d   1      21.030 -18.906  -0.933  0.00  0.00     0.218 C 
ATOM     21  C   UNL d   1      19.603 -19.179  -0.530  0.00  0.00     0.117 C 
ATOM     22  O   UNL d   1      21.470 -19.325  -2.001  0.00  0.00    -0.274 OA
ATOM     23  H   UNL d   1      21.426 -18.190   0.957  0.00  0.00     0.169 HD
ENDBRANCH   1  19
TORSDOF 3
ENDMDL
MODEL 7
REMARK VINA RESULT:    -6.348      5.755      7.826
REMARK INTER + INTRA:          -7.953
REMARK INTER:                  -7.243
REMARK INTRA:                  -0.710
REMARK CONF_INDEPENDENT:        0.895
REMARK UNBOUND:                -0.710
REMARK  3 active torsions:
REMARK  status: ('A' for Active; 'I' for Inactive)
REMARK       I    between atoms: C_2  and  N_4 
REMARK    1  A    between atoms: N_4  and  C_5 
REMARK    2  A    between atoms: C_8  and  N_9 
REMARK       I    between atoms: N_9  and  C_10 
REMARK    3  A    between atoms: C_10  and  C_12 
ROOT
ATOM      1  C   UNL d   1      27.377 -15.252  -1.931  0.00  0.00     0.036 A 
ATOM      2  C   UNL d   1      27.896 -14.092  -1.366  0.00  0.00     0.032 A 
ATOM      3  C   UNL d   1      28.087 -13.990   0.031  0.00  0.00     0.033 A 
ATOM      4  C   UNL d   1      27.806 -15.071   0.906  0.00  0.00     0.057 A 
ATOM      5  C   UNL d   1      27.308 -16.249   0.289  0.00  0.00     0.062 A 
ATOM      6 CL   UNL d   1      26.970 -17.794   0.980  0.00  0.00    -0.082 Cl
ATOM      7  C   UNL d   1      27.061 -16.304  -1.094  0.00  0.00     0.055 A 
ENDROOT
BRANCH   4   8
ATOM      8  N   UNL d   1      28.065 -14.842   2.308  0.00  0.00    -0.321 N 
ATOM      9  C   UNL d   1      27.533 -13.838   3.098  0.00  0.00     0.256 C 
ATOM     10  O   UNL d   1      26.786 -12.923   2.773  0.00  0.00    -0.267 OA
ATOM     11  H   UNL d   1      28.682 -15.508   2.765  0.00  0.00     0.169 HD
BRANCH   9  12
ATOM     12  C   UNL d   1      27.845 -13.763   4.532  0.00  0.00     0.032 A 
ATOM     13  C   UNL d   1      28.441 -14.820   5.214  0.00  0.00     0.018 A 
ATOM     14  C   UNL d   1      28.905 -14.605   6.516  0.00  0.00     0.025 A 
ATOM     15  C   UNL d   1      28.788 -13.343   7.116  0.00  0.00     0.034 A 
ATOM     16 CL   UNL d   1      29.325 -13.111   8.732  0.00  0.00    -0.084 Cl
ATOM     17  C   UNL d   1      28.245 -12.272   6.415  0.00  0.00     0.025 A 
ATOM     18  C   UNL d   1      27.780 -12.482   5.123  0.00  0.00     0.018 A 
ENDBRANCH   9  12
ENDBRANCH   4   8
BRANCH   1  19
ATOM     19  N   UNL d   1      27.172 -15.417  -3.317  0.00  0.00    -0.327 N 
ATOM     20  C   UNL d   1      25.929 -15.221  -3.896  0.00  0.00     0.218 C 
ATOM     21  C   UNL d   1      25.905 -15.371  -5.396  0.00  0.00     0.117 C 
ATOM     22  O   UNL d   1      24.911 -14.914  -3.281  0.00  0.00    -0.274 OA
ATOM     23  H   UNL d   1      27.985 -15.341  -3.918  0.00  0.00     0.169 HD
ENDBRANCH   1  19
TORSDOF 3
ENDMDL
MODEL 8
REMARK VINA RESULT:    -6.094      3.134      8.696
REMARK INTER + INTRA:          -7.708
REMARK INTER:                  -6.989
REMARK INTRA:                  -0.719
REMARK CONF_INDEPENDENT:        0.895
REMARK UNBOUND:                -0.719
REMARK  3 active torsions:
REMARK  status: ('A' for Active; 'I' for Inactive)
REMARK       I    between atoms: C_2  and  N_4 
REMARK    1  A    between atoms: N_4  and  C_5 
REMARK    2  A    between atoms: C_8  and  N_9 
REMARK       I    between atoms: N_9  and  C_10 
REMARK    3  A    between atoms: C_10  and  C_12 
ROOT
ATOM      1  C   UNL d   1      29.167 -14.129  -4.854  0.00  0.00     0.036 A 
ATOM      2  C   UNL d   1      29.236 -15.396  -4.285  0.00  0.00     0.032 A 
ATOM      3  C   UNL d   1      28.120 -15.950  -3.617  0.00  0.00     0.033 A 
ATOM      4  C   UNL d   1      26.879 -15.267  -3.539  0.00  0.00     0.057 A 
ATOM      5  C   UNL d   1      26.838 -13.992  -4.159  0.00  0.00     0.062 A 
ATOM      6 CL   UNL d   1      25.503 -12.920  -4.387  0.00  0.00    -0.082 Cl
ATOM      7  C   UNL d   1      27.980 -13.430  -4.758  0.00  0.00     0.055 A 
ENDROOT
BRANCH   4   8
ATOM      8  N   UNL d   1      25.814 -15.954  -2.846  0.00  0.00    -0.321 N 
ATOM      9  C   UNL d   1      25.715 -16.172  -1.482  0.00  0.00     0.256 C 
ATOM     10  O   UNL d   1      26.514 -15.878  -0.600  0.00  0.00    -0.267 OA
ATOM     11  H   UNL d   1      25.045 -16.287  -3.421  0.00  0.00     0.169 HD
BRANCH   9  12
ATOM     12  C   UNL d   1      24.539 -16.841  -0.910  0.00  0.00     0.032 A 
ATOM     13  C   UNL d   1      23.265 -16.287  -0.988  0.00  0.00     0.018 A 
ATOM     14  C   UNL d   1      22.166 -17.070  -0.618  0.00  0.00     0.025 A 
ATOM     15  C   UNL d   1      22.344 -18.394  -0.193  0.00  0.00     0.034 A 
ATOM     16 CL   UNL d   1      20.986 -19.326   0.298  0.00  0.00    -0.084 Cl
ATOM     17  C   UNL d   1      23.611 -18.967  -0.170  0.00  0.00     0.025 A 
ATOM     18  C   UNL d   1      24.705 -18.191  -0.533  0.00  0.00     0.018 A 
ENDBRANCH   9  12
ENDBRANCH   4   8
BRANCH   1  19
ATOM     19  N   UNL d   1      30.242 -13.525  -5.541  0.00  0.00    -0.327 N 
ATOM     20  C   UNL d   1      30.776 -14.084  -6.690  0.00  0.00     0.218 C 
ATOM     21  C   UNL d   1      31.872 -13.272  -7.333  0.00  0.00     0.117 C 
ATOM     22  O   UNL d   1      30.396 -15.136  -7.199  0.00  0.00    -0.274 OA
ATOM     23  H   UNL d   1      30.387 -12.533  -5.393  0.00  0.00     0.169 HD
ENDBRANCH   1  19
TORSDOF 3
ENDMDL
MODEL 9
REMARK VINA RESULT:    -5.933      4.016      8.549
REMARK INTER + INTRA:          -7.558
REMARK INTER:                  -6.828
REMARK INTRA:                  -0.730
REMARK CONF_INDEPENDENT:        0.895
REMARK UNBOUND:                -0.730
REMARK  3 active torsions:
REMARK  status: ('A' for Active; 'I' for Inactive)
REMARK       I    between atoms: C_2  and  N_4 
REMARK    1  A    between atoms: N_4  and  C_5 
REMARK    2  A    between atoms: C_8  and  N_9 
REMARK       I    between atoms: N_9  and  C_10 
REMARK    3  A    between atoms: C_10  and  C_12 
ROOT
ATOM      1  C   UNL d   1      30.563 -15.433  -0.085  0.00  0.00     0.036 A 
ATOM      2  C   UNL d   1      30.069 -16.527  -0.789  0.00  0.00     0.032 A 
ATOM      3  C   UNL d   1      28.722 -16.929  -0.646  0.00  0.00     0.033 A 
ATOM      4  C   UNL d   1      27.810 -16.217   0.175  0.00  0.00     0.057 A 
ATOM      5  C   UNL d   1      28.342 -15.089   0.852  0.00  0.00     0.062 A 
ATOM      6 CL   UNL d   1      27.542 -13.911   1.828  0.00  0.00    -0.082 Cl
ATOM      7  C   UNL d   1      29.703 -14.747   0.749  0.00  0.00     0.055 A 
ENDROOT
BRANCH   4   8
ATOM      8  N   UNL d   1      26.458 -16.723   0.216  0.00  0.00    -0.321 N 
ATOM      9  C   UNL d   1      25.494 -16.602  -0.770  0.00  0.00     0.256 C 
ATOM     10  O   UNL d   1      25.566 -16.013  -1.842  0.00  0.00    -0.267 OA
ATOM     11  H   UNL d   1      26.200 -17.246   1.049  0.00  0.00     0.169 HD
BRANCH   9  12
ATOM     12  C   UNL d   1      24.172 -17.221  -0.611  0.00  0.00     0.032 A 
ATOM     13  C   UNL d   1      22.995 -16.520  -0.855  0.00  0.00     0.018 A 
ATOM     14  C   UNL d   1      21.786 -17.224  -0.895  0.00  0.00     0.025 A 
ATOM     15  C   UNL d   1      21.765 -18.613  -0.709  0.00  0.00     0.034 A 
ATOM     16 CL   UNL d   1      20.265 -19.455  -0.718  0.00  0.00    -0.084 Cl
ATOM     17  C   UNL d   1      22.945 -19.323  -0.521  0.00  0.00     0.025 A 
ATOM     18  C   UNL d   1      24.147 -18.626  -0.478  0.00  0.00     0.018 A 
ENDBRANCH   9  12
ENDBRANCH   4   8
BRANCH   1  19
ATOM     19  N   UNL d   1      31.894 -14.977  -0.192  0.00  0.00    -0.327 N 
ATOM     20  C   UNL d   1      32.207 -13.788  -0.829  0.00  0.00     0.218 C 
ATOM     21  C   UNL d   1      33.668 -13.419  -0.789  0.00  0.00     0.117 C 
ATOM     22  O   UNL d   1      31.388 -13.045  -1.366  0.00  0.00    -0.274 OA
ATOM     23  H   UNL d   1      32.562 -15.335   0.483  0.00  0.00     0.169 HD
ENDBRANCH   1  19
TORSDOF 3
ENDMDL
