MODEL 1
REMARK VINA RESULT:    -8.421      0.000      0.000
REMARK INTER + INTRA:          -9.475
REMARK INTER:                  -9.316
REMARK INTRA:                  -0.159
REMARK CONF_INDEPENDENT:        0.895
REMARK UNBOUND:                -0.159
REMARK  3 active torsions:
REMARK  status: ('A' for Active; 'I' for Inactive)
REMARK    1  A    between atoms: C_2  and  O_4 
REMARK    2  A    between atoms: O_4  and  N_5 
REMARK       I    between atoms: N_5  and  C_6 
REMARK       I    between atoms: C_6  and  N_8 
REMARK    3  A    between atoms: N_8  and  C_9 
ROOT
ATOM      1  C   UNL d   1      23.812 -17.636  -0.515  0.00  0.00     0.047 A 
ATOM      2  C   UNL d   1      23.178 -16.602  -1.217  0.00  0.00     0.030 A 
ATOM      3  C   UNL d   1      23.908 -15.575  -1.808  0.00  0.00     0.003 A 
ATOM      4  C   UNL d   1      25.293 -15.562  -1.709  0.00  0.00     0.012 A 
ATOM      5  C   UNL d   1      25.965 -16.549  -0.978  0.00  0.00    -0.024 A 
ATOM      6  C   UNL d   1      27.367 -16.493  -0.879  0.00  0.00     0.012 A 
ATOM      7  C   UNL d   1      28.072 -17.461  -0.172  0.00  0.00     0.001 A 
ATOM      8  C   UNL d   1      27.382 -18.501   0.439  0.00  0.00     0.001 A 
ATOM      9  C   UNL d   1      25.986 -18.575   0.345  0.00  0.00     0.014 A 
ATOM     10  C   UNL d   1      25.232 -17.602  -0.353  0.00  0.00     0.001 A 
ENDROOT
BRANCH   1  11
ATOM     11  N   UNL d   1      22.998 -18.680   0.030  0.00  0.00    -0.306 N 
ATOM     12  C   UNL d   1      21.685 -18.893  -0.400  0.00  0.00     0.344 C 
ATOM     13  N   UNL d   1      21.061 -19.949   0.234  0.00  0.00    -0.216 N 
ATOM     14  O   UNL d   1      21.129 -18.219  -1.270  0.00  0.00    -0.245 OA
ATOM     15  H   UNL d   1      21.507 -20.554   0.904  0.00  0.00     0.199 HD
ATOM     16  H   UNL d   1      23.472 -19.445   0.481  0.00  0.00     0.171 HD
BRANCH  13  17
ATOM     17  O   UNL d   1      19.759 -20.283  -0.247  0.00  0.00    -0.272 OA
BRANCH  17  18
ATOM     18  C   UNL d   1      18.778 -20.250   0.801  0.00  0.00     0.144 C 
ATOM     19  C   UNL d   1      18.025 -21.586   0.835  0.00  0.00     0.042 C 
ATOM     20  C   UNL d   1      19.444 -20.033   2.156  0.00  0.00     0.042 C 
ENDBRANCH  17  18
ENDBRANCH  13  17
ENDBRANCH   1  11
TORSDOF 3
ENDMDL
MODEL 2
REMARK VINA RESULT:    -8.308      1.279      2.557
REMARK INTER + INTRA:          -9.483
REMARK INTER:                  -9.203
REMARK INTRA:                  -0.281
REMARK CONF_INDEPENDENT:        0.895
REMARK UNBOUND:                -0.281
REMARK  3 active torsions:
REMARK  status: ('A' for Active; 'I' for Inactive)
REMARK    1  A    between atoms: C_2  and  O_4 
REMARK    2  A    between atoms: O_4  and  N_5 
REMARK       I    between atoms: N_5  and  C_6 
REMARK       I    between atoms: C_6  and  N_8 
REMARK    3  A    between atoms: N_8  and  C_9 
ROOT
ATOM      1  C   UNL d   1      24.082 -17.328  -0.724  0.00  0.00     0.047 A 
ATOM      2  C   UNL d   1      24.609 -18.201   0.238  0.00  0.00     0.030 A 
ATOM      3  C   UNL d   1      25.950 -18.148   0.605  0.00  0.00     0.003 A 
ATOM      4  C   UNL d   1      26.794 -17.214   0.017  0.00  0.00     0.012 A 
ATOM      5  C   UNL d   1      26.321 -16.354  -0.981  0.00  0.00    -0.024 A 
ATOM      6  C   UNL d   1      27.209 -15.437  -1.572  0.00  0.00     0.012 A 
ATOM      7  C   UNL d   1      26.774 -14.557  -2.558  0.00  0.00     0.001 A 
ATOM      8  C   UNL d   1      25.445 -14.581  -2.959  0.00  0.00     0.001 A 
ATOM      9  C   UNL d   1      24.546 -15.485  -2.377  0.00  0.00     0.014 A 
ATOM     10  C   UNL d   1      24.952 -16.405  -1.381  0.00  0.00     0.001 A 
ENDROOT
BRANCH   1  11
ATOM     11  N   UNL d   1      22.684 -17.416  -1.020  0.00  0.00    -0.306 N 
ATOM     12  C   UNL d   1      21.989 -18.627  -0.951  0.00  0.00     0.344 C 
ATOM     13  N   UNL d   1      20.649 -18.514  -1.263  0.00  0.00    -0.216 N 
ATOM     14  O   UNL d   1      22.507 -19.700  -0.633  0.00  0.00    -0.245 OA
ATOM     15  H   UNL d   1      20.185 -17.645  -1.469  0.00  0.00     0.199 HD
ATOM     16  H   UNL d   1      22.147 -16.566  -0.963  0.00  0.00     0.171 HD
BRANCH  13  17
ATOM     17  O   UNL d   1      19.868 -19.697  -1.100  0.00  0.00    -0.272 OA
BRANCH  17  18
ATOM     18  C   UNL d   1      19.160 -19.701   0.150  0.00  0.00     0.144 C 
ATOM     19  C   UNL d   1      18.271 -20.949   0.227  0.00  0.00     0.042 C 
ATOM     20  C   UNL d   1      20.136 -19.727   1.322  0.00  0.00     0.042 C 
ENDBRANCH  17  18
ENDBRANCH  13  17
ENDBRANCH   1  11
TORSDOF 3
ENDMDL
MODEL 3
REMARK VINA RESULT:    -6.919      0.999      1.087
REMARK INTER + INTRA:          -8.230
REMARK INTER:                  -7.814
REMARK INTRA:                  -0.416
REMARK CONF_INDEPENDENT:        0.895
REMARK UNBOUND:                -0.416
REMARK  3 active torsions:
REMARK  status: ('A' for Active; 'I' for Inactive)
REMARK    1  A    between atoms: C_2  and  O_4 
REMARK    2  A    between atoms: O_4  and  N_5 
REMARK       I    between atoms: N_5  and  C_6 
REMARK       I    between atoms: C_6  and  N_8 
REMARK    3  A    between atoms: N_8  and  C_9 
ROOT
ATOM      1  C   UNL d   1      24.237 -16.626  -0.913  0.00  0.00     0.047 A 
ATOM      2  C   UNL d   1      23.919 -15.680  -1.896  0.00  0.00     0.030 A 
ATOM      3  C   UNL d   1      24.895 -15.149  -2.733  0.00  0.00     0.003 A 
ATOM      4  C   UNL d   1      26.217 -15.559  -2.605  0.00  0.00     0.012 A 
ATOM      5  C   UNL d   1      26.588 -16.467  -1.606  0.00  0.00    -0.024 A 
ATOM      6  C   UNL d   1      27.938 -16.843  -1.489  0.00  0.00     0.012 A 
ATOM      7  C   UNL d   1      28.345 -17.752  -0.518  0.00  0.00     0.001 A 
ATOM      8  C   UNL d   1      27.403 -18.300   0.343  0.00  0.00     0.001 A 
ATOM      9  C   UNL d   1      26.053 -17.942   0.236  0.00  0.00     0.014 A 
ATOM     10  C   UNL d   1      25.602 -17.010  -0.729  0.00  0.00     0.001 A 
ENDROOT
BRANCH   1  11
ATOM     11  N   UNL d   1      23.172 -17.157  -0.117  0.00  0.00    -0.306 N 
ATOM     12  C   UNL d   1      22.379 -18.220  -0.559  0.00  0.00     0.344 C 
ATOM     13  N   UNL d   1      21.409 -18.599   0.347  0.00  0.00    -0.216 N 
ATOM     14  O   UNL d   1      22.527 -18.782  -1.647  0.00  0.00    -0.245 OA
ATOM     15  H   UNL d   1      21.301 -18.200   1.265  0.00  0.00     0.199 HD
ATOM     16  H   UNL d   1      23.206 -16.980   0.874  0.00  0.00     0.171 HD
BRANCH  13  17
ATOM     17  O   UNL d   1      20.644 -19.752  -0.004  0.00  0.00    -0.272 OA
BRANCH  17  18
ATOM     18  C   UNL d   1      19.352 -19.748   0.623  0.00  0.00     0.144 C 
ATOM     19  C   UNL d   1      18.413 -20.689  -0.141  0.00  0.00     0.042 C 
ATOM     20  C   UNL d   1      19.453 -20.229   2.067  0.00  0.00     0.042 C 
ENDBRANCH  17  18
ENDBRANCH  13  17
ENDBRANCH   1  11
TORSDOF 3
ENDMDL
MODEL 4
REMARK VINA RESULT:    -6.557      4.720      7.199
REMARK INTER + INTRA:          -7.875
REMARK INTER:                  -7.452
REMARK INTRA:                  -0.422
REMARK CONF_INDEPENDENT:        0.895
REMARK UNBOUND:                -0.422
REMARK  3 active torsions:
REMARK  status: ('A' for Active; 'I' for Inactive)
REMARK    1  A    between atoms: C_2  and  O_4 
REMARK    2  A    between atoms: O_4  and  N_5 
REMARK       I    between atoms: N_5  and  C_6 
REMARK       I    between atoms: C_6  and  N_8 
REMARK    3  A    between atoms: N_8  and  C_9 
ROOT
ATOM      1  C   UNL d   1      26.983 -15.920  -0.396  0.00  0.00     0.047 A 
ATOM      2  C   UNL d   1      27.322 -15.103  -1.483  0.00  0.00     0.030 A 
ATOM      3  C   UNL d   1      26.585 -15.126  -2.663  0.00  0.00     0.003 A 
ATOM      4  C   UNL d   1      25.487 -15.970  -2.779  0.00  0.00     0.012 A 
ATOM      5  C   UNL d   1      25.141 -16.837  -1.736  0.00  0.00    -0.024 A 
ATOM      6  C   UNL d   1      24.037 -17.694  -1.896  0.00  0.00     0.012 A 
ATOM      7  C   UNL d   1      23.653 -18.561  -0.878  0.00  0.00     0.001 A 
ATOM      8  C   UNL d   1      24.366 -18.575   0.314  0.00  0.00     0.001 A 
ATOM      9  C   UNL d   1      25.464 -17.723   0.492  0.00  0.00     0.014 A 
ATOM     10  C   UNL d   1      25.894 -16.837  -0.524  0.00  0.00     0.001 A 
ENDROOT
BRANCH   1  11
ATOM     11  N   UNL d   1      27.763 -15.811   0.799  0.00  0.00    -0.306 N 
ATOM     12  C   UNL d   1      27.646 -14.715   1.659  0.00  0.00     0.344 C 
ATOM     13  N   UNL d   1      28.472 -14.789   2.764  0.00  0.00    -0.216 N 
ATOM     14  O   UNL d   1      26.876 -13.771   1.470  0.00  0.00    -0.245 OA
ATOM     15  H   UNL d   1      29.068 -15.572   2.977  0.00  0.00     0.199 HD
ATOM     16  H   UNL d   1      28.151 -16.661   1.176  0.00  0.00     0.171 HD
BRANCH  13  17
ATOM     17  O   UNL d   1      28.312 -13.754   3.733  0.00  0.00    -0.272 OA
BRANCH  17  18
ATOM     18  C   UNL d   1      28.206 -14.280   5.065  0.00  0.00     0.144 C 
ATOM     19  C   UNL d   1      29.569 -14.828   5.506  0.00  0.00     0.042 C 
ATOM     20  C   UNL d   1      27.781 -13.189   6.043  0.00  0.00     0.042 C 
ENDBRANCH  17  18
ENDBRANCH  13  17
ENDBRANCH   1  11
TORSDOF 3
ENDMDL
MODEL 5
REMARK VINA RESULT:    -6.498      3.801      7.402
REMARK INTER + INTRA:          -7.871
REMARK INTER:                  -7.392
REMARK INTRA:                  -0.479
REMARK CONF_INDEPENDENT:        0.895
REMARK UNBOUND:                -0.479
REMARK  3 active torsions:
REMARK  status: ('A' for Active; 'I' for Inactive)
REMARK    1  A    between atoms: C_2  and  O_4 
REMARK    2  A    between atoms: O_4  and  N_5 
REMARK       I    between atoms: N_5  and  C_6 
REMARK       I    between atoms: C_6  and  N_8 
REMARK    3  A    between atoms: N_8  and  C_9 
ROOT
ATOM      1  C   UNL d   1      25.784 -15.995  -1.051  0.00  0.00     0.047 A 
ATOM      2  C   UNL d   1      27.037 -16.502  -0.682  0.00  0.00     0.030 A 
ATOM      3  C   UNL d   1      27.171 -17.777  -0.139  0.00  0.00     0.003 A 
ATOM      4  C   UNL d   1      26.048 -18.574   0.044  0.00  0.00     0.012 A 
ATOM      5  C   UNL d   1      24.771 -18.091  -0.268  0.00  0.00    -0.024 A 
ATOM      6  C   UNL d   1      23.654 -18.917  -0.049  0.00  0.00     0.012 A 
ATOM      7  C   UNL d   1      22.371 -18.478  -0.358  0.00  0.00     0.001 A 
ATOM      8  C   UNL d   1      22.192 -17.210  -0.895  0.00  0.00     0.001 A 
ATOM      9  C   UNL d   1      23.295 -16.377  -1.126  0.00  0.00     0.014 A 
ATOM     10  C   UNL d   1      24.614 -16.781  -0.812  0.00  0.00     0.001 A 
ENDROOT
BRANCH   1  11
ATOM     11  N   UNL d   1      25.730 -14.692  -1.641  0.00  0.00    -0.306 N 
ATOM     12  C   UNL d   1      25.510 -14.510  -3.010  0.00  0.00     0.344 C 
ATOM     13  N   UNL d   1      25.483 -13.183  -3.393  0.00  0.00    -0.216 N 
ATOM     14  O   UNL d   1      25.342 -15.434  -3.808  0.00  0.00    -0.245 OA
ATOM     15  H   UNL d   1      25.557 -12.406  -2.757  0.00  0.00     0.199 HD
ATOM     16  H   UNL d   1      25.533 -13.917  -1.029  0.00  0.00     0.171 HD
BRANCH  13  17
ATOM     17  O   UNL d   1      25.148 -12.935  -4.758  0.00  0.00    -0.272 OA
BRANCH  17  18
ATOM     18  C   UNL d   1      25.961 -11.895  -5.327  0.00  0.00     0.144 C 
ATOM     19  C   UNL d   1      25.909 -10.658  -4.422  0.00  0.00     0.042 C 
ATOM     20  C   UNL d   1      27.412 -12.350  -5.446  0.00  0.00     0.042 C 
ENDBRANCH  17  18
ENDBRANCH  13  17
ENDBRANCH   1  11
TORSDOF 3
ENDMDL
MODEL 6
REMARK VINA RESULT:    -6.266      4.943      7.347
REMARK INTER + INTRA:          -7.678
REMARK INTER:                  -7.161
REMARK INTRA:                  -0.517
REMARK CONF_INDEPENDENT:        0.895
REMARK UNBOUND:                -0.517
REMARK  3 active torsions:
REMARK  status: ('A' for Active; 'I' for Inactive)
REMARK    1  A    between atoms: C_2  and  O_4 
REMARK    2  A    between atoms: O_4  and  N_5 
REMARK       I    between atoms: N_5  and  C_6 
REMARK       I    between atoms: C_6  and  N_8 
REMARK    3  A    between atoms: N_8  and  C_9 
ROOT
ATOM      1  C   UNL d   1      26.820 -16.231   0.046  0.00  0.00     0.047 A 
ATOM      2  C   UNL d   1      26.099 -17.413   0.261  0.00  0.00     0.030 A 
ATOM      3  C   UNL d   1      25.111 -17.830  -0.625  0.00  0.00     0.003 A 
ATOM      4  C   UNL d   1      24.824 -17.069  -1.752  0.00  0.00     0.012 A 
ATOM      5  C   UNL d   1      25.487 -15.857  -1.982  0.00  0.00    -0.024 A 
ATOM      6  C   UNL d   1      25.155 -15.101  -3.121  0.00  0.00     0.012 A 
ATOM      7  C   UNL d   1      25.800 -13.898  -3.392  0.00  0.00     0.001 A 
ATOM      8  C   UNL d   1      26.788 -13.442  -2.529  0.00  0.00     0.001 A 
ATOM      9  C   UNL d   1      27.135 -14.187  -1.393  0.00  0.00     0.014 A 
ATOM     10  C   UNL d   1      26.493 -15.407  -1.076  0.00  0.00     0.001 A 
ENDROOT
BRANCH   1  11
ATOM     11  N   UNL d   1      27.850 -15.888   0.980  0.00  0.00    -0.306 N 
ATOM     12  C   UNL d   1      27.775 -14.738   1.771  0.00  0.00     0.344 C 
ATOM     13  N   UNL d   1      28.856 -14.579   2.616  0.00  0.00    -0.216 N 
ATOM     14  O   UNL d   1      26.837 -13.940   1.738  0.00  0.00    -0.245 OA
ATOM     15  H   UNL d   1      29.608 -15.242   2.709  0.00  0.00     0.199 HD
ATOM     16  H   UNL d   1      28.456 -16.631   1.289  0.00  0.00     0.171 HD
BRANCH  13  17
ATOM     17  O   UNL d   1      28.779 -13.484   3.528  0.00  0.00    -0.272 OA
BRANCH  17  18
ATOM     18  C   UNL d   1      27.901 -13.766   4.630  0.00  0.00     0.144 C 
ATOM     19  C   UNL d   1      28.155 -15.194   5.128  0.00  0.00     0.042 C 
ATOM     20  C   UNL d   1      28.154 -12.798   5.781  0.00  0.00     0.042 C 
ENDBRANCH  17  18
ENDBRANCH  13  17
ENDBRANCH   1  11
TORSDOF 3
ENDMDL
MODEL 7
REMARK VINA RESULT:    -6.127      5.453      7.767
REMARK INTER + INTRA:          -7.482
REMARK INTER:                  -7.022
REMARK INTRA:                  -0.460
REMARK CONF_INDEPENDENT:        0.895
REMARK UNBOUND:                -0.460
REMARK  3 active torsions:
REMARK  status: ('A' for Active; 'I' for Inactive)
REMARK    1  A    between atoms: C_2  and  O_4 
REMARK    2  A    between atoms: O_4  and  N_5 
REMARK       I    between atoms: N_5  and  C_6 
REMARK       I    between atoms: C_6  and  N_8 
REMARK    3  A    between atoms: N_8  and  C_9 
ROOT
ATOM      1  C   UNL d   1      27.597 -14.577   0.572  0.00  0.00     0.047 A 
ATOM      2  C   UNL d   1      27.866 -13.300   0.060  0.00  0.00     0.030 A 
ATOM      3  C   UNL d   1      27.267 -12.849  -1.112  0.00  0.00     0.003 A 
ATOM      4  C   UNL d   1      26.380 -13.670  -1.798  0.00  0.00     0.012 A 
ATOM      5  C   UNL d   1      26.118 -14.971  -1.348  0.00  0.00    -0.024 A 
ATOM      6  C   UNL d   1      25.233 -15.783  -2.081  0.00  0.00     0.012 A 
ATOM      7  C   UNL d   1      24.938 -17.075  -1.660  0.00  0.00     0.001 A 
ATOM      8  C   UNL d   1      25.519 -17.567  -0.499  0.00  0.00     0.001 A 
ATOM      9  C   UNL d   1      26.398 -16.768   0.246  0.00  0.00     0.014 A 
ATOM     10  C   UNL d   1      26.735 -15.455  -0.157  0.00  0.00     0.001 A 
ENDROOT
BRANCH   1  11
ATOM     11  N   UNL d   1      28.220 -14.955   1.804  0.00  0.00    -0.306 N 
ATOM     12  C   UNL d   1      27.780 -14.459   3.035  0.00  0.00     0.344 C 
ATOM     13  N   UNL d   1      28.497 -14.942   4.113  0.00  0.00    -0.216 N 
ATOM     14  O   UNL d   1      26.837 -13.675   3.164  0.00  0.00    -0.245 OA
ATOM     15  H   UNL d   1      29.232 -15.626   4.046  0.00  0.00     0.199 HD
ATOM     16  H   UNL d   1      28.753 -15.809   1.808  0.00  0.00     0.171 HD
BRANCH  13  17
ATOM     17  O   UNL d   1      28.019 -14.558   5.402  0.00  0.00    -0.272 OA
BRANCH  17  18
ATOM     18  C   UNL d   1      28.864 -13.569   6.012  0.00  0.00     0.144 C 
ATOM     19  C   UNL d   1      28.051 -12.294   6.268  0.00  0.00     0.042 C 
ATOM     20  C   UNL d   1      29.409 -14.075   7.344  0.00  0.00     0.042 C 
ENDBRANCH  17  18
ENDBRANCH  13  17
ENDBRANCH   1  11
TORSDOF 3
ENDMDL
MODEL 8
REMARK VINA RESULT:    -5.920      4.705      8.105
REMARK INTER + INTRA:          -7.261
REMARK INTER:                  -6.815
REMARK INTRA:                  -0.446
REMARK CONF_INDEPENDENT:        0.895
REMARK UNBOUND:                -0.446
REMARK  3 active torsions:
REMARK  status: ('A' for Active; 'I' for Inactive)
REMARK    1  A    between atoms: C_2  and  O_4 
REMARK    2  A    between atoms: O_4  and  N_5 
REMARK       I    between atoms: N_5  and  C_6 
REMARK       I    between atoms: C_6  and  N_8 
REMARK    3  A    between atoms: N_8  and  C_9 
ROOT
ATOM      1  C   UNL d   1      26.609 -15.930  -1.935  0.00  0.00     0.047 A 
ATOM      2  C   UNL d   1      27.822 -15.679  -1.279  0.00  0.00     0.030 A 
ATOM      3  C   UNL d   1      28.113 -16.259  -0.048  0.00  0.00     0.003 A 
ATOM      4  C   UNL d   1      27.192 -17.108   0.554  0.00  0.00     0.012 A 
ATOM      5  C   UNL d   1      25.949 -17.350  -0.043  0.00  0.00    -0.024 A 
ATOM      6  C   UNL d   1      25.032 -18.197   0.605  0.00  0.00     0.012 A 
ATOM      7  C   UNL d   1      23.791 -18.473   0.039  0.00  0.00     0.001 A 
ATOM      8  C   UNL d   1      23.458 -17.909  -1.186  0.00  0.00     0.001 A 
ATOM      9  C   UNL d   1      24.363 -17.068  -1.848  0.00  0.00     0.014 A 
ATOM     10  C   UNL d   1      25.627 -16.752  -1.298  0.00  0.00     0.001 A 
ENDROOT
BRANCH   1  11
ATOM     11  N   UNL d   1      26.398 -15.330  -3.217  0.00  0.00    -0.306 N 
ATOM     12  C   UNL d   1      27.315 -15.480  -4.262  0.00  0.00     0.344 C 
ATOM     13  N   UNL d   1      26.938 -14.837  -5.424  0.00  0.00    -0.216 N 
ATOM     14  O   UNL d   1      28.358 -16.131  -4.173  0.00  0.00    -0.245 OA
ATOM     15  H   UNL d   1      26.066 -14.349  -5.547  0.00  0.00     0.199 HD
ATOM     16  H   UNL d   1      25.453 -15.077  -3.458  0.00  0.00     0.171 HD
BRANCH  13  17
ATOM     17  O   UNL d   1      27.780 -15.051  -6.557  0.00  0.00    -0.272 OA
BRANCH  17  18
ATOM     18  C   UNL d   1      28.956 -14.227  -6.511  0.00  0.00     0.144 C 
ATOM     19  C   UNL d   1      30.196 -15.100  -6.741  0.00  0.00     0.042 C 
ATOM     20  C   UNL d   1      28.907 -13.157  -7.596  0.00  0.00     0.042 C 
ENDBRANCH  17  18
ENDBRANCH  13  17
ENDBRANCH   1  11
TORSDOF 3
ENDMDL
MODEL 9
REMARK VINA RESULT:    -5.902      6.157      7.768
REMARK INTER + INTRA:          -7.150
REMARK INTER:                  -6.797
REMARK INTRA:                  -0.353
REMARK CONF_INDEPENDENT:        0.895
REMARK UNBOUND:                -0.353
REMARK  3 active torsions:
REMARK  status: ('A' for Active; 'I' for Inactive)
REMARK    1  A    between atoms: C_2  and  O_4 
REMARK    2  A    between atoms: O_4  and  N_5 
REMARK       I    between atoms: N_5  and  C_6 
REMARK       I    between atoms: C_6  and  N_8 
REMARK    3  A    between atoms: N_8  and  C_9 
ROOT
ATOM      1  C   UNL d   1      28.210 -13.569   3.138  0.00  0.00     0.047 A 
ATOM      2  C   UNL d   1      27.799 -12.427   2.437  0.00  0.00     0.030 A 
ATOM      3  C   UNL d   1      27.586 -11.216   3.089  0.00  0.00     0.003 A 
ATOM      4  C   UNL d   1      27.782 -11.123   4.461  0.00  0.00     0.012 A 
ATOM      5  C   UNL d   1      28.147 -12.250   5.208  0.00  0.00    -0.024 A 
ATOM      6  C   UNL d   1      28.314 -12.125   6.599  0.00  0.00     0.012 A 
ATOM      7  C   UNL d   1      28.688 -13.218   7.374  0.00  0.00     0.001 A 
ATOM      8  C   UNL d   1      28.905 -14.447   6.764  0.00  0.00     0.001 A 
ATOM      9  C   UNL d   1      28.748 -14.587   5.379  0.00  0.00     0.014 A 
ATOM     10  C   UNL d   1      28.355 -13.503   4.558  0.00  0.00     0.001 A 
ENDROOT
BRANCH   1  11
ATOM     11  N   UNL d   1      28.448 -14.769   2.393  0.00  0.00    -0.306 N 
ATOM     12  C   UNL d   1      27.722 -15.077   1.239  0.00  0.00     0.344 C 
ATOM     13  N   UNL d   1      28.098 -16.270   0.653  0.00  0.00    -0.216 N 
ATOM     14  O   UNL d   1      26.836 -14.359   0.771  0.00  0.00    -0.245 OA
ATOM     15  H   UNL d   1      28.855 -16.848   0.976  0.00  0.00     0.199 HD
ATOM     16  H   UNL d   1      29.341 -15.218   2.517  0.00  0.00     0.171 HD
BRANCH  13  17
ATOM     17  O   UNL d   1      27.468 -16.579  -0.590  0.00  0.00    -0.272 OA
BRANCH  17  18
ATOM     18  C   UNL d   1      26.475 -17.608  -0.445  0.00  0.00     0.144 C 
ATOM     19  C   UNL d   1      26.655 -18.299   0.912  0.00  0.00     0.042 C 
ATOM     20  C   UNL d   1      25.072 -17.013  -0.506  0.00  0.00     0.042 C 
ENDBRANCH  17  18
ENDBRANCH  13  17
ENDBRANCH   1  11
TORSDOF 3
ENDMDL
