MODEL 1
REMARK VINA RESULT:    -7.691      0.000      0.000
REMARK INTER + INTRA:          -9.169
REMARK INTER:                  -8.586
REMARK INTRA:                  -0.583
REMARK CONF_INDEPENDENT:        0.895
REMARK UNBOUND:                -0.583
REMARK  3 active torsions:
REMARK  status: ('A' for Active; 'I' for Inactive)
REMARK    1  A    between atoms: C_7  and  N_8 
REMARK    2  A    between atoms: C_17  and  C_18 
REMARK       I    between atoms: C_18  and  N_20 
REMARK    3  A    between atoms: C_26  and  N_27 
ROOT
ATOM      1  C   UNL d   1      26.588 -11.854  -3.313  0.00  0.00     0.046 C 
ATOM      2  C   UNL d   1      27.259 -12.730  -2.250  0.00  0.00     0.058 C 
ATOM      3  C   UNL d   1      27.112 -12.043  -0.885  0.00  0.00     0.046 C 
ATOM      4  C   UNL d   1      26.531 -14.051  -2.241  0.00  0.00     0.077 C 
ATOM      5  C   UNL d   1      27.211 -15.118  -1.435  0.00  0.00    -0.028 A 
ATOM      6  C   UNL d   1      28.578 -14.990  -1.104  0.00  0.00     0.017 A 
ATOM      7  C   UNL d   1      29.210 -15.976  -0.320  0.00  0.00     0.113 A 
ATOM      8  N   UNL d   1      28.469 -17.056   0.052  0.00  0.00    -0.336 N 
ATOM      9  C   UNL d   1      27.136 -17.189  -0.281  0.00  0.00     0.089 A 
ATOM     10  S   UNL d   1      26.079 -18.486   0.157  0.00  0.00    -0.064 SA
ATOM     11  C   UNL d   1      24.718 -17.787  -0.657  0.00  0.00     0.104 A 
ATOM     12  C   UNL d   1      25.100 -16.598  -1.245  0.00  0.00     0.062 A 
ATOM     13  C   UNL d   1      26.471 -16.244  -1.030  0.00  0.00     0.033 A 
ATOM     14  C   UNL d   1      29.315 -13.759  -1.606  0.00  0.00     0.212 C 
ATOM     15  O   UNL d   1      28.616 -13.001  -2.603  0.00  0.00    -0.376 OA
ATOM     16  H   UNL d   1      28.911 -17.767   0.625  0.00  0.00     0.168 HD
ENDROOT
BRANCH  11  17
ATOM     17  C   UNL d   1      23.339 -18.311  -0.765  0.00  0.00     0.288 C 
ATOM     18  O   UNL d   1      22.823 -18.525  -1.872  0.00  0.00    -0.265 OA
ATOM     19  N   UNL d   1      22.693 -18.541   0.408  0.00  0.00    -0.184 NA
ATOM     20  C   UNL d   1      21.492 -19.004   0.319  0.00  0.00     0.174 A 
ATOM     21  N   UNL d   1      20.641 -19.345  -0.718  0.00  0.00    -0.344 N 
ATOM     22  S   UNL d   1      20.603 -19.325   1.842  0.00  0.00    -0.062 SA
ATOM     23  C   UNL d   1      19.402 -19.824  -0.366  0.00  0.00     0.097 A 
ATOM     24  H   UNL d   1      20.911 -19.253  -1.692  0.00  0.00     0.167 HD
ATOM     25  C   UNL d   1      19.197 -19.886   0.957  0.00  0.00     0.070 A 
ENDBRANCH  11  17
BRANCH  12  26
ATOM     26  N   UNL d   1      24.220 -15.848  -1.946  0.00  0.00    -0.397 N 
ATOM     27  H   UNL d   1      24.250 -14.822  -1.918  0.00  0.00     0.156 HD
ATOM     28  H   UNL d   1      23.373 -16.161  -2.399  0.00  0.00     0.156 HD
ENDBRANCH  12  26
BRANCH   7  29
ATOM     29  N   UNL d   1      30.540 -15.906   0.042  0.00  0.00    -0.363 N 
ATOM     30  C   UNL d   1      31.650 -16.735  -0.518  0.00  0.00     0.150 C 
ATOM     31  C   UNL d   1      32.511 -17.373   0.600  0.00  0.00     0.187 C 
ATOM     32  O   UNL d   1      32.961 -16.376   1.526  0.00  0.00    -0.388 OA
ATOM     33  C   UNL d   1      31.844 -15.724   2.142  0.00  0.00     0.187 C 
ATOM     34  C   UNL d   1      30.997 -14.977   1.092  0.00  0.00     0.150 C 
ENDBRANCH   7  29
TORSDOF 3
ENDMDL
MODEL 2
REMARK VINA RESULT:    -7.460      2.334      4.776
REMARK INTER + INTRA:          -9.179
REMARK INTER:                  -8.354
REMARK INTRA:                  -0.824
REMARK CONF_INDEPENDENT:        0.895
REMARK UNBOUND:                -0.824
REMARK  3 active torsions:
REMARK  status: ('A' for Active; 'I' for Inactive)
REMARK    1  A    between atoms: C_7  and  N_8 
REMARK    2  A    between atoms: C_17  and  C_18 
REMARK       I    between atoms: C_18  and  N_20 
REMARK    3  A    between atoms: C_26  and  N_27 
ROOT
ATOM      1  C   UNL d   1      30.642 -17.862  -0.931  0.00  0.00     0.046 C 
ATOM      2  C   UNL d   1      29.737 -16.871  -1.671  0.00  0.00     0.058 C 
ATOM      3  C   UNL d   1      29.743 -17.224  -3.166  0.00  0.00     0.046 C 
ATOM      4  C   UNL d   1      28.347 -17.037  -1.109  0.00  0.00     0.077 C 
ATOM      5  C   UNL d   1      27.382 -15.973  -1.543  0.00  0.00    -0.028 A 
ATOM      6  C   UNL d   1      27.864 -14.749  -2.057  0.00  0.00     0.017 A 
ATOM      7  C   UNL d   1      26.960 -13.761  -2.494  0.00  0.00     0.113 A 
ATOM      8  N   UNL d   1      25.630 -14.018  -2.354  0.00  0.00    -0.336 N 
ATOM      9  C   UNL d   1      25.156 -15.209  -1.841  0.00  0.00     0.089 A 
ATOM     10  S   UNL d   1      23.502 -15.673  -1.645  0.00  0.00    -0.064 SA
ATOM     11  C   UNL d   1      23.908 -17.225  -0.989  0.00  0.00     0.104 A 
ATOM     12  C   UNL d   1      25.281 -17.348  -0.927  0.00  0.00     0.062 A 
ATOM     13  C   UNL d   1      26.002 -16.210  -1.417  0.00  0.00     0.033 A 
ATOM     14  C   UNL d   1      29.371 -14.557  -2.132  0.00  0.00     0.212 C 
ATOM     15  O   UNL d   1      30.140 -15.527  -1.406  0.00  0.00    -0.376 OA
ATOM     16  H   UNL d   1      24.969 -13.318  -2.675  0.00  0.00     0.168 HD
ENDROOT
BRANCH  11  17
ATOM     17  C   UNL d   1      23.000 -18.300  -0.535  0.00  0.00     0.288 C 
ATOM     18  O   UNL d   1      23.428 -19.262   0.119  0.00  0.00    -0.265 OA
ATOM     19  N   UNL d   1      21.692 -18.161  -0.873  0.00  0.00    -0.184 NA
ATOM     20  C   UNL d   1      20.895 -19.094  -0.474  0.00  0.00     0.174 A 
ATOM     21  N   UNL d   1      21.032 -20.266   0.248  0.00  0.00    -0.344 N 
ATOM     22  S   UNL d   1      19.158 -18.948  -0.895  0.00  0.00    -0.062 SA
ATOM     23  C   UNL d   1      19.888 -20.993   0.467  0.00  0.00     0.097 A 
ATOM     24  H   UNL d   1      21.930 -20.579   0.606  0.00  0.00     0.167 HD
ATOM     25  C   UNL d   1      18.786 -20.449  -0.067  0.00  0.00     0.070 A 
ENDBRANCH  11  17
BRANCH  12  26
ATOM     26  N   UNL d   1      25.864 -18.471  -0.451  0.00  0.00    -0.397 N 
ATOM     27  H   UNL d   1      25.522 -18.932   0.400  0.00  0.00     0.156 HD
ATOM     28  H   UNL d   1      26.749 -18.868  -0.733  0.00  0.00     0.156 HD
ENDBRANCH  12  26
BRANCH   7  29
ATOM     29  N   UNL d   1      27.367 -12.548  -3.012  0.00  0.00    -0.363 N 
ATOM     30  C   UNL d   1      27.148 -11.207  -2.389  0.00  0.00     0.150 C 
ATOM     31  C   UNL d   1      26.551 -10.196  -3.399  0.00  0.00     0.187 C 
ATOM     32  O   UNL d   1      27.341 -10.142  -4.592  0.00  0.00    -0.388 OA
ATOM     33  C   UNL d   1      27.384 -11.429  -5.223  0.00  0.00     0.187 C 
ATOM     34  C   UNL d   1      28.064 -12.466  -4.308  0.00  0.00     0.150 C 
ENDBRANCH   7  29
TORSDOF 3
ENDMDL
MODEL 3
REMARK VINA RESULT:    -7.261      6.171      8.610
REMARK INTER + INTRA:          -9.006
REMARK INTER:                  -8.156
REMARK INTRA:                  -0.851
REMARK CONF_INDEPENDENT:        0.895
REMARK UNBOUND:                -0.851
REMARK  3 active torsions:
REMARK  status: ('A' for Active; 'I' for Inactive)
REMARK    1  A    between atoms: C_7  and  N_8 
REMARK    2  A    between atoms: C_17  and  C_18 
REMARK       I    between atoms: C_18  and  N_20 
REMARK    3  A    between atoms: C_26  and  N_27 
ROOT
ATOM      1  C   UNL d   1      27.229  -8.563   1.227  0.00  0.00     0.046 C 
ATOM      2  C   UNL d   1      27.700 -10.020   1.175  0.00  0.00     0.058 C 
ATOM      3  C   UNL d   1      29.199 -10.038   0.839  0.00  0.00     0.046 C 
ATOM      4  C   UNL d   1      27.473 -10.609   2.545  0.00  0.00     0.077 C 
ATOM      5  C   UNL d   1      27.648 -12.098   2.606  0.00  0.00    -0.028 A 
ATOM      6  C   UNL d   1      27.600 -12.864   1.420  0.00  0.00     0.017 A 
ATOM      7  C   UNL d   1      27.794 -14.259   1.473  0.00  0.00     0.113 A 
ATOM      8  N   UNL d   1      27.978 -14.824   2.697  0.00  0.00    -0.336 N 
ATOM      9  C   UNL d   1      28.013 -14.079   3.859  0.00  0.00     0.089 A 
ATOM     10  S   UNL d   1      28.273 -14.666   5.465  0.00  0.00    -0.064 SA
ATOM     11  C   UNL d   1      28.162 -13.086   6.170  0.00  0.00     0.104 A 
ATOM     12  C   UNL d   1      27.923 -12.160   5.176  0.00  0.00     0.062 A 
ATOM     13  C   UNL d   1      27.845 -12.712   3.856  0.00  0.00     0.033 A 
ATOM     14  C   UNL d   1      27.351 -12.130   0.112  0.00  0.00     0.212 C 
ATOM     15  O   UNL d   1      26.908 -10.773   0.257  0.00  0.00    -0.376 OA
ATOM     16  H   UNL d   1      28.129 -15.826   2.747  0.00  0.00     0.168 HD
ENDROOT
BRANCH  11  17
ATOM     17  C   UNL d   1      28.281 -12.701   7.592  0.00  0.00     0.288 C 
ATOM     18  O   UNL d   1      28.154 -11.520   7.947  0.00  0.00    -0.265 OA
ATOM     19  N   UNL d   1      28.530 -13.711   8.467  0.00  0.00    -0.184 NA
ATOM     20  C   UNL d   1      28.629 -13.381   9.710  0.00  0.00     0.174 A 
ATOM     21  N   UNL d   1      28.545 -12.200  10.426  0.00  0.00    -0.344 N 
ATOM     22  S   UNL d   1      28.953 -14.683  10.899  0.00  0.00    -0.062 SA
ATOM     23  C   UNL d   1      28.711 -12.291  11.787  0.00  0.00     0.097 A 
ATOM     24  H   UNL d   1      28.366 -11.307   9.978  0.00  0.00     0.167 HD
ATOM     25  C   UNL d   1      28.938 -13.537  12.226  0.00  0.00     0.070 A 
ENDBRANCH  11  17
BRANCH  12  26
ATOM     26  N   UNL d   1      27.794 -10.844   5.460  0.00  0.00    -0.397 N 
ATOM     27  H   UNL d   1      28.420 -10.376   6.125  0.00  0.00     0.156 HD
ATOM     28  H   UNL d   1      27.020 -10.240   5.223  0.00  0.00     0.156 HD
ENDBRANCH  12  26
BRANCH   7  29
ATOM     29  N   UNL d   1      27.766 -15.062   0.350  0.00  0.00    -0.363 N 
ATOM     30  C   UNL d   1      26.541 -15.591  -0.322  0.00  0.00     0.150 C 
ATOM     31  C   UNL d   1      26.638 -17.116  -0.576  0.00  0.00     0.187 C 
ATOM     32  O   UNL d   1      27.849 -17.440  -1.270  0.00  0.00    -0.388 OA
ATOM     33  C   UNL d   1      28.990 -17.042  -0.499  0.00  0.00     0.187 C 
ATOM     34  C   UNL d   1      29.011 -15.514  -0.296  0.00  0.00     0.150 C 
ENDBRANCH   7  29
TORSDOF 3
ENDMDL
MODEL 4
REMARK VINA RESULT:    -7.210      4.658      8.073
REMARK INTER + INTRA:          -8.920
REMARK INTER:                  -8.105
REMARK INTRA:                  -0.815
REMARK CONF_INDEPENDENT:        0.895
REMARK UNBOUND:                -0.815
REMARK  3 active torsions:
REMARK  status: ('A' for Active; 'I' for Inactive)
REMARK    1  A    between atoms: C_7  and  N_8 
REMARK    2  A    between atoms: C_17  and  C_18 
REMARK       I    between atoms: C_18  and  N_20 
REMARK    3  A    between atoms: C_26  and  N_27 
ROOT
ATOM      1  C   UNL d   1      27.030 -18.950   1.000  0.00  0.00     0.046 C 
ATOM      2  C   UNL d   1      26.692 -17.693   0.191  0.00  0.00     0.058 C 
ATOM      3  C   UNL d   1      25.164 -17.556   0.115  0.00  0.00     0.046 C 
ATOM      4  C   UNL d   1      27.277 -16.518   0.933  0.00  0.00     0.077 C 
ATOM      5  C   UNL d   1      27.255 -15.234   0.158  0.00  0.00    -0.028 A 
ATOM      6  C   UNL d   1      27.101 -15.259  -1.246  0.00  0.00     0.017 A 
ATOM      7  C   UNL d   1      27.050 -14.053  -1.972  0.00  0.00     0.113 A 
ATOM      8  N   UNL d   1      27.201 -12.892  -1.278  0.00  0.00    -0.336 N 
ATOM      9  C   UNL d   1      27.365 -12.865   0.093  0.00  0.00     0.089 A 
ATOM     10  S   UNL d   1      27.531 -11.465   1.094  0.00  0.00    -0.064 SA
ATOM     11  C   UNL d   1      27.657 -12.395   2.551  0.00  0.00     0.104 A 
ATOM     12  C   UNL d   1      27.579 -13.738   2.241  0.00  0.00     0.062 A 
ATOM     13  C   UNL d   1      27.404 -14.017   0.847  0.00  0.00     0.033 A 
ATOM     14  C   UNL d   1      26.978 -16.616  -1.921  0.00  0.00     0.212 C 
ATOM     15  O   UNL d   1      27.319 -17.736  -1.091  0.00  0.00    -0.376 OA
ATOM     16  H   UNL d   1      27.156 -12.016  -1.789  0.00  0.00     0.168 HD
ENDROOT
BRANCH  11  17
ATOM     17  C   UNL d   1      27.831 -11.916   3.938  0.00  0.00     0.288 C 
ATOM     18  O   UNL d   1      27.552 -10.749   4.250  0.00  0.00    -0.265 OA
ATOM     19  N   UNL d   1      28.302 -12.826   4.831  0.00  0.00    -0.184 NA
ATOM     20  C   UNL d   1      28.450 -12.414   6.045  0.00  0.00     0.174 A 
ATOM     21  N   UNL d   1      28.243 -11.220   6.713  0.00  0.00    -0.344 N 
ATOM     22  S   UNL d   1      29.066 -13.582   7.256  0.00  0.00    -0.062 SA
ATOM     23  C   UNL d   1      28.531 -11.207   8.056  0.00  0.00     0.097 A 
ATOM     24  H   UNL d   1      27.893 -10.390   6.243  0.00  0.00     0.167 HD
ATOM     25  C   UNL d   1      28.982 -12.377   8.528  0.00  0.00     0.070 A 
ENDBRANCH  11  17
BRANCH  12  26
ATOM     26  N   UNL d   1      27.650 -14.685   3.204  0.00  0.00    -0.397 N 
ATOM     27  H   UNL d   1      27.233 -14.539   4.130  0.00  0.00     0.156 HD
ATOM     28  H   UNL d   1      28.231 -15.510   3.209  0.00  0.00     0.156 HD
ENDBRANCH  12  26
BRANCH   7  29
ATOM     29  N   UNL d   1      26.894 -14.009  -3.343  0.00  0.00    -0.363 N 
ATOM     30  C   UNL d   1      25.666 -14.395  -4.102  0.00  0.00     0.150 C 
ATOM     31  C   UNL d   1      25.990 -15.362  -5.268  0.00  0.00     0.187 C 
ATOM     32  O   UNL d   1      27.024 -14.823  -6.101  0.00  0.00    -0.388 OA
ATOM     33  C   UNL d   1      28.223 -14.620  -5.344  0.00  0.00     0.187 C 
ATOM     34  C   UNL d   1      27.997 -13.585  -4.224  0.00  0.00     0.150 C 
ENDBRANCH   7  29
TORSDOF 3
ENDMDL
MODEL 5
REMARK VINA RESULT:    -7.204      1.922      2.340
REMARK INTER + INTRA:          -8.989
REMARK INTER:                  -8.099
REMARK INTRA:                  -0.889
REMARK CONF_INDEPENDENT:        0.895
REMARK UNBOUND:                -0.889
REMARK  3 active torsions:
REMARK  status: ('A' for Active; 'I' for Inactive)
REMARK    1  A    between atoms: C_7  and  N_8 
REMARK    2  A    between atoms: C_17  and  C_18 
REMARK       I    between atoms: C_18  and  N_20 
REMARK    3  A    between atoms: C_26  and  N_27 
ROOT
ATOM      1  C   UNL d   1      25.686 -13.252  -5.016  0.00  0.00     0.046 C 
ATOM      2  C   UNL d   1      26.662 -13.809  -3.974  0.00  0.00     0.058 C 
ATOM      3  C   UNL d   1      26.885 -12.741  -2.892  0.00  0.00     0.046 C 
ATOM      4  C   UNL d   1      26.015 -15.029  -3.367  0.00  0.00     0.077 C 
ATOM      5  C   UNL d   1      26.935 -15.842  -2.505  0.00  0.00    -0.028 A 
ATOM      6  C   UNL d   1      28.334 -15.693  -2.627  0.00  0.00     0.017 A 
ATOM      7  C   UNL d   1      29.198 -16.434  -1.796  0.00  0.00     0.113 A 
ATOM      8  N   UNL d   1      28.634 -17.316  -0.927  0.00  0.00    -0.336 N 
ATOM      9  C   UNL d   1      27.267 -17.473  -0.814  0.00  0.00     0.089 A 
ATOM     10  S   UNL d   1      26.426 -18.526   0.269  0.00  0.00    -0.064 SA
ATOM     11  C   UNL d   1      24.865 -18.030  -0.298  0.00  0.00     0.104 A 
ATOM     12  C   UNL d   1      25.021 -17.089  -1.295  0.00  0.00     0.062 A 
ATOM     13  C   UNL d   1      26.383 -16.759  -1.592  0.00  0.00     0.033 A 
ATOM     14  C   UNL d   1      28.853 -14.705  -3.659  0.00  0.00     0.212 C 
ATOM     15  O   UNL d   1      27.872 -14.241  -4.597  0.00  0.00    -0.376 OA
ATOM     16  H   UNL d   1      29.246 -17.848  -0.316  0.00  0.00     0.168 HD
ENDROOT
BRANCH  11  17
ATOM     17  C   UNL d   1      23.533 -18.491   0.149  0.00  0.00     0.288 C 
ATOM     18  O   UNL d   1      23.258 -18.575   1.355  0.00  0.00    -0.265 OA
ATOM     19  N   UNL d   1      22.648 -18.805  -0.834  0.00  0.00    -0.184 NA
ATOM     20  C   UNL d   1      21.482 -19.202  -0.449  0.00  0.00     0.174 A 
ATOM     21  N   UNL d   1      20.863 -19.405   0.772  0.00  0.00    -0.344 N 
ATOM     22  S   UNL d   1      20.282 -19.623  -1.712  0.00  0.00    -0.062 SA
ATOM     23  C   UNL d   1      19.562 -19.844   0.737  0.00  0.00     0.097 A 
ATOM     24  H   UNL d   1      21.337 -19.236   1.654  0.00  0.00     0.167 HD
ATOM     25  C   UNL d   1      19.078 -20.019  -0.500  0.00  0.00     0.070 A 
ENDBRANCH  11  17
BRANCH  12  26
ATOM     26  N   UNL d   1      23.951 -16.536  -1.910  0.00  0.00    -0.397 N 
ATOM     27  H   UNL d   1      24.007 -15.611  -2.352  0.00  0.00     0.156 HD
ATOM     28  H   UNL d   1      22.990 -16.842  -1.860  0.00  0.00     0.156 HD
ENDBRANCH  12  26
BRANCH   7  29
ATOM     29  N   UNL d   1      30.573 -16.328  -1.861  0.00  0.00    -0.363 N 
ATOM     30  C   UNL d   1      31.422 -15.390  -1.066  0.00  0.00     0.150 C 
ATOM     31  C   UNL d   1      32.416 -14.612  -1.965  0.00  0.00     0.187 C 
ATOM     32  O   UNL d   1      33.177 -15.513  -2.778  0.00  0.00    -0.388 OA
ATOM     33  C   UNL d   1      32.311 -16.275  -3.627  0.00  0.00     0.187 C 
ATOM     34  C   UNL d   1      31.360 -17.156  -2.794  0.00  0.00     0.150 C 
ENDBRANCH   7  29
TORSDOF 3
ENDMDL
MODEL 6
REMARK VINA RESULT:    -7.169      2.705      4.938
REMARK INTER + INTRA:          -8.940
REMARK INTER:                  -8.064
REMARK INTRA:                  -0.876
REMARK CONF_INDEPENDENT:        0.895
REMARK UNBOUND:                -0.876
REMARK  3 active torsions:
REMARK  status: ('A' for Active; 'I' for Inactive)
REMARK    1  A    between atoms: C_7  and  N_8 
REMARK    2  A    between atoms: C_17  and  C_18 
REMARK       I    between atoms: C_18  and  N_20 
REMARK    3  A    between atoms: C_26  and  N_27 
ROOT
ATOM      1  C   UNL d   1      31.552 -17.639   0.109  0.00  0.00     0.046 C 
ATOM      2  C   UNL d   1      30.834 -17.131  -1.146  0.00  0.00     0.058 C 
ATOM      3  C   UNL d   1      30.976 -18.187  -2.253  0.00  0.00     0.046 C 
ATOM      4  C   UNL d   1      29.380 -16.958  -0.785  0.00  0.00     0.077 C 
ATOM      5  C   UNL d   1      28.575 -16.232  -1.823  0.00  0.00    -0.028 A 
ATOM      6  C   UNL d   1      29.226 -15.444  -2.798  0.00  0.00     0.017 A 
ATOM      7  C   UNL d   1      28.474 -14.787  -3.791  0.00  0.00     0.113 A 
ATOM      8  N   UNL d   1      27.119 -14.906  -3.739  0.00  0.00    -0.336 N 
ATOM      9  C   UNL d   1      26.479 -15.666  -2.779  0.00  0.00     0.089 A 
ATOM     10  S   UNL d   1      24.777 -15.927  -2.623  0.00  0.00    -0.064 SA
ATOM     11  C   UNL d   1      24.958 -16.949  -1.235  0.00  0.00     0.104 A 
ATOM     12  C   UNL d   1      26.298 -17.059  -0.922  0.00  0.00     0.062 A 
ATOM     13  C   UNL d   1      27.173 -16.340  -1.798  0.00  0.00     0.033 A 
ATOM     14  C   UNL d   1      30.742 -15.353  -2.737  0.00  0.00     0.212 C 
ATOM     15  O   UNL d   1      31.329 -15.847  -1.525  0.00  0.00    -0.376 OA
ATOM     16  H   UNL d   1      26.567 -14.446  -4.455  0.00  0.00     0.168 HD
ENDROOT
BRANCH  11  17
ATOM     17  C   UNL d   1      23.907 -17.628  -0.447  0.00  0.00     0.288 C 
ATOM     18  O   UNL d   1      24.077 -17.886   0.754  0.00  0.00    -0.265 OA
ATOM     19  N   UNL d   1      22.766 -17.939  -1.114  0.00  0.00    -0.184 NA
ATOM     20  C   UNL d   1      21.843 -18.526  -0.429  0.00  0.00     0.174 A 
ATOM     21  N   UNL d   1      21.706 -18.947   0.882  0.00  0.00    -0.344 N 
ATOM     22  S   UNL d   1      20.318 -18.952  -1.269  0.00  0.00    -0.062 SA
ATOM     23  C   UNL d   1      20.515 -19.545   1.216  0.00  0.00     0.097 A 
ATOM     24  H   UNL d   1      22.441 -18.821   1.571  0.00  0.00     0.167 HD
ATOM     25  C   UNL d   1      19.647 -19.637   0.199  0.00  0.00     0.070 A 
ENDBRANCH  11  17
BRANCH  12  26
ATOM     26  N   UNL d   1      26.714 -17.806   0.126  0.00  0.00    -0.397 N 
ATOM     27  H   UNL d   1      26.061 -18.119   0.853  0.00  0.00     0.156 HD
ATOM     28  H   UNL d   1      27.666 -17.981   0.412  0.00  0.00     0.156 HD
ENDBRANCH  12  26
BRANCH   7  29
ATOM     29  N   UNL d   1      29.050 -14.009  -4.775  0.00  0.00    -0.363 N 
ATOM     30  C   UNL d   1      29.351 -12.548  -4.678  0.00  0.00     0.150 C 
ATOM     31  C   UNL d   1      28.817 -11.769  -5.906  0.00  0.00     0.187 C 
ATOM     32  O   UNL d   1      29.281 -12.362  -7.125  0.00  0.00    -0.388 OA
ATOM     33  C   UNL d   1      28.828 -13.717  -7.226  0.00  0.00     0.187 C 
ATOM     34  C   UNL d   1      29.409 -14.578  -6.087  0.00  0.00     0.150 C 
ENDBRANCH   7  29
TORSDOF 3
ENDMDL
MODEL 7
REMARK VINA RESULT:    -6.923      6.536      9.861
REMARK INTER + INTRA:          -8.699
REMARK INTER:                  -7.818
REMARK INTRA:                  -0.881
REMARK CONF_INDEPENDENT:        0.895
REMARK UNBOUND:                -0.881
REMARK  3 active torsions:
REMARK  status: ('A' for Active; 'I' for Inactive)
REMARK    1  A    between atoms: C_7  and  N_8 
REMARK    2  A    between atoms: C_17  and  C_18 
REMARK       I    between atoms: C_18  and  N_20 
REMARK    3  A    between atoms: C_26  and  N_27 
ROOT
ATOM      1  C   UNL d   1      28.927 -14.617   0.093  0.00  0.00     0.046 C 
ATOM      2  C   UNL d   1      28.136 -13.602   0.925  0.00  0.00     0.058 C 
ATOM      3  C   UNL d   1      26.692 -14.105   1.068  0.00  0.00     0.046 C 
ATOM      4  C   UNL d   1      28.792 -13.534   2.282  0.00  0.00     0.077 C 
ATOM      5  C   UNL d   1      28.300 -12.409   3.143  0.00  0.00    -0.028 A 
ATOM      6  C   UNL d   1      27.626 -11.314   2.558  0.00  0.00     0.017 A 
ATOM      7  C   UNL d   1      27.135 -10.272   3.368  0.00  0.00     0.113 A 
ATOM      8  N   UNL d   1      27.379 -10.344   4.706  0.00  0.00    -0.336 N 
ATOM      9  C   UNL d   1      28.049 -11.408   5.279  0.00  0.00     0.089 A 
ATOM     10  S   UNL d   1      28.391 -11.639   6.958  0.00  0.00    -0.064 SA
ATOM     11  C   UNL d   1      29.190 -13.153   6.692  0.00  0.00     0.104 A 
ATOM     12  C   UNL d   1      29.186 -13.439   5.342  0.00  0.00     0.062 A 
ATOM     13  C   UNL d   1      28.531 -12.457   4.529  0.00  0.00     0.033 A 
ATOM     14  C   UNL d   1      27.442 -11.320   1.048  0.00  0.00     0.212 C 
ATOM     15  O   UNL d   1      28.225 -12.299   0.349  0.00  0.00    -0.376 OA
ATOM     16  H   UNL d   1      27.021  -9.605   5.301  0.00  0.00     0.168 HD
ENDROOT
BRANCH  11  17
ATOM     17  C   UNL d   1      29.814 -14.053   7.685  0.00  0.00     0.288 C 
ATOM     18  O   UNL d   1      30.729 -14.825   7.362  0.00  0.00    -0.265 OA
ATOM     19  N   UNL d   1      29.327 -13.975   8.951  0.00  0.00    -0.184 NA
ATOM     20  C   UNL d   1      29.872 -14.755   9.824  0.00  0.00     0.174 A 
ATOM     21  N   UNL d   1      30.878 -15.705   9.804  0.00  0.00    -0.344 N 
ATOM     22  S   UNL d   1      29.263 -14.683  11.508  0.00  0.00    -0.062 SA
ATOM     23  C   UNL d   1      31.163 -16.325  10.997  0.00  0.00     0.097 A 
ATOM     24  H   UNL d   1      31.388 -15.936   8.957  0.00  0.00     0.167 HD
ATOM     25  C   UNL d   1      30.405 -15.911  12.021  0.00  0.00     0.070 A 
ENDBRANCH  11  17
BRANCH  12  26
ATOM     26  N   UNL d   1      29.749 -14.571   4.863  0.00  0.00    -0.397 N 
ATOM     27  H   UNL d   1      30.669 -14.890   5.188  0.00  0.00     0.156 HD
ATOM     28  H   UNL d   1      29.457 -15.108   4.059  0.00  0.00     0.156 HD
ENDBRANCH  12  26
BRANCH   7  29
ATOM     29  N   UNL d   1      26.463  -9.179   2.859  0.00  0.00    -0.363 N 
ATOM     30  C   UNL d   1      25.155  -9.209   2.136  0.00  0.00     0.150 C 
ATOM     31  C   UNL d   1      25.213  -8.413   0.809  0.00  0.00     0.187 C 
ATOM     32  O   UNL d   1      25.705  -7.086   1.033  0.00  0.00    -0.388 OA
ATOM     33  C   UNL d   1      27.027  -7.129   1.585  0.00  0.00     0.187 C 
ATOM     34  C   UNL d   1      27.024  -7.820   2.964  0.00  0.00     0.150 C 
ENDBRANCH   7  29
TORSDOF 3
ENDMDL
MODEL 8
REMARK VINA RESULT:    -6.809      5.205      7.265
REMARK INTER + INTRA:          -8.471
REMARK INTER:                  -7.704
REMARK INTRA:                  -0.767
REMARK CONF_INDEPENDENT:        0.895
REMARK UNBOUND:                -0.767
REMARK  3 active torsions:
REMARK  status: ('A' for Active; 'I' for Inactive)
REMARK    1  A    between atoms: C_7  and  N_8 
REMARK    2  A    between atoms: C_17  and  C_18 
REMARK       I    between atoms: C_18  and  N_20 
REMARK    3  A    between atoms: C_26  and  N_27 
ROOT
ATOM      1  C   UNL d   1      25.882  -8.212  -7.171  0.00  0.00     0.046 C 
ATOM      2  C   UNL d   1      27.061  -9.188  -7.095  0.00  0.00     0.058 C 
ATOM      3  C   UNL d   1      28.087  -8.639  -6.093  0.00  0.00     0.046 C 
ATOM      4  C   UNL d   1      26.515 -10.505  -6.601  0.00  0.00     0.077 C 
ATOM      5  C   UNL d   1      27.485 -11.645  -6.702  0.00  0.00    -0.028 A 
ATOM      6  C   UNL d   1      28.602 -11.548  -7.561  0.00  0.00     0.017 A 
ATOM      7  C   UNL d   1      29.531 -12.605  -7.633  0.00  0.00     0.113 A 
ATOM      8  N   UNL d   1      29.280 -13.717  -6.891  0.00  0.00    -0.336 N 
ATOM      9  C   UNL d   1      28.182 -13.820  -6.059  0.00  0.00     0.089 A 
ATOM     10  S   UNL d   1      27.768 -15.155  -5.041  0.00  0.00    -0.064 SA
ATOM     11  C   UNL d   1      26.341 -14.381  -4.434  0.00  0.00     0.104 A 
ATOM     12  C   UNL d   1      26.210 -13.140  -5.022  0.00  0.00     0.062 A 
ATOM     13  C   UNL d   1      27.256 -12.806  -5.942  0.00  0.00     0.033 A 
ATOM     14  C   UNL d   1      28.763 -10.272  -8.372  0.00  0.00     0.212 C 
ATOM     15  O   UNL d   1      27.608  -9.420  -8.393  0.00  0.00    -0.376 OA
ATOM     16  H   UNL d   1      29.947 -14.481  -6.927  0.00  0.00     0.168 HD
ENDROOT
BRANCH  11  17
ATOM     17  C   UNL d   1      25.361 -14.894  -3.453  0.00  0.00     0.288 C 
ATOM     18  O   UNL d   1      24.241 -14.375  -3.338  0.00  0.00    -0.265 OA
ATOM     19  N   UNL d   1      25.762 -15.956  -2.705  0.00  0.00    -0.184 NA
ATOM     20  C   UNL d   1      24.908 -16.411  -1.852  0.00  0.00     0.174 A 
ATOM     21  N   UNL d   1      23.617 -16.081  -1.477  0.00  0.00    -0.344 N 
ATOM     22  S   UNL d   1      25.395 -17.813  -0.846  0.00  0.00    -0.062 SA
ATOM     23  C   UNL d   1      23.045 -16.853  -0.495  0.00  0.00     0.097 A 
ATOM     24  H   UNL d   1      23.110 -15.311  -1.903  0.00  0.00     0.167 HD
ATOM     25  C   UNL d   1      23.840 -17.828  -0.035  0.00  0.00     0.070 A 
ENDBRANCH  11  17
BRANCH  12  26
ATOM     26  N   UNL d   1      25.174 -12.326  -4.719  0.00  0.00    -0.397 N 
ATOM     27  H   UNL d   1      24.397 -12.645  -4.129  0.00  0.00     0.156 HD
ATOM     28  H   UNL d   1      24.948 -11.438  -5.145  0.00  0.00     0.156 HD
ENDBRANCH  12  26
BRANCH   7  29
ATOM     29  N   UNL d   1      30.645 -12.568  -8.447  0.00  0.00    -0.363 N 
ATOM     30  C   UNL d   1      32.056 -12.813  -8.019  0.00  0.00     0.150 C 
ATOM     31  C   UNL d   1      33.009 -11.698  -8.515  0.00  0.00     0.187 C 
ATOM     32  O   UNL d   1      32.873 -11.504  -9.928  0.00  0.00    -0.388 OA
ATOM     33  C   UNL d   1      31.531 -11.121 -10.254  0.00  0.00     0.187 C 
ATOM     34  C   UNL d   1      30.535 -12.237  -9.879  0.00  0.00     0.150 C 
ENDBRANCH   7  29
TORSDOF 3
ENDMDL
MODEL 9
REMARK VINA RESULT:    -6.726      4.443      8.714
REMARK INTER + INTRA:          -8.390
REMARK INTER:                  -7.621
REMARK INTRA:                  -0.769
REMARK CONF_INDEPENDENT:        0.895
REMARK UNBOUND:                -0.769
REMARK  3 active torsions:
REMARK  status: ('A' for Active; 'I' for Inactive)
REMARK    1  A    between atoms: C_7  and  N_8 
REMARK    2  A    between atoms: C_17  and  C_18 
REMARK       I    between atoms: C_18  and  N_20 
REMARK    3  A    between atoms: C_26  and  N_27 
ROOT
ATOM      1  C   UNL d   1      31.090 -16.614  -0.028  0.00  0.00     0.046 C 
ATOM      2  C   UNL d   1      29.596 -16.344  -0.236  0.00  0.00     0.058 C 
ATOM      3  C   UNL d   1      29.222 -15.056   0.512  0.00  0.00     0.046 C 
ATOM      4  C   UNL d   1      29.381 -16.159  -1.718  0.00  0.00     0.077 C 
ATOM      5  C   UNL d   1      27.938 -16.132  -2.127  0.00  0.00    -0.028 A 
ATOM      6  C   UNL d   1      26.950 -16.656  -1.266  0.00  0.00     0.017 A 
ATOM      7  C   UNL d   1      25.591 -16.604  -1.635  0.00  0.00     0.113 A 
ATOM      8  N   UNL d   1      25.289 -16.081  -2.855  0.00  0.00    -0.336 N 
ATOM      9  C   UNL d   1      26.255 -15.578  -3.705  0.00  0.00     0.089 A 
ATOM     10  S   UNL d   1      26.003 -14.857  -5.256  0.00  0.00    -0.064 SA
ATOM     11  C   UNL d   1      27.692 -14.557  -5.504  0.00  0.00     0.104 A 
ATOM     12  C   UNL d   1      28.401 -15.017  -4.413  0.00  0.00     0.062 A 
ATOM     13  C   UNL d   1      27.593 -15.592  -3.379  0.00  0.00     0.033 A 
ATOM     14  C   UNL d   1      27.406 -17.251   0.057  0.00  0.00     0.212 C 
ATOM     15  O   UNL d   1      28.820 -17.474   0.162  0.00  0.00    -0.376 OA
ATOM     16  H   UNL d   1      24.313 -16.028  -3.127  0.00  0.00     0.168 HD
ENDROOT
BRANCH  11  17
ATOM     17  C   UNL d   1      28.355 -13.926  -6.665  0.00  0.00     0.288 C 
ATOM     18  O   UNL d   1      29.375 -14.424  -7.166  0.00  0.00    -0.265 OA
ATOM     19  N   UNL d   1      27.780 -12.790  -7.138  0.00  0.00    -0.184 NA
ATOM     20  C   UNL d   1      28.352 -12.239  -8.155  0.00  0.00     0.174 A 
ATOM     21  N   UNL d   1      29.462 -12.518  -8.933  0.00  0.00    -0.344 N 
ATOM     22  S   UNL d   1      27.624 -10.739  -8.815  0.00  0.00    -0.062 SA
ATOM     23  C   UNL d   1      29.728 -11.648  -9.962  0.00  0.00     0.097 A 
ATOM     24  H   UNL d   1      30.054 -13.326  -8.762  0.00  0.00     0.167 HD
ATOM     25  C   UNL d   1      28.856 -10.635 -10.058  0.00  0.00     0.070 A 
ENDBRANCH  11  17
BRANCH  12  26
ATOM     26  N   UNL d   1      29.747 -14.903  -4.353  0.00  0.00    -0.397 N 
ATOM     27  H   UNL d   1      30.297 -14.612  -5.170  0.00  0.00     0.156 HD
ATOM     28  H   UNL d   1      30.358 -15.238  -3.622  0.00  0.00     0.156 HD
ENDBRANCH  12  26
BRANCH   7  29
ATOM     29  N   UNL d   1      24.578 -17.093  -0.835  0.00  0.00    -0.363 N 
ATOM     30  C   UNL d   1      24.565 -18.416  -0.141  0.00  0.00     0.150 C 
ATOM     31  C   UNL d   1      23.247 -19.188  -0.399  0.00  0.00     0.187 C 
ATOM     32  O   UNL d   1      22.111 -18.373  -0.084  0.00  0.00    -0.388 OA
ATOM     33  C   UNL d   1      22.102 -17.192  -0.895  0.00  0.00     0.187 C 
ATOM     34  C   UNL d   1      23.342 -16.321  -0.611  0.00  0.00     0.150 C 
ENDBRANCH   7  29
TORSDOF 3
ENDMDL
