MODEL 1
REMARK VINA RESULT:    -8.954      0.000      0.000
REMARK INTER + INTRA:         -11.553
REMARK INTER:                 -10.743
REMARK INTRA:                  -0.809
REMARK CONF_INDEPENDENT:        1.790
REMARK UNBOUND:                -0.809
REMARK  6 active torsions:
REMARK  status: ('A' for Active; 'I' for Inactive)
REMARK    1  A    between atoms: C_2  and  C_23 
REMARK    2  A    between atoms: N_3  and  N_4 
REMARK       I    between atoms: N_4  and  C_5 
REMARK    3  A    between atoms: C_5  and  C_7 
REMARK    4  A    between atoms: C_10  and  N_11 
REMARK       I    between atoms: N_11  and  C_12 
REMARK    5  A    between atoms: C_12  and  C_14 
REMARK    6  A    between atoms: C_27  and  N_28 
ROOT
ATOM      1  C   UNL d   1      25.203 -16.271  -1.390  0.00  0.00     0.033 A 
ATOM      2  C   UNL d   1      24.871 -15.425  -2.459  0.00  0.00     0.019 A 
ATOM      3  C   UNL d   1      25.870 -14.885  -3.297  0.00  0.00     0.030 A 
ATOM      4  C   UNL d   1      27.225 -15.135  -3.039  0.00  0.00     0.035 A 
ATOM      5  C   UNL d   1      27.533 -15.997  -1.981  0.00  0.00     0.030 A 
ATOM      6  C   UNL d   1      26.545 -16.561  -1.161  0.00  0.00     0.019 A 
ENDROOT
BRANCH   1   7
ATOM      7  C   UNL d   1      24.120 -16.942  -0.608  0.00  0.00     0.271 C 
ATOM      8  N   UNL d   1      22.833 -16.839  -1.120  0.00  0.00    -0.243 N 
ATOM      9  H   UNL d   1      22.696 -16.402  -2.020  0.00  0.00     0.192 HD
ATOM     10  O   UNL d   1      24.440 -17.542   0.421  0.00  0.00    -0.266 OA
BRANCH   8  11
ATOM     11  N   UNL d   1      21.782 -17.454  -0.481  0.00  0.00    -0.176 NA
ATOM     12  C   UNL d   1      21.784 -18.739  -0.246  0.00  0.00     0.061 C 
ATOM     13  C   UNL d   1      22.881 -19.697  -0.656  0.00  0.00     0.073 C 
BRANCH  12  14
ATOM     14  C   UNL d   1      20.612 -19.326   0.509  0.00  0.00    -0.008 A 
ATOM     15  C   UNL d   1      20.653 -19.353   1.907  0.00  0.00     0.013 A 
ATOM     16  C   UNL d   1      19.690 -20.070   2.623  0.00  0.00     0.003 A 
ATOM     17  C   UNL d   1      18.644 -20.708   1.953  0.00  0.00     0.029 A 
ATOM     18  C   UNL d   1      18.572 -20.680   0.557  0.00  0.00     0.026 A 
ATOM     19  C   UNL d   1      19.539 -19.949  -0.154  0.00  0.00     0.042 A 
BRANCH  18  20
ATOM     20  N   UNL d   1      17.455 -21.213  -0.093  0.00  0.00    -0.399 N 
ATOM     21  H   UNL d   1      17.261 -22.195   0.082  0.00  0.00     0.156 HD
ATOM     22  H   UNL d   1      17.307 -20.931  -1.056  0.00  0.00     0.156 HD
ENDBRANCH  18  20
ENDBRANCH  12  14
ENDBRANCH   8  11
ENDBRANCH   1   7
BRANCH   4  23
ATOM     23  N   UNL d   1      28.228 -14.503  -3.830  0.00  0.00    -0.323 N 
ATOM     24  C   UNL d   1      28.396 -14.678  -5.200  0.00  0.00     0.256 C 
ATOM     25  O   UNL d   1      27.676 -15.352  -5.939  0.00  0.00    -0.267 OA
ATOM     26  H   UNL d   1      28.882 -13.906  -3.343  0.00  0.00     0.169 HD
BRANCH  24  27
ATOM     27  C   UNL d   1      29.533 -14.002  -5.882  0.00  0.00     0.038 A 
ATOM     28  C   UNL d   1      29.530 -12.595  -5.821  0.00  0.00     0.017 A 
ATOM     29  C   UNL d   1      30.429 -11.841  -6.575  0.00  0.00     0.001 A 
ATOM     30  C   UNL d   1      31.374 -12.486  -7.363  0.00  0.00     0.001 A 
ATOM     31  C   UNL d   1      31.383 -13.881  -7.440  0.00  0.00     0.007 A 
ATOM     32  C   UNL d   1      30.460 -14.658  -6.712  0.00  0.00    -0.046 A 
ATOM     33  C   UNL d   1      30.473 -16.146  -6.890  0.00  0.00     0.049 C 
ENDBRANCH  24  27
ENDBRANCH   4  23
TORSDOF 6
ENDMDL
MODEL 2
REMARK VINA RESULT:    -8.798      2.103     11.540
REMARK INTER + INTRA:         -11.536
REMARK INTER:                 -10.588
REMARK INTRA:                  -0.948
REMARK CONF_INDEPENDENT:        1.790
REMARK UNBOUND:                -0.948
REMARK  6 active torsions:
REMARK  status: ('A' for Active; 'I' for Inactive)
REMARK    1  A    between atoms: C_2  and  C_23 
REMARK    2  A    between atoms: N_3  and  N_4 
REMARK       I    between atoms: N_4  and  C_5 
REMARK    3  A    between atoms: C_5  and  C_7 
REMARK    4  A    between atoms: C_10  and  N_11 
REMARK       I    between atoms: N_11  and  C_12 
REMARK    5  A    between atoms: C_12  and  C_14 
REMARK    6  A    between atoms: C_27  and  N_28 
ROOT
ATOM      1  C   UNL d   1      25.094 -16.387  -1.443  0.00  0.00     0.033 A 
ATOM      2  C   UNL d   1      25.383 -17.688  -1.003  0.00  0.00     0.019 A 
ATOM      3  C   UNL d   1      24.360 -18.545  -0.546  0.00  0.00     0.030 A 
ATOM      4  C   UNL d   1      23.036 -18.091  -0.465  0.00  0.00     0.035 A 
ATOM      5  C   UNL d   1      22.766 -16.799  -0.928  0.00  0.00     0.030 A 
ATOM      6  C   UNL d   1      23.773 -15.950  -1.411  0.00  0.00     0.019 A 
ENDROOT
BRANCH   1   7
ATOM      7  C   UNL d   1      26.173 -15.552  -2.054  0.00  0.00     0.271 C 
ATOM      8  N   UNL d   1      26.351 -15.677  -3.427  0.00  0.00    -0.243 N 
ATOM      9  H   UNL d   1      25.705 -16.246  -3.955  0.00  0.00     0.192 HD
ATOM     10  O   UNL d   1      26.818 -14.809  -1.310  0.00  0.00    -0.266 OA
BRANCH   8  11
ATOM     11  N   UNL d   1      27.299 -14.921  -4.074  0.00  0.00    -0.176 NA
ATOM     12  C   UNL d   1      27.021 -13.736  -4.547  0.00  0.00     0.061 C 
ATOM     13  C   UNL d   1      25.664 -13.069  -4.481  0.00  0.00     0.073 C 
BRANCH  12  14
ATOM     14  C   UNL d   1      28.137 -12.951  -5.199  0.00  0.00    -0.008 A 
ATOM     15  C   UNL d   1      28.623 -11.806  -4.558  0.00  0.00     0.013 A 
ATOM     16  C   UNL d   1      29.501 -10.947  -5.225  0.00  0.00     0.003 A 
ATOM     17  C   UNL d   1      29.951 -11.260  -6.510  0.00  0.00     0.029 A 
ATOM     18  C   UNL d   1      29.493 -12.407  -7.164  0.00  0.00     0.026 A 
ATOM     19  C   UNL d   1      28.617 -13.269  -6.483  0.00  0.00     0.042 A 
BRANCH  18  20
ATOM     20  N   UNL d   1      30.045 -12.773  -8.395  0.00  0.00    -0.399 N 
ATOM     21  H   UNL d   1      29.473 -13.371  -8.984  0.00  0.00     0.156 HD
ATOM     22  H   UNL d   1      31.030 -13.014  -8.402  0.00  0.00     0.156 HD
ENDBRANCH  18  20
ENDBRANCH  12  14
ENDBRANCH   8  11
ENDBRANCH   1   7
BRANCH   4  23
ATOM     23  N   UNL d   1      22.029 -18.931   0.092  0.00  0.00    -0.323 N 
ATOM     24  C   UNL d   1      20.702 -18.978  -0.326  0.00  0.00     0.256 C 
ATOM     25  O   UNL d   1      20.217 -18.351  -1.269  0.00  0.00    -0.267 OA
ATOM     26  H   UNL d   1      22.303 -19.514   0.872  0.00  0.00     0.169 HD
BRANCH  24  27
ATOM     27  C   UNL d   1      19.746 -19.860   0.398  0.00  0.00     0.038 A 
ATOM     28  C   UNL d   1      18.748 -20.457  -0.397  0.00  0.00     0.017 A 
ATOM     29  C   UNL d   1      17.685 -21.147   0.184  0.00  0.00     0.001 A 
ATOM     30  C   UNL d   1      17.632 -21.291   1.564  0.00  0.00     0.001 A 
ATOM     31  C   UNL d   1      18.610 -20.697   2.365  0.00  0.00     0.007 A 
ATOM     32  C   UNL d   1      19.673 -19.966   1.798  0.00  0.00    -0.046 A 
ATOM     33  C   UNL d   1      20.653 -19.293   2.711  0.00  0.00     0.049 C 
ENDBRANCH  24  27
ENDBRANCH   4  23
TORSDOF 6
ENDMDL
MODEL 3
REMARK VINA RESULT:    -8.251      8.195     12.007
REMARK INTER + INTRA:         -10.918
REMARK INTER:                 -10.041
REMARK INTRA:                  -0.877
REMARK CONF_INDEPENDENT:        1.790
REMARK UNBOUND:                -0.877
REMARK  6 active torsions:
REMARK  status: ('A' for Active; 'I' for Inactive)
REMARK    1  A    between atoms: C_2  and  C_23 
REMARK    2  A    between atoms: N_3  and  N_4 
REMARK       I    between atoms: N_4  and  C_5 
REMARK    3  A    between atoms: C_5  and  C_7 
REMARK    4  A    between atoms: C_10  and  N_11 
REMARK       I    between atoms: N_11  and  C_12 
REMARK    5  A    between atoms: C_12  and  C_14 
REMARK    6  A    between atoms: C_27  and  N_28 
ROOT
ATOM      1  C   UNL d   1      27.842 -13.441   3.579  0.00  0.00     0.033 A 
ATOM      2  C   UNL d   1      28.160 -14.760   3.936  0.00  0.00     0.019 A 
ATOM      3  C   UNL d   1      28.459 -15.101   5.272  0.00  0.00     0.030 A 
ATOM      4  C   UNL d   1      28.504 -14.111   6.265  0.00  0.00     0.035 A 
ATOM      5  C   UNL d   1      28.163 -12.806   5.892  0.00  0.00     0.030 A 
ATOM      6  C   UNL d   1      27.837 -12.465   4.572  0.00  0.00     0.019 A 
ENDROOT
BRANCH   1   7
ATOM      7  C   UNL d   1      27.391 -13.135   2.187  0.00  0.00     0.271 C 
ATOM      8  N   UNL d   1      27.647 -14.105   1.226  0.00  0.00    -0.243 N 
ATOM      9  H   UNL d   1      28.038 -14.991   1.514  0.00  0.00     0.192 HD
ATOM     10  O   UNL d   1      26.821 -12.059   1.990  0.00  0.00    -0.266 OA
BRANCH   8  11
ATOM     11  N   UNL d   1      27.237 -13.919  -0.073  0.00  0.00    -0.176 NA
ATOM     12  C   UNL d   1      26.670 -14.877  -0.754  0.00  0.00     0.061 C 
ATOM     13  C   UNL d   1      26.424 -16.280  -0.242  0.00  0.00     0.073 C 
BRANCH  12  14
ATOM     14  C   UNL d   1      26.202 -14.572  -2.159  0.00  0.00    -0.008 A 
ATOM     15  C   UNL d   1      26.131 -15.613  -3.090  0.00  0.00     0.013 A 
ATOM     16  C   UNL d   1      25.905 -15.332  -4.441  0.00  0.00     0.003 A 
ATOM     17  C   UNL d   1      25.682 -14.018  -4.859  0.00  0.00     0.029 A 
ATOM     18  C   UNL d   1      25.730 -12.963  -3.944  0.00  0.00     0.026 A 
ATOM     19  C   UNL d   1      25.949 -13.255  -2.587  0.00  0.00     0.042 A 
BRANCH  18  20
ATOM     20  N   UNL d   1      25.382 -11.672  -4.352  0.00  0.00    -0.399 N 
ATOM     21  H   UNL d   1      24.780 -11.149  -3.722  0.00  0.00     0.156 HD
ATOM     22  H   UNL d   1      25.155 -11.547  -5.333  0.00  0.00     0.156 HD
ENDBRANCH  18  20
ENDBRANCH  12  14
ENDBRANCH   8  11
ENDBRANCH   1   7
BRANCH   4  23
ATOM     23  N   UNL d   1      28.905 -14.450   7.589  0.00  0.00    -0.323 N 
ATOM     24  C   UNL d   1      29.333 -13.543   8.554  0.00  0.00     0.256 C 
ATOM     25  O   UNL d   1      29.373 -12.318   8.430  0.00  0.00    -0.267 OA
ATOM     26  H   UNL d   1      28.904 -15.433   7.827  0.00  0.00     0.169 HD
BRANCH  24  27
ATOM     27  C   UNL d   1      29.787 -14.053   9.876  0.00  0.00     0.038 A 
ATOM     28  C   UNL d   1      30.949 -14.848   9.856  0.00  0.00     0.017 A 
ATOM     29  C   UNL d   1      31.367 -15.539  10.993  0.00  0.00     0.001 A 
ATOM     30  C   UNL d   1      30.656 -15.404  12.178  0.00  0.00     0.001 A 
ATOM     31  C   UNL d   1      29.496 -14.626  12.211  0.00  0.00     0.007 A 
ATOM     32  C   UNL d   1      29.039 -13.949  11.063  0.00  0.00    -0.046 A 
ATOM     33  C   UNL d   1      27.751 -13.187  11.140  0.00  0.00     0.049 C 
ENDBRANCH  24  27
ENDBRANCH   4  23
TORSDOF 6
ENDMDL
MODEL 4
REMARK VINA RESULT:    -8.223      1.975     11.607
REMARK INTER + INTRA:         -10.957
REMARK INTER:                 -10.013
REMARK INTRA:                  -0.944
REMARK CONF_INDEPENDENT:        1.790
REMARK UNBOUND:                -0.944
REMARK  6 active torsions:
REMARK  status: ('A' for Active; 'I' for Inactive)
REMARK    1  A    between atoms: C_2  and  C_23 
REMARK    2  A    between atoms: N_3  and  N_4 
REMARK       I    between atoms: N_4  and  C_5 
REMARK    3  A    between atoms: C_5  and  C_7 
REMARK    4  A    between atoms: C_10  and  N_11 
REMARK       I    between atoms: N_11  and  C_12 
REMARK    5  A    between atoms: C_12  and  C_14 
REMARK    6  A    between atoms: C_27  and  N_28 
ROOT
ATOM      1  C   UNL d   1      25.220 -16.385  -1.299  0.00  0.00     0.033 A 
ATOM      2  C   UNL d   1      25.503 -17.679  -0.834  0.00  0.00     0.019 A 
ATOM      3  C   UNL d   1      24.469 -18.552  -0.436  0.00  0.00     0.030 A 
ATOM      4  C   UNL d   1      23.135 -18.121  -0.440  0.00  0.00     0.035 A 
ATOM      5  C   UNL d   1      22.872 -16.836  -0.927  0.00  0.00     0.030 A 
ATOM      6  C   UNL d   1      23.892 -15.972  -1.352  0.00  0.00     0.019 A 
ENDROOT
BRANCH   1   7
ATOM      7  C   UNL d   1      26.319 -15.534  -1.847  0.00  0.00     0.271 C 
ATOM      8  N   UNL d   1      27.387 -16.204  -2.434  0.00  0.00    -0.243 N 
ATOM      9  H   UNL d   1      27.338 -17.207  -2.541  0.00  0.00     0.192 HD
ATOM     10  O   UNL d   1      26.202 -14.310  -1.752  0.00  0.00    -0.266 OA
BRANCH   8  11
ATOM     11  N   UNL d   1      28.425 -15.496  -2.992  0.00  0.00    -0.176 NA
ATOM     12  C   UNL d   1      28.336 -14.984  -4.190  0.00  0.00     0.061 C 
ATOM     13  C   UNL d   1      27.140 -15.120  -5.108  0.00  0.00     0.073 C 
BRANCH  12  14
ATOM     14  C   UNL d   1      29.505 -14.177  -4.707  0.00  0.00    -0.008 A 
ATOM     15  C   UNL d   1      29.592 -13.913  -6.079  0.00  0.00     0.013 A 
ATOM     16  C   UNL d   1      30.756 -13.353  -6.613  0.00  0.00     0.003 A 
ATOM     17  C   UNL d   1      31.814 -12.993  -5.775  0.00  0.00     0.029 A 
ATOM     18  C   UNL d   1      31.743 -13.231  -4.400  0.00  0.00     0.026 A 
ATOM     19  C   UNL d   1      30.566 -13.785  -3.869  0.00  0.00     0.042 A 
BRANCH  18  20
ATOM     20  N   UNL d   1      32.752 -12.752  -3.559  0.00  0.00    -0.399 N 
ATOM     21  H   UNL d   1      32.446 -12.266  -2.721  0.00  0.00     0.156 HD
ATOM     22  H   UNL d   1      33.559 -12.330  -4.006  0.00  0.00     0.156 HD
ENDBRANCH  18  20
ENDBRANCH  12  14
ENDBRANCH   8  11
ENDBRANCH   1   7
BRANCH   4  23
ATOM     23  N   UNL d   1      22.110 -18.976   0.059  0.00  0.00    -0.323 N 
ATOM     24  C   UNL d   1      20.776 -18.944  -0.335  0.00  0.00     0.256 C 
ATOM     25  O   UNL d   1      20.296 -18.220  -1.209  0.00  0.00    -0.267 OA
ATOM     26  H   UNL d   1      22.378 -19.634   0.779  0.00  0.00     0.169 HD
BRANCH  24  27
ATOM     27  C   UNL d   1      19.803 -19.856   0.325  0.00  0.00     0.038 A 
ATOM     28  C   UNL d   1      18.825 -20.417  -0.520  0.00  0.00     0.017 A 
ATOM     29  C   UNL d   1      17.749 -21.132   0.004  0.00  0.00     0.001 A 
ATOM     30  C   UNL d   1      17.663 -21.338   1.375  0.00  0.00     0.001 A 
ATOM     31  C   UNL d   1      18.622 -20.781   2.225  0.00  0.00     0.007 A 
ATOM     32  C   UNL d   1      19.697 -20.026   1.717  0.00  0.00    -0.046 A 
ATOM     33  C   UNL d   1      20.654 -19.394   2.682  0.00  0.00     0.049 C 
ENDBRANCH  24  27
ENDBRANCH   4  23
TORSDOF 6
ENDMDL
MODEL 5
REMARK VINA RESULT:    -7.182      7.313      8.988
REMARK INTER + INTRA:          -9.986
REMARK INTER:                  -8.971
REMARK INTRA:                  -1.015
REMARK CONF_INDEPENDENT:        1.790
REMARK UNBOUND:                -1.015
REMARK  6 active torsions:
REMARK  status: ('A' for Active; 'I' for Inactive)
REMARK    1  A    between atoms: C_2  and  C_23 
REMARK    2  A    between atoms: N_3  and  N_4 
REMARK       I    between atoms: N_4  and  C_5 
REMARK    3  A    between atoms: C_5  and  C_7 
REMARK    4  A    between atoms: C_10  and  N_11 
REMARK       I    between atoms: N_11  and  C_12 
REMARK    5  A    between atoms: C_12  and  C_14 
REMARK    6  A    between atoms: C_27  and  N_28 
ROOT
ATOM      1  C   UNL d   1      28.233 -13.929   2.655  0.00  0.00     0.033 A 
ATOM      2  C   UNL d   1      27.047 -13.918   1.905  0.00  0.00     0.019 A 
ATOM      3  C   UNL d   1      27.068 -14.117   0.508  0.00  0.00     0.030 A 
ATOM      4  C   UNL d   1      28.286 -14.268  -0.170  0.00  0.00     0.035 A 
ATOM      5  C   UNL d   1      29.455 -14.296   0.600  0.00  0.00     0.030 A 
ATOM      6  C   UNL d   1      29.440 -14.129   1.992  0.00  0.00     0.019 A 
ENDROOT
BRANCH   1   7
ATOM      7  C   UNL d   1      28.170 -13.859   4.147  0.00  0.00     0.271 C 
ATOM      8  N   UNL d   1      28.835 -14.861   4.842  0.00  0.00    -0.243 N 
ATOM      9  H   UNL d   1      29.392 -15.529   4.328  0.00  0.00     0.192 HD
ATOM     10  O   UNL d   1      27.547 -12.923   4.654  0.00  0.00    -0.266 OA
BRANCH   8  11
ATOM     11  N   UNL d   1      28.855 -14.855   6.217  0.00  0.00    -0.176 NA
ATOM     12  C   UNL d   1      29.564 -13.984   6.885  0.00  0.00     0.061 C 
ATOM     13  C   UNL d   1      30.452 -12.926   6.267  0.00  0.00     0.073 C 
BRANCH  12  14
ATOM     14  C   UNL d   1      29.487 -14.014   8.395  0.00  0.00    -0.008 A 
ATOM     15  C   UNL d   1      30.383 -14.823   9.102  0.00  0.00     0.013 A 
ATOM     16  C   UNL d   1      30.207 -15.033  10.473  0.00  0.00     0.003 A 
ATOM     17  C   UNL d   1      29.177 -14.385  11.158  0.00  0.00     0.029 A 
ATOM     18  C   UNL d   1      28.280 -13.559  10.477  0.00  0.00     0.026 A 
ATOM     19  C   UNL d   1      28.470 -13.345   9.101  0.00  0.00     0.042 A 
BRANCH  18  20
ATOM     20  N   UNL d   1      27.334 -12.819  11.193  0.00  0.00    -0.399 N 
ATOM     21  H   UNL d   1      27.620 -11.890  11.487  0.00  0.00     0.156 HD
ATOM     22  H   UNL d   1      26.792 -13.321  11.888  0.00  0.00     0.156 HD
ENDBRANCH  18  20
ENDBRANCH  12  14
ENDBRANCH   8  11
ENDBRANCH   1   7
BRANCH   4  23
ATOM     23  N   UNL d   1      28.301 -14.366  -1.591  0.00  0.00    -0.323 N 
ATOM     24  C   UNL d   1      28.281 -15.556  -2.313  0.00  0.00     0.256 C 
ATOM     25  O   UNL d   1      28.188 -16.690  -1.839  0.00  0.00    -0.267 OA
ATOM     26  H   UNL d   1      28.362 -13.498  -2.106  0.00  0.00     0.169 HD
BRANCH  24  27
ATOM     27  C   UNL d   1      28.370 -15.504  -3.797  0.00  0.00     0.038 A 
ATOM     28  C   UNL d   1      29.590 -15.940  -4.350  0.00  0.00     0.017 A 
ATOM     29  C   UNL d   1      29.868 -15.765  -5.705  0.00  0.00     0.001 A 
ATOM     30  C   UNL d   1      28.910 -15.196  -6.534  0.00  0.00     0.001 A 
ATOM     31  C   UNL d   1      27.699 -14.752  -5.998  0.00  0.00     0.007 A 
ATOM     32  C   UNL d   1      27.414 -14.888  -4.625  0.00  0.00    -0.046 A 
ATOM     33  C   UNL d   1      26.128 -14.329  -4.096  0.00  0.00     0.049 C 
ENDBRANCH  24  27
ENDBRANCH   4  23
TORSDOF 6
ENDMDL
MODEL 6
REMARK VINA RESULT:    -7.142      3.090     11.552
REMARK INTER + INTRA:          -9.859
REMARK INTER:                  -8.932
REMARK INTRA:                  -0.927
REMARK CONF_INDEPENDENT:        1.790
REMARK UNBOUND:                -0.927
REMARK  6 active torsions:
REMARK  status: ('A' for Active; 'I' for Inactive)
REMARK    1  A    between atoms: C_2  and  C_23 
REMARK    2  A    between atoms: N_3  and  N_4 
REMARK       I    between atoms: N_4  and  C_5 
REMARK    3  A    between atoms: C_5  and  C_7 
REMARK    4  A    between atoms: C_10  and  N_11 
REMARK       I    between atoms: N_11  and  C_12 
REMARK    5  A    between atoms: C_12  and  C_14 
REMARK    6  A    between atoms: C_27  and  N_28 
ROOT
ATOM      1  C   UNL d   1      25.691 -16.761  -1.198  0.00  0.00     0.033 A 
ATOM      2  C   UNL d   1      24.410 -16.534  -1.723  0.00  0.00     0.019 A 
ATOM      3  C   UNL d   1      23.295 -17.270  -1.267  0.00  0.00     0.030 A 
ATOM      4  C   UNL d   1      23.458 -18.290  -0.319  0.00  0.00     0.035 A 
ATOM      5  C   UNL d   1      24.740 -18.486   0.207  0.00  0.00     0.030 A 
ATOM      6  C   UNL d   1      25.847 -17.739  -0.220  0.00  0.00     0.019 A 
ENDROOT
BRANCH   1   7
ATOM      7  C   UNL d   1      26.826 -15.873  -1.595  0.00  0.00     0.271 C 
ATOM      8  N   UNL d   1      26.949 -14.677  -0.897  0.00  0.00    -0.243 N 
ATOM      9  H   UNL d   1      26.337 -14.500  -0.113  0.00  0.00     0.192 HD
ATOM     10  O   UNL d   1      27.573 -16.260  -2.496  0.00  0.00    -0.266 OA
BRANCH   8  11
ATOM     11  N   UNL d   1      27.984 -13.816  -1.176  0.00  0.00    -0.176 NA
ATOM     12  C   UNL d   1      29.186 -14.019  -0.707  0.00  0.00     0.061 C 
ATOM     13  C   UNL d   1      29.585 -15.164   0.199  0.00  0.00     0.073 C 
BRANCH  12  14
ATOM     14  C   UNL d   1      30.278 -13.051  -1.106  0.00  0.00    -0.008 A 
ATOM     15  C   UNL d   1      30.972 -13.269  -2.301  0.00  0.00     0.013 A 
ATOM     16  C   UNL d   1      32.115 -12.521  -2.594  0.00  0.00     0.003 A 
ATOM     17  C   UNL d   1      32.535 -11.507  -1.729  0.00  0.00     0.029 A 
ATOM     18  C   UNL d   1      31.848 -11.260  -0.538  0.00  0.00     0.026 A 
ATOM     19  C   UNL d   1      30.694 -12.010  -0.255  0.00  0.00     0.042 A 
BRANCH  18  20
ATOM     20  N   UNL d   1      32.202 -10.164   0.255  0.00  0.00    -0.399 N 
ATOM     21  H   UNL d   1      31.524  -9.409   0.305  0.00  0.00     0.156 HD
ATOM     22  H   UNL d   1      33.164  -9.847   0.195  0.00  0.00     0.156 HD
ENDBRANCH  18  20
ENDBRANCH  12  14
ENDBRANCH   8  11
ENDBRANCH   1   7
BRANCH   4  23
ATOM     23  N   UNL d   1      22.343 -19.093   0.059  0.00  0.00    -0.323 N 
ATOM     24  C   UNL d   1      21.013 -18.803  -0.227  0.00  0.00     0.256 C 
ATOM     25  O   UNL d   1      20.606 -17.851  -0.895  0.00  0.00    -0.267 OA
ATOM     26  H   UNL d   1      22.543 -19.920   0.605  0.00  0.00     0.169 HD
BRANCH  24  27
ATOM     27  C   UNL d   1      19.947 -19.703   0.292  0.00  0.00     0.038 A 
ATOM     28  C   UNL d   1      19.002 -20.138  -0.657  0.00  0.00     0.017 A 
ATOM     29  C   UNL d   1      17.854 -20.825  -0.264  0.00  0.00     0.001 A 
ATOM     30  C   UNL d   1      17.661 -21.129   1.078  0.00  0.00     0.001 A 
ATOM     31  C   UNL d   1      18.586 -20.697   2.030  0.00  0.00     0.007 A 
ATOM     32  C   UNL d   1      19.734 -19.971   1.657  0.00  0.00    -0.046 A 
ATOM     33  C   UNL d   1      20.654 -19.473   2.730  0.00  0.00     0.049 C 
ENDBRANCH  24  27
ENDBRANCH   4  23
TORSDOF 6
ENDMDL
MODEL 7
REMARK VINA RESULT:    -6.899      7.856     11.514
REMARK INTER + INTRA:          -9.551
REMARK INTER:                  -8.689
REMARK INTRA:                  -0.862
REMARK CONF_INDEPENDENT:        1.790
REMARK UNBOUND:                -0.862
REMARK  6 active torsions:
REMARK  status: ('A' for Active; 'I' for Inactive)
REMARK    1  A    between atoms: C_2  and  C_23 
REMARK    2  A    between atoms: N_3  and  N_4 
REMARK       I    between atoms: N_4  and  C_5 
REMARK    3  A    between atoms: C_5  and  C_7 
REMARK    4  A    between atoms: C_10  and  N_11 
REMARK       I    between atoms: N_11  and  C_12 
REMARK    5  A    between atoms: C_12  and  C_14 
REMARK    6  A    between atoms: C_27  and  N_28 
ROOT
ATOM      1  C   UNL d   1      31.536 -19.174  -0.171  0.00  0.00     0.033 A 
ATOM      2  C   UNL d   1      31.207 -20.527   0.006  0.00  0.00     0.019 A 
ATOM      3  C   UNL d   1      31.606 -21.228   1.163  0.00  0.00     0.030 A 
ATOM      4  C   UNL d   1      32.396 -20.600   2.136  0.00  0.00     0.035 A 
ATOM      5  C   UNL d   1      32.696 -19.246   1.951  0.00  0.00     0.030 A 
ATOM      6  C   UNL d   1      32.278 -18.534   0.818  0.00  0.00     0.019 A 
ENDROOT
BRANCH   1   7
ATOM      7  C   UNL d   1      30.980 -18.419  -1.335  0.00  0.00     0.271 C 
ATOM      8  N   UNL d   1      29.790 -17.735  -1.118  0.00  0.00    -0.243 N 
ATOM      9  H   UNL d   1      29.404 -17.705  -0.185  0.00  0.00     0.192 HD
ATOM     10  O   UNL d   1      31.612 -18.445  -2.393  0.00  0.00    -0.266 OA
BRANCH   8  11
ATOM     11  N   UNL d   1      29.226 -16.989  -2.126  0.00  0.00    -0.176 NA
ATOM     12  C   UNL d   1      28.039 -16.459  -2.001  0.00  0.00     0.061 C 
ATOM     13  C   UNL d   1      27.140 -16.613  -0.794  0.00  0.00     0.073 C 
BRANCH  12  14
ATOM     14  C   UNL d   1      27.517 -15.609  -3.137  0.00  0.00    -0.008 A 
ATOM     15  C   UNL d   1      28.375 -15.290  -4.195  0.00  0.00     0.013 A 
ATOM     16  C   UNL d   1      27.992 -14.343  -5.149  0.00  0.00     0.003 A 
ATOM     17  C   UNL d   1      26.725 -13.758  -5.091  0.00  0.00     0.029 A 
ATOM     18  C   UNL d   1      25.844 -14.073  -4.053  0.00  0.00     0.026 A 
ATOM     19  C   UNL d   1      26.233 -15.032  -3.104  0.00  0.00     0.042 A 
BRANCH  18  20
ATOM     20  N   UNL d   1      24.537 -13.577  -4.077  0.00  0.00    -0.399 N 
ATOM     21  H   UNL d   1      23.875 -14.084  -4.658  0.00  0.00     0.156 HD
ATOM     22  H   UNL d   1      24.429 -12.569  -4.117  0.00  0.00     0.156 HD
ENDBRANCH  18  20
ENDBRANCH  12  14
ENDBRANCH   8  11
ENDBRANCH   1   7
BRANCH   4  23
ATOM     23  N   UNL d   1      32.878 -21.347   3.251  0.00  0.00    -0.323 N 
ATOM     24  C   UNL d   1      33.703 -20.848   4.254  0.00  0.00     0.256 C 
ATOM     25  O   UNL d   1      34.090 -19.683   4.361  0.00  0.00    -0.267 OA
ATOM     26  H   UNL d   1      32.618 -22.323   3.290  0.00  0.00     0.169 HD
BRANCH  24  27
ATOM     27  C   UNL d   1      34.182 -21.767   5.322  0.00  0.00     0.038 A 
ATOM     28  C   UNL d   1      35.468 -22.307   5.128  0.00  0.00     0.017 A 
ATOM     29  C   UNL d   1      35.953 -23.321   5.953  0.00  0.00     0.001 A 
ATOM     30  C   UNL d   1      35.177 -23.774   7.012  0.00  0.00     0.001 A 
ATOM     31  C   UNL d   1      33.897 -23.253   7.212  0.00  0.00     0.007 A 
ATOM     32  C   UNL d   1      33.376 -22.253   6.367  0.00  0.00    -0.046 A 
ATOM     33  C   UNL d   1      31.970 -21.783   6.587  0.00  0.00     0.049 C 
ENDBRANCH  24  27
ENDBRANCH   4  23
TORSDOF 6
ENDMDL
MODEL 8
REMARK VINA RESULT:    -6.835      7.786     12.012
REMARK INTER + INTRA:          -9.618
REMARK INTER:                  -8.625
REMARK INTRA:                  -0.993
REMARK CONF_INDEPENDENT:        1.790
REMARK UNBOUND:                -0.993
REMARK  6 active torsions:
REMARK  status: ('A' for Active; 'I' for Inactive)
REMARK    1  A    between atoms: C_2  and  C_23 
REMARK    2  A    between atoms: N_3  and  N_4 
REMARK       I    between atoms: N_4  and  C_5 
REMARK    3  A    between atoms: C_5  and  C_7 
REMARK    4  A    between atoms: C_10  and  N_11 
REMARK       I    between atoms: N_11  and  C_12 
REMARK    5  A    between atoms: C_12  and  C_14 
REMARK    6  A    between atoms: C_27  and  N_28 
ROOT
ATOM      1  C   UNL d   1      28.609 -14.151   2.874  0.00  0.00     0.033 A 
ATOM      2  C   UNL d   1      29.807 -14.411   3.557  0.00  0.00     0.019 A 
ATOM      3  C   UNL d   1      29.832 -14.532   4.963  0.00  0.00     0.030 A 
ATOM      4  C   UNL d   1      28.664 -14.334   5.713  0.00  0.00     0.035 A 
ATOM      5  C   UNL d   1      27.477 -14.096   5.012  0.00  0.00     0.030 A 
ATOM      6  C   UNL d   1      27.439 -14.003   3.613  0.00  0.00     0.019 A 
ENDROOT
BRANCH   1   7
ATOM      7  C   UNL d   1      28.586 -14.168   1.380  0.00  0.00     0.271 C 
ATOM      8  N   UNL d   1      29.362 -15.141   0.760  0.00  0.00    -0.243 N 
ATOM      9  H   UNL d   1      29.829 -15.833   1.329  0.00  0.00     0.192 HD
ATOM     10  O   UNL d   1      27.882 -13.336   0.804  0.00  0.00    -0.266 OA
BRANCH   8  11
ATOM     11  N   UNL d   1      29.373 -15.249  -0.611  0.00  0.00    -0.176 NA
ATOM     12  C   UNL d   1      28.552 -16.046  -1.239  0.00  0.00     0.061 C 
ATOM     13  C   UNL d   1      27.538 -16.952  -0.574  0.00  0.00     0.073 C 
BRANCH  12  14
ATOM     14  C   UNL d   1      28.596 -16.065  -2.751  0.00  0.00    -0.008 A 
ATOM     15  C   UNL d   1      29.600 -16.800  -3.390  0.00  0.00     0.013 A 
ATOM     16  C   UNL d   1      29.794 -16.671  -4.768  0.00  0.00     0.003 A 
ATOM     17  C   UNL d   1      28.946 -15.861  -5.526  0.00  0.00     0.029 A 
ATOM     18  C   UNL d   1      27.925 -15.130  -4.913  0.00  0.00     0.026 A 
ATOM     19  C   UNL d   1      27.731 -15.272  -3.528  0.00  0.00     0.042 A 
BRANCH  18  20
ATOM     20  N   UNL d   1      27.007 -14.424  -5.696  0.00  0.00    -0.399 N 
ATOM     21  H   UNL d   1      26.104 -14.236  -5.270  0.00  0.00     0.156 HD
ATOM     22  H   UNL d   1      26.953 -14.676  -6.677  0.00  0.00     0.156 HD
ENDBRANCH  18  20
ENDBRANCH  12  14
ENDBRANCH   8  11
ENDBRANCH   1   7
BRANCH   4  23
ATOM     23  N   UNL d   1      28.722 -14.359   7.137  0.00  0.00    -0.323 N 
ATOM     24  C   UNL d   1      28.622 -13.244   7.963  0.00  0.00     0.256 C 
ATOM     25  O   UNL d   1      28.412 -12.087   7.597  0.00  0.00    -0.267 OA
ATOM     26  H   UNL d   1      28.878 -15.260   7.570  0.00  0.00     0.169 HD
BRANCH  24  27
ATOM     27  C   UNL d   1      28.768 -13.418   9.434  0.00  0.00     0.038 A 
ATOM     28  C   UNL d   1      27.889 -12.655  10.227  0.00  0.00     0.017 A 
ATOM     29  C   UNL d   1      28.048 -12.582  11.610  0.00  0.00     0.001 A 
ATOM     30  C   UNL d   1      29.059 -13.311  12.224  0.00  0.00     0.001 A 
ATOM     31  C   UNL d   1      29.943 -14.066  11.450  0.00  0.00     0.007 A 
ATOM     32  C   UNL d   1      29.819 -14.123  10.047  0.00  0.00    -0.046 A 
ATOM     33  C   UNL d   1      30.840 -14.892   9.264  0.00  0.00     0.049 C 
ENDBRANCH  24  27
ENDBRANCH   4  23
TORSDOF 6
ENDMDL
MODEL 9
REMARK VINA RESULT:    -6.758      1.591      2.220
REMARK INTER + INTRA:          -9.535
REMARK INTER:                  -8.548
REMARK INTRA:                  -0.987
REMARK CONF_INDEPENDENT:        1.790
REMARK UNBOUND:                -0.987
REMARK  6 active torsions:
REMARK  status: ('A' for Active; 'I' for Inactive)
REMARK    1  A    between atoms: C_2  and  C_23 
REMARK    2  A    between atoms: N_3  and  N_4 
REMARK       I    between atoms: N_4  and  C_5 
REMARK    3  A    between atoms: C_5  and  C_7 
REMARK    4  A    between atoms: C_10  and  N_11 
REMARK       I    between atoms: N_11  and  C_12 
REMARK    5  A    between atoms: C_12  and  C_14 
REMARK    6  A    between atoms: C_27  and  N_28 
ROOT
ATOM      1  C   UNL d   1      26.297 -15.926  -2.274  0.00  0.00     0.033 A 
ATOM      2  C   UNL d   1      25.886 -14.844  -3.068  0.00  0.00     0.019 A 
ATOM      3  C   UNL d   1      26.798 -14.171  -3.908  0.00  0.00     0.030 A 
ATOM      4  C   UNL d   1      28.152 -14.533  -3.921  0.00  0.00     0.035 A 
ATOM      5  C   UNL d   1      28.536 -15.627  -3.138  0.00  0.00     0.030 A 
ATOM      6  C   UNL d   1      27.631 -16.319  -2.322  0.00  0.00     0.019 A 
ENDROOT
BRANCH   1   7
ATOM      7  C   UNL d   1      25.284 -16.709  -1.503  0.00  0.00     0.271 C 
ATOM      8  N   UNL d   1      24.427 -17.513  -2.245  0.00  0.00    -0.243 N 
ATOM      9  H   UNL d   1      24.575 -17.600  -3.240  0.00  0.00     0.192 HD
ATOM     10  O   UNL d   1      25.283 -16.599  -0.274  0.00  0.00    -0.266 OA
BRANCH   8  11
ATOM     11  N   UNL d   1      23.487 -18.292  -1.613  0.00  0.00    -0.176 NA
ATOM     12  C   UNL d   1      22.449 -17.764  -1.021  0.00  0.00     0.061 C 
ATOM     13  C   UNL d   1      22.165 -16.281  -0.921  0.00  0.00     0.073 C 
BRANCH  12  14
ATOM     14  C   UNL d   1      21.436 -18.697  -0.395  0.00  0.00    -0.008 A 
ATOM     15  C   UNL d   1      20.429 -19.239  -1.200  0.00  0.00     0.013 A 
ATOM     16  C   UNL d   1      19.363 -19.932  -0.618  0.00  0.00     0.003 A 
ATOM     17  C   UNL d   1      19.331 -20.145   0.763  0.00  0.00     0.029 A 
ATOM     18  C   UNL d   1      20.336 -19.627   1.585  0.00  0.00     0.026 A 
ATOM     19  C   UNL d   1      21.408 -18.940   0.991  0.00  0.00     0.042 A 
BRANCH  18  20
ATOM     20  N   UNL d   1      20.359 -19.954   2.944  0.00  0.00    -0.399 N 
ATOM     21  H   UNL d   1      21.046 -20.646   3.228  0.00  0.00     0.156 HD
ATOM     22  H   UNL d   1      19.462 -20.054   3.406  0.00  0.00     0.156 HD
ENDBRANCH  18  20
ENDBRANCH  12  14
ENDBRANCH   8  11
ENDBRANCH   1   7
BRANCH   4  23
ATOM     23  N   UNL d   1      29.081 -13.781  -4.697  0.00  0.00    -0.323 N 
ATOM     24  C   UNL d   1      29.656 -14.205  -5.891  0.00  0.00     0.256 C 
ATOM     25  O   UNL d   1      29.407 -15.257  -6.482  0.00  0.00    -0.267 OA
ATOM     26  H   UNL d   1      29.361 -12.883  -4.327  0.00  0.00     0.169 HD
BRANCH  24  27
ATOM     27  C   UNL d   1      30.665 -13.337  -6.558  0.00  0.00     0.038 A 
ATOM     28  C   UNL d   1      30.356 -12.946  -7.875  0.00  0.00     0.017 A 
ATOM     29  C   UNL d   1      31.298 -12.296  -8.671  0.00  0.00     0.001 A 
ATOM     30  C   UNL d   1      32.545 -11.984  -8.143  0.00  0.00     0.001 A 
ATOM     31  C   UNL d   1      32.867 -12.372  -6.841  0.00  0.00     0.007 A 
ATOM     32  C   UNL d   1      31.941 -13.062  -6.034  0.00  0.00    -0.046 A 
ATOM     33  C   UNL d   1      32.369 -13.515  -4.671  0.00  0.00     0.049 C 
ENDBRANCH  24  27
ENDBRANCH   4  23
TORSDOF 6
ENDMDL
