MODEL 1
REMARK VINA RESULT:   -11.318      0.000      0.000
REMARK INTER + INTRA:         -15.705
REMARK INTER:                 -14.301
REMARK INTRA:                  -1.405
REMARK CONF_INDEPENDENT:        2.983
REMARK UNBOUND:                -1.405
REMARK  10 active torsions:
REMARK  status: ('A' for Active; 'I' for Inactive)
REMARK    1  A    between atoms: C_2  and  C_3 
REMARK       I    between atoms: C_2  and  N_11 
REMARK    2  A    between atoms: C_3  and  C_4 
REMARK    3  A    between atoms: N_11  and  N_12 
REMARK    4  A    between atoms: N_12  and  C_13 
REMARK    5  A    between atoms: C_13  and  N_15 
REMARK       I    between atoms: N_15  and  C_16 
REMARK    6  A    between atoms: C_16  and  C_18 
REMARK    7  A    between atoms: C_23  and  O_24 
REMARK    8  A    between atoms: O_24  and  C_25 
REMARK    9  A    between atoms: C_25  and  C_26 
REMARK   10  A    between atoms: C_26  and  C_27 
ROOT
ATOM      1  N   UNL d   1      26.433 -13.823  -1.962  0.00  0.00    -0.298 N 
ATOM      2  C   UNL d   1      25.420 -14.855  -1.902  0.00  0.00     0.260 C 
ATOM      3  O   UNL d   1      24.453 -14.881  -2.649  0.00  0.00    -0.267 OA
ATOM      4  H   UNL d   1      27.245 -14.016  -1.397  0.00  0.00     0.171 HD
ENDROOT
BRANCH   1   5
ATOM      5  C   UNL d   1      26.347 -12.506  -2.593  0.00  0.00     0.193 C 
ATOM      6  S   UNL d   1      27.007 -11.110  -1.943  0.00  0.00    -0.039 SA
BRANCH   5   7
ATOM      7  N   UNL d   1      25.606 -12.489  -3.849  0.00  0.00    -0.273 N 
ATOM      8  H   UNL d   1      24.753 -11.947  -3.894  0.00  0.00     0.189 HD
BRANCH   7   9
ATOM      9  N   UNL d   1      25.526 -13.799  -4.805  0.00  0.00    -0.268 N 
ATOM     10  C   UNL d   1      26.590 -14.786  -5.143  0.00  0.00     0.240 C 
ATOM     11  O   UNL d   1      26.367 -15.578  -6.038  0.00  0.00    -0.272 OA
ATOM     12  H   UNL d   1      24.900 -13.614  -5.610  0.00  0.00     0.190 HD
BRANCH  10  13
ATOM     13  C   UNL d   1      28.125 -14.689  -4.500  0.00  0.00     0.143 C 
BRANCH  13  14
ATOM     14  C   UNL d   1      29.118 -15.661  -5.093  0.00  0.00    -0.049 A 
ATOM     15  C   UNL d   1      29.576 -15.637  -6.436  0.00  0.00     0.009 A 
ATOM     16  C   UNL d   1      30.447 -16.634  -6.888  0.00  0.00     0.024 A 
ATOM     17  C   UNL d   1      30.857 -17.626  -5.998  0.00  0.00     0.034 A 
ATOM     18 CL   UNL d   1      31.876 -18.903  -6.535  0.00  0.00    -0.084 Cl
ATOM     19  C   UNL d   1      30.442 -17.610  -4.666  0.00  0.00     0.024 A 
ATOM     20  C   UNL d   1      29.588 -16.623  -4.216  0.00  0.00     0.009 A 
ENDBRANCH  13  14
ENDBRANCH  10  13
ENDBRANCH   7   9
ENDBRANCH   5   7
ENDBRANCH   1   5
BRANCH   2  21
ATOM     21  C   UNL d   1      25.525 -16.079  -0.990  0.00  0.00     0.065 A 
ATOM     22  C   UNL d   1      26.831 -16.270  -0.462  0.00  0.00     0.020 A 
ATOM     23  C   UNL d   1      27.224 -17.457   0.178  0.00  0.00     0.001 A 
ATOM     24  C   UNL d   1      26.300 -18.467   0.386  0.00  0.00     0.003 A 
ATOM     25  C   UNL d   1      25.017 -18.321  -0.129  0.00  0.00     0.038 A 
ATOM     26  C   UNL d   1      24.628 -17.172  -0.859  0.00  0.00     0.084 A 
BRANCH  26  27
ATOM     27  O   UNL d   1      23.383 -17.391  -1.408  0.00  0.00    -0.350 OA
BRANCH  27  28
ATOM     28  C   UNL d   1      22.400 -17.807  -0.498  0.00  0.00     0.180 C 
BRANCH  28  29
ATOM     29  C   UNL d   1      21.299 -18.693  -1.124  0.00  0.00     0.065 C 
BRANCH  29  30
ATOM     30  C   UNL d   1      20.470 -19.307  -0.048  0.00  0.00    -0.056 C 
ATOM     31  C   UNL d   1      20.633 -19.325   1.346  0.00  0.00     0.007 C 
ATOM     32  C   UNL d   1      19.837 -20.130   2.207  0.00  0.00     0.001 C 
ATOM     33  C   UNL d   1      18.800 -20.833   1.690  0.00  0.00     0.000 C 
ATOM     34  C   UNL d   1      18.631 -20.594   0.358  0.00  0.00     0.001 C 
ATOM     35  C   UNL d   1      19.356 -19.874  -0.520  0.00  0.00     0.007 C 
ENDBRANCH  29  30
ENDBRANCH  28  29
ENDBRANCH  27  28
ENDBRANCH  26  27
ENDBRANCH   2  21
TORSDOF 10
ENDMDL
MODEL 2
REMARK VINA RESULT:   -10.957      3.197      4.268
REMARK INTER + INTRA:         -16.038
REMARK INTER:                 -13.940
REMARK INTRA:                  -2.098
REMARK CONF_INDEPENDENT:        2.983
REMARK UNBOUND:                -2.098
REMARK  10 active torsions:
REMARK  status: ('A' for Active; 'I' for Inactive)
REMARK    1  A    between atoms: C_2  and  C_3 
REMARK       I    between atoms: C_2  and  N_11 
REMARK    2  A    between atoms: C_3  and  C_4 
REMARK    3  A    between atoms: N_11  and  N_12 
REMARK    4  A    between atoms: N_12  and  C_13 
REMARK    5  A    between atoms: C_13  and  N_15 
REMARK       I    between atoms: N_15  and  C_16 
REMARK    6  A    between atoms: C_16  and  C_18 
REMARK    7  A    between atoms: C_23  and  O_24 
REMARK    8  A    between atoms: O_24  and  C_25 
REMARK    9  A    between atoms: C_25  and  C_26 
REMARK   10  A    between atoms: C_26  and  C_27 
ROOT
ATOM      1  N   UNL d   1      26.120 -15.551  -3.716  0.00  0.00    -0.298 N 
ATOM      2  C   UNL d   1      25.183 -15.484  -2.616  0.00  0.00     0.260 C 
ATOM      3  O   UNL d   1      24.170 -14.800  -2.646  0.00  0.00    -0.267 OA
ATOM      4  H   UNL d   1      26.819 -16.269  -3.613  0.00  0.00     0.171 HD
ENDROOT
BRANCH   1   5
ATOM      5  C   UNL d   1      26.266 -14.622  -4.838  0.00  0.00     0.193 C 
ATOM      6  S   UNL d   1      27.419 -14.782  -6.043  0.00  0.00    -0.039 SA
BRANCH   5   7
ATOM      7  N   UNL d   1      25.327 -13.506  -4.820  0.00  0.00    -0.273 N 
ATOM      8  H   UNL d   1      24.783 -13.326  -5.653  0.00  0.00     0.189 HD
BRANCH   7   9
ATOM      9  N   UNL d   1      25.657 -12.133  -4.017  0.00  0.00    -0.268 N 
ATOM     10  C   UNL d   1      26.691 -11.874  -2.978  0.00  0.00     0.240 C 
ATOM     11  O   UNL d   1      26.632 -10.825  -2.366  0.00  0.00    -0.272 OA
ATOM     12  H   UNL d   1      24.780 -11.613  -3.830  0.00  0.00     0.190 HD
BRANCH  10  13
ATOM     13  C   UNL d   1      27.766 -13.049  -2.485  0.00  0.00     0.143 C 
BRANCH  13  14
ATOM     14  C   UNL d   1      27.857 -13.230  -0.988  0.00  0.00    -0.049 A 
ATOM     15  C   UNL d   1      29.055 -13.493  -0.272  0.00  0.00     0.009 A 
ATOM     16  C   UNL d   1      29.002 -13.710   1.109  0.00  0.00     0.024 A 
ATOM     17  C   UNL d   1      27.767 -13.650   1.755  0.00  0.00     0.034 A 
ATOM     18 CL   UNL d   1      27.656 -13.974   3.440  0.00  0.00    -0.084 Cl
ATOM     19  C   UNL d   1      26.605 -13.339   1.051  0.00  0.00     0.024 A 
ATOM     20  C   UNL d   1      26.655 -13.117  -0.312  0.00  0.00     0.009 A 
ENDBRANCH  13  14
ENDBRANCH  10  13
ENDBRANCH   7   9
ENDBRANCH   5   7
ENDBRANCH   1   5
BRANCH   2  21
ATOM     21  C   UNL d   1      25.298 -16.357  -1.364  0.00  0.00     0.065 A 
ATOM     22  C   UNL d   1      26.644 -16.619  -0.990  0.00  0.00     0.020 A 
ATOM     23  C   UNL d   1      26.991 -17.598  -0.044  0.00  0.00     0.001 A 
ATOM     24  C   UNL d   1      25.998 -18.294   0.624  0.00  0.00     0.003 A 
ATOM     25  C   UNL d   1      24.670 -18.074   0.274  0.00  0.00     0.038 A 
ATOM     26  C   UNL d   1      24.305 -17.159  -0.743  0.00  0.00     0.084 A 
BRANCH  26  27
ATOM     27  O   UNL d   1      22.958 -17.295  -1.004  0.00  0.00    -0.350 OA
BRANCH  27  28
ATOM     28  C   UNL d   1      22.311 -18.296  -0.266  0.00  0.00     0.180 C 
BRANCH  28  29
ATOM     29  C   UNL d   1      21.073 -18.896  -0.972  0.00  0.00     0.065 C 
BRANCH  29  30
ATOM     30  C   UNL d   1      20.182 -19.543   0.033  0.00  0.00    -0.056 C 
ATOM     31  C   UNL d   1      20.270 -19.620   1.431  0.00  0.00     0.007 C 
ATOM     32  C   UNL d   1      19.421 -20.450   2.215  0.00  0.00     0.001 C 
ATOM     33  C   UNL d   1      18.405 -21.117   1.616  0.00  0.00     0.000 C 
ATOM     34  C   UNL d   1      18.310 -20.822   0.288  0.00  0.00     0.001 C 
ATOM     35  C   UNL d   1      19.088 -20.075  -0.520  0.00  0.00     0.007 C 
ENDBRANCH  29  30
ENDBRANCH  28  29
ENDBRANCH  27  28
ENDBRANCH  26  27
ENDBRANCH   2  21
TORSDOF 10
ENDMDL
MODEL 3
REMARK VINA RESULT:   -10.297      2.653      3.402
REMARK INTER + INTRA:         -15.683
REMARK INTER:                 -13.280
REMARK INTRA:                  -2.403
REMARK CONF_INDEPENDENT:        2.983
REMARK UNBOUND:                -2.403
REMARK  10 active torsions:
REMARK  status: ('A' for Active; 'I' for Inactive)
REMARK    1  A    between atoms: C_2  and  C_3 
REMARK       I    between atoms: C_2  and  N_11 
REMARK    2  A    between atoms: C_3  and  C_4 
REMARK    3  A    between atoms: N_11  and  N_12 
REMARK    4  A    between atoms: N_12  and  C_13 
REMARK    5  A    between atoms: C_13  and  N_15 
REMARK       I    between atoms: N_15  and  C_16 
REMARK    6  A    between atoms: C_16  and  C_18 
REMARK    7  A    between atoms: C_23  and  O_24 
REMARK    8  A    between atoms: O_24  and  C_25 
REMARK    9  A    between atoms: C_25  and  C_26 
REMARK   10  A    between atoms: C_26  and  C_27 
ROOT
ATOM      1  N   UNL d   1      26.077 -15.438  -3.620  0.00  0.00    -0.298 N 
ATOM      2  C   UNL d   1      25.079 -15.459  -2.573  0.00  0.00     0.260 C 
ATOM      3  O   UNL d   1      24.035 -14.825  -2.638  0.00  0.00    -0.267 OA
ATOM      4  H   UNL d   1      26.805 -16.124  -3.502  0.00  0.00     0.171 HD
ENDROOT
BRANCH   1   5
ATOM      5  C   UNL d   1      26.236 -14.464  -4.700  0.00  0.00     0.193 C 
ATOM      6  S   UNL d   1      27.500 -14.480  -5.799  0.00  0.00    -0.039 SA
BRANCH   5   7
ATOM      7  N   UNL d   1      25.202 -13.436  -4.738  0.00  0.00    -0.273 N 
ATOM      8  H   UNL d   1      24.264 -13.711  -4.997  0.00  0.00     0.189 HD
BRANCH   7   9
ATOM      9  N   UNL d   1      25.530 -11.920  -5.219  0.00  0.00    -0.268 N 
ATOM     10  C   UNL d   1      26.007 -10.759  -4.418  0.00  0.00     0.240 C 
ATOM     11  O   UNL d   1      25.997  -9.662  -4.942  0.00  0.00    -0.272 OA
ATOM     12  H   UNL d   1      24.867 -11.632  -5.961  0.00  0.00     0.190 HD
BRANCH  10  13
ATOM     13  C   UNL d   1      26.332 -10.882  -2.787  0.00  0.00     0.143 C 
BRANCH  13  14
ATOM     14  C   UNL d   1      27.288 -11.992  -2.417  0.00  0.00    -0.049 A 
ATOM     15  C   UNL d   1      28.392 -12.410  -3.206  0.00  0.00     0.009 A 
ATOM     16  C   UNL d   1      29.167 -13.498  -2.790  0.00  0.00     0.024 A 
ATOM     17  C   UNL d   1      28.841 -14.140  -1.595  0.00  0.00     0.034 A 
ATOM     18 CL   UNL d   1      29.733 -15.519  -1.085  0.00  0.00    -0.084 Cl
ATOM     19  C   UNL d   1      27.788 -13.688  -0.802  0.00  0.00     0.024 A 
ATOM     20  C   UNL d   1      27.025 -12.610  -1.207  0.00  0.00     0.009 A 
ENDBRANCH  13  14
ENDBRANCH  10  13
ENDBRANCH   7   9
ENDBRANCH   5   7
ENDBRANCH   1   5
BRANCH   2  21
ATOM     21  C   UNL d   1      25.169 -16.369  -1.347  0.00  0.00     0.065 A 
ATOM     22  C   UNL d   1      26.507 -16.601  -0.924  0.00  0.00     0.020 A 
ATOM     23  C   UNL d   1      26.846 -17.600   0.004  0.00  0.00     0.001 A 
ATOM     24  C   UNL d   1      25.849 -18.350   0.605  0.00  0.00     0.003 A 
ATOM     25  C   UNL d   1      24.531 -18.161   0.205  0.00  0.00     0.038 A 
ATOM     26  C   UNL d   1      24.178 -17.224  -0.796  0.00  0.00     0.084 A 
BRANCH  26  27
ATOM     27  O   UNL d   1      22.850 -17.394  -1.120  0.00  0.00    -0.350 OA
BRANCH  27  28
ATOM     28  C   UNL d   1      22.205 -18.440  -0.444  0.00  0.00     0.180 C 
BRANCH  28  29
ATOM     29  C   UNL d   1      20.878 -18.888  -1.097  0.00  0.00     0.065 C 
BRANCH  29  30
ATOM     30  C   UNL d   1      20.045 -19.620  -0.102  0.00  0.00    -0.056 C 
ATOM     31  C   UNL d   1      18.875 -20.378  -0.256  0.00  0.00     0.007 C 
ATOM     32  C   UNL d   1      18.106 -20.848   0.844  0.00  0.00     0.001 C 
ATOM     33  C   UNL d   1      18.567 -20.661   2.105  0.00  0.00     0.000 C 
ATOM     34  C   UNL d   1      19.798 -20.075   2.120  0.00  0.00     0.001 C 
ATOM     35  C   UNL d   1      20.565 -19.581   1.129  0.00  0.00     0.007 C 
ENDBRANCH  29  30
ENDBRANCH  28  29
ENDBRANCH  27  28
ENDBRANCH  26  27
ENDBRANCH   2  21
TORSDOF 10
ENDMDL
MODEL 4
REMARK VINA RESULT:   -10.035      1.509      2.103
REMARK INTER + INTRA:         -14.444
REMARK INTER:                 -13.018
REMARK INTRA:                  -1.426
REMARK CONF_INDEPENDENT:        2.983
REMARK UNBOUND:                -1.426
REMARK  10 active torsions:
REMARK  status: ('A' for Active; 'I' for Inactive)
REMARK    1  A    between atoms: C_2  and  C_3 
REMARK       I    between atoms: C_2  and  N_11 
REMARK    2  A    between atoms: C_3  and  C_4 
REMARK    3  A    between atoms: N_11  and  N_12 
REMARK    4  A    between atoms: N_12  and  C_13 
REMARK    5  A    between atoms: C_13  and  N_15 
REMARK       I    between atoms: N_15  and  C_16 
REMARK    6  A    between atoms: C_16  and  C_18 
REMARK    7  A    between atoms: C_23  and  O_24 
REMARK    8  A    between atoms: O_24  and  C_25 
REMARK    9  A    between atoms: C_25  and  C_26 
REMARK   10  A    between atoms: C_26  and  C_27 
ROOT
ATOM      1  N   UNL d   1      26.499 -15.255  -3.441  0.00  0.00    -0.298 N 
ATOM      2  C   UNL d   1      25.449 -15.495  -2.475  0.00  0.00     0.260 C 
ATOM      3  O   UNL d   1      24.299 -15.112  -2.634  0.00  0.00    -0.267 OA
ATOM      4  H   UNL d   1      27.350 -15.760  -3.252  0.00  0.00     0.171 HD
ENDROOT
BRANCH   1   5
ATOM      5  C   UNL d   1      26.523 -14.274  -4.526  0.00  0.00     0.193 C 
ATOM      6  S   UNL d   1      25.890 -12.727  -4.406  0.00  0.00    -0.039 SA
BRANCH   5   7
ATOM      7  N   UNL d   1      27.131 -14.758  -5.760  0.00  0.00    -0.273 N 
ATOM      8  H   UNL d   1      27.522 -15.691  -5.767  0.00  0.00     0.189 HD
BRANCH   7   9
ATOM      9  N   UNL d   1      27.952 -13.764  -6.748  0.00  0.00    -0.268 N 
ATOM     10  C   UNL d   1      29.407 -13.446  -6.768  0.00  0.00     0.240 C 
ATOM     11  O   UNL d   1      29.777 -12.521  -7.465  0.00  0.00    -0.272 OA
ATOM     12  H   UNL d   1      27.372 -12.939  -6.983  0.00  0.00     0.190 HD
BRANCH  10  13
ATOM     13  C   UNL d   1      30.485 -14.157  -5.713  0.00  0.00     0.143 C 
BRANCH  13  14
ATOM     14  C   UNL d   1      30.401 -15.664  -5.648  0.00  0.00    -0.049 A 
ATOM     15  C   UNL d   1      30.001 -16.407  -4.507  0.00  0.00     0.009 A 
ATOM     16  C   UNL d   1      30.029 -17.805  -4.547  0.00  0.00     0.024 A 
ATOM     17  C   UNL d   1      30.439 -18.438  -5.720  0.00  0.00     0.034 A 
ATOM     18 CL   UNL d   1      30.547 -20.153  -5.786  0.00  0.00    -0.084 Cl
ATOM     19  C   UNL d   1      30.779 -17.699  -6.853  0.00  0.00     0.024 A 
ATOM     20  C   UNL d   1      30.746 -16.318  -6.818  0.00  0.00     0.009 A 
ENDBRANCH  13  14
ENDBRANCH  10  13
ENDBRANCH   7   9
ENDBRANCH   5   7
ENDBRANCH   1   5
BRANCH   2  21
ATOM     21  C   UNL d   1      25.642 -16.357  -1.225  0.00  0.00     0.065 A 
ATOM     22  C   UNL d   1      26.979 -16.812  -1.064  0.00  0.00     0.020 A 
ATOM     23  C   UNL d   1      27.333 -17.819  -0.150  0.00  0.00     0.001 A 
ATOM     24  C   UNL d   1      26.373 -18.349   0.696  0.00  0.00     0.003 A 
ATOM     25  C   UNL d   1      25.052 -17.938   0.557  0.00  0.00     0.038 A 
ATOM     26  C   UNL d   1      24.660 -16.994  -0.422  0.00  0.00     0.084 A 
BRANCH  26  27
ATOM     27  O   UNL d   1      23.284 -16.931  -0.456  0.00  0.00    -0.350 OA
BRANCH  27  28
ATOM     28  C   UNL d   1      22.627 -18.083  -0.000  0.00  0.00     0.180 C 
BRANCH  28  29
ATOM     29  C   UNL d   1      21.477 -18.557  -0.918  0.00  0.00     0.065 C 
BRANCH  29  30
ATOM     30  C   UNL d   1      20.477 -19.323  -0.123  0.00  0.00    -0.056 C 
ATOM     31  C   UNL d   1      19.363 -20.079  -0.521  0.00  0.00     0.007 C 
ATOM     32  C   UNL d   1      18.404 -20.587   0.399  0.00  0.00     0.001 C 
ATOM     33  C   UNL d   1      18.617 -20.441   1.729  0.00  0.00     0.000 C 
ATOM     34  C   UNL d   1      19.818 -19.853   1.997  0.00  0.00     0.001 C 
ATOM     35  C   UNL d   1      20.755 -19.325   1.185  0.00  0.00     0.007 C 
ENDBRANCH  29  30
ENDBRANCH  28  29
ENDBRANCH  27  28
ENDBRANCH  26  27
ENDBRANCH   2  21
TORSDOF 10
ENDMDL
MODEL 5
REMARK VINA RESULT:   -10.021      2.935      3.816
REMARK INTER + INTRA:         -15.002
REMARK INTER:                 -13.004
REMARK INTRA:                  -1.998
REMARK CONF_INDEPENDENT:        2.983
REMARK UNBOUND:                -1.998
REMARK  10 active torsions:
REMARK  status: ('A' for Active; 'I' for Inactive)
REMARK    1  A    between atoms: C_2  and  C_3 
REMARK       I    between atoms: C_2  and  N_11 
REMARK    2  A    between atoms: C_3  and  C_4 
REMARK    3  A    between atoms: N_11  and  N_12 
REMARK    4  A    between atoms: N_12  and  C_13 
REMARK    5  A    between atoms: C_13  and  N_15 
REMARK       I    between atoms: N_15  and  C_16 
REMARK    6  A    between atoms: C_16  and  C_18 
REMARK    7  A    between atoms: C_23  and  O_24 
REMARK    8  A    between atoms: O_24  and  C_25 
REMARK    9  A    between atoms: C_25  and  C_26 
REMARK   10  A    between atoms: C_26  and  C_27 
ROOT
ATOM      1  N   UNL d   1      26.460 -15.611  -3.662  0.00  0.00    -0.298 N 
ATOM      2  C   UNL d   1      25.426 -15.546  -2.653  0.00  0.00     0.260 C 
ATOM      3  O   UNL d   1      24.415 -14.871  -2.780  0.00  0.00    -0.267 OA
ATOM      4  H   UNL d   1      27.152 -16.323  -3.491  0.00  0.00     0.171 HD
ENDROOT
BRANCH   1   5
ATOM      5  C   UNL d   1      26.701 -14.688  -4.771  0.00  0.00     0.193 C 
ATOM      6  S   UNL d   1      27.968 -14.837  -5.857  0.00  0.00    -0.039 SA
BRANCH   5   7
ATOM      7  N   UNL d   1      25.749 -13.586  -4.854  0.00  0.00    -0.273 N 
ATOM      8  H   UNL d   1      25.553 -13.190  -5.764  0.00  0.00     0.189 HD
BRANCH   7   9
ATOM      9  N   UNL d   1      25.645 -12.465  -3.684  0.00  0.00    -0.268 N 
ATOM     10  C   UNL d   1      26.549 -11.317  -3.396  0.00  0.00     0.240 C 
ATOM     11  O   UNL d   1      26.394 -10.720  -2.349  0.00  0.00    -0.272 OA
ATOM     12  H   UNL d   1      25.270 -12.890  -2.817  0.00  0.00     0.190 HD
BRANCH  10  13
ATOM     13  C   UNL d   1      27.882 -10.981  -4.339  0.00  0.00     0.143 C 
BRANCH  13  14
ATOM     14  C   UNL d   1      27.676 -11.196  -5.821  0.00  0.00    -0.049 A 
ATOM     15  C   UNL d   1      28.558 -11.917  -6.668  0.00  0.00     0.009 A 
ATOM     16  C   UNL d   1      28.294 -11.989  -8.040  0.00  0.00     0.024 A 
ATOM     17  C   UNL d   1      27.156 -11.359  -8.542  0.00  0.00     0.034 A 
ATOM     18 CL   UNL d   1      26.833 -11.374 -10.231  0.00  0.00    -0.084 Cl
ATOM     19  C   UNL d   1      26.268 -10.698  -7.693  0.00  0.00     0.024 A 
ATOM     20  C   UNL d   1      26.523 -10.631  -6.337  0.00  0.00     0.009 A 
ENDBRANCH  13  14
ENDBRANCH  10  13
ENDBRANCH   7   9
ENDBRANCH   5   7
ENDBRANCH   1   5
BRANCH   2  21
ATOM     21  C   UNL d   1      25.432 -16.410  -1.390  0.00  0.00     0.065 A 
ATOM     22  C   UNL d   1      26.645 -16.311  -0.654  0.00  0.00     0.020 A 
ATOM     23  C   UNL d   1      26.978 -17.200   0.382  0.00  0.00     0.001 A 
ATOM     24  C   UNL d   1      26.072 -18.171   0.775  0.00  0.00     0.003 A 
ATOM     25  C   UNL d   1      24.883 -18.306   0.069  0.00  0.00     0.038 A 
ATOM     26  C   UNL d   1      24.569 -17.481  -1.039  0.00  0.00     0.084 A 
BRANCH  26  27
ATOM     27  O   UNL d   1      23.436 -17.968  -1.653  0.00  0.00    -0.350 OA
BRANCH  27  28
ATOM     28  C   UNL d   1      22.571 -18.687  -0.815  0.00  0.00     0.180 C 
BRANCH  28  29
ATOM     29  C   UNL d   1      21.074 -18.388  -1.053  0.00  0.00     0.065 C 
BRANCH  29  30
ATOM     30  C   UNL d   1      20.241 -19.197  -0.119  0.00  0.00    -0.056 C 
ATOM     31  C   UNL d   1      20.377 -19.451   1.255  0.00  0.00     0.007 C 
ATOM     32  C   UNL d   1      19.587 -20.411   1.946  0.00  0.00     0.001 C 
ATOM     33  C   UNL d   1      18.580 -21.039   1.292  0.00  0.00     0.000 C 
ATOM     34  C   UNL d   1      18.430 -20.578   0.017  0.00  0.00     0.001 C 
ATOM     35  C   UNL d   1      19.152 -19.700  -0.707  0.00  0.00     0.007 C 
ENDBRANCH  29  30
ENDBRANCH  28  29
ENDBRANCH  27  28
ENDBRANCH  26  27
ENDBRANCH   2  21
TORSDOF 10
ENDMDL
MODEL 6
REMARK VINA RESULT:    -9.700      3.451      5.053
REMARK INTER + INTRA:         -14.403
REMARK INTER:                 -12.683
REMARK INTRA:                  -1.720
REMARK CONF_INDEPENDENT:        2.983
REMARK UNBOUND:                -1.720
REMARK  10 active torsions:
REMARK  status: ('A' for Active; 'I' for Inactive)
REMARK    1  A    between atoms: C_2  and  C_3 
REMARK       I    between atoms: C_2  and  N_11 
REMARK    2  A    between atoms: C_3  and  C_4 
REMARK    3  A    between atoms: N_11  and  N_12 
REMARK    4  A    between atoms: N_12  and  C_13 
REMARK    5  A    between atoms: C_13  and  N_15 
REMARK       I    between atoms: N_15  and  C_16 
REMARK    6  A    between atoms: C_16  and  C_18 
REMARK    7  A    between atoms: C_23  and  O_24 
REMARK    8  A    between atoms: O_24  and  C_25 
REMARK    9  A    between atoms: C_25  and  C_26 
REMARK   10  A    between atoms: C_26  and  C_27 
ROOT
ATOM      1  N   UNL d   1      26.909 -14.963  -2.998  0.00  0.00    -0.298 N 
ATOM      2  C   UNL d   1      25.706 -15.429  -2.342  0.00  0.00     0.260 C 
ATOM      3  O   UNL d   1      24.583 -15.157  -2.741  0.00  0.00    -0.267 OA
ATOM      4  H   UNL d   1      27.753 -15.392  -2.653  0.00  0.00     0.171 HD
ENDROOT
BRANCH   1   5
ATOM      5  C   UNL d   1      27.051 -13.864  -3.953  0.00  0.00     0.193 C 
ATOM      6  S   UNL d   1      28.409 -13.614  -4.901  0.00  0.00    -0.039 SA
BRANCH   5   7
ATOM      7  N   UNL d   1      25.905 -12.963  -4.006  0.00  0.00    -0.273 N 
ATOM      8  H   UNL d   1      25.094 -13.187  -3.444  0.00  0.00     0.189 HD
BRANCH   7   9
ATOM      9  N   UNL d   1      25.483 -12.207  -5.380  0.00  0.00    -0.268 N 
ATOM     10  C   UNL d   1      25.982 -10.921  -5.939  0.00  0.00     0.240 C 
ATOM     11  O   UNL d   1      25.385 -10.440  -6.883  0.00  0.00    -0.272 OA
ATOM     12  H   UNL d   1      24.472 -12.343  -5.564  0.00  0.00     0.190 HD
BRANCH  10  13
ATOM     13  C   UNL d   1      27.170 -10.027  -5.184  0.00  0.00     0.143 C 
BRANCH  13  14
ATOM     14  C   UNL d   1      26.743  -9.383  -3.885  0.00  0.00    -0.049 A 
ATOM     15  C   UNL d   1      26.025  -8.163  -3.780  0.00  0.00     0.009 A 
ATOM     16  C   UNL d   1      25.746  -7.631  -2.517  0.00  0.00     0.024 A 
ATOM     17  C   UNL d   1      26.170  -8.324  -1.384  0.00  0.00     0.034 A 
ATOM     18 CL   UNL d   1      25.899  -7.669   0.183  0.00  0.00    -0.084 Cl
ATOM     19  C   UNL d   1      26.828  -9.548  -1.497  0.00  0.00     0.024 A 
ATOM     20  C   UNL d   1      27.099 -10.079  -2.744  0.00  0.00     0.009 A 
ENDBRANCH  13  14
ENDBRANCH  10  13
ENDBRANCH   7   9
ENDBRANCH   5   7
ENDBRANCH   1   5
BRANCH   2  21
ATOM     21  C   UNL d   1      25.719 -16.407  -1.165  0.00  0.00     0.065 A 
ATOM     22  C   UNL d   1      27.032 -16.747  -0.738  0.00  0.00     0.020 A 
ATOM     23  C   UNL d   1      27.293 -17.813   0.138  0.00  0.00     0.001 A 
ATOM     24  C   UNL d   1      26.240 -18.527   0.686  0.00  0.00     0.003 A 
ATOM     25  C   UNL d   1      24.943 -18.232   0.281  0.00  0.00     0.038 A 
ATOM     26  C   UNL d   1      24.667 -17.223  -0.673  0.00  0.00     0.084 A 
BRANCH  26  27
ATOM     27  O   UNL d   1      23.336 -17.289  -1.022  0.00  0.00    -0.350 OA
BRANCH  27  28
ATOM     28  C   UNL d   1      22.568 -18.182  -0.259  0.00  0.00     0.180 C 
BRANCH  28  29
ATOM     29  C   UNL d   1      21.228 -18.581  -0.919  0.00  0.00     0.065 C 
BRANCH  29  30
ATOM     30  C   UNL d   1      20.377 -19.309   0.064  0.00  0.00    -0.056 C 
ATOM     31  C   UNL d   1      20.394 -19.324   1.467  0.00  0.00     0.007 C 
ATOM     32  C   UNL d   1      19.622 -20.234   2.241  0.00  0.00     0.001 C 
ATOM     33  C   UNL d   1      18.743 -21.057   1.618  0.00  0.00     0.000 C 
ATOM     34  C   UNL d   1      18.685 -20.824   0.276  0.00  0.00     0.001 C 
ATOM     35  C   UNL d   1      19.399 -20.007  -0.522  0.00  0.00     0.007 C 
ENDBRANCH  29  30
ENDBRANCH  28  29
ENDBRANCH  27  28
ENDBRANCH  26  27
ENDBRANCH   2  21
TORSDOF 10
ENDMDL
MODEL 7
REMARK VINA RESULT:    -9.623      1.713      2.200
REMARK INTER + INTRA:         -15.173
REMARK INTER:                 -12.606
REMARK INTRA:                  -2.567
REMARK CONF_INDEPENDENT:        2.983
REMARK UNBOUND:                -2.567
REMARK  10 active torsions:
REMARK  status: ('A' for Active; 'I' for Inactive)
REMARK    1  A    between atoms: C_2  and  C_3 
REMARK       I    between atoms: C_2  and  N_11 
REMARK    2  A    between atoms: C_3  and  C_4 
REMARK    3  A    between atoms: N_11  and  N_12 
REMARK    4  A    between atoms: N_12  and  C_13 
REMARK    5  A    between atoms: C_13  and  N_15 
REMARK       I    between atoms: N_15  and  C_16 
REMARK    6  A    between atoms: C_16  and  C_18 
REMARK    7  A    between atoms: C_23  and  O_24 
REMARK    8  A    between atoms: O_24  and  C_25 
REMARK    9  A    between atoms: C_25  and  C_26 
REMARK   10  A    between atoms: C_26  and  C_27 
ROOT
ATOM      1  N   UNL d   1      26.366 -13.874  -2.149  0.00  0.00    -0.298 N 
ATOM      2  C   UNL d   1      25.625 -15.114  -2.217  0.00  0.00     0.260 C 
ATOM      3  O   UNL d   1      24.996 -15.459  -3.207  0.00  0.00    -0.267 OA
ATOM      4  H   UNL d   1      26.959 -13.797  -1.337  0.00  0.00     0.171 HD
ENDROOT
BRANCH   1   5
ATOM      5  C   UNL d   1      26.233 -12.692  -3.001  0.00  0.00     0.193 C 
ATOM      6  S   UNL d   1      26.799 -11.170  -2.590  0.00  0.00    -0.039 SA
BRANCH   5   7
ATOM      7  N   UNL d   1      25.534 -12.935  -4.258  0.00  0.00    -0.273 N 
ATOM      8  H   UNL d   1      25.462 -13.888  -4.589  0.00  0.00     0.189 HD
BRANCH   7   9
ATOM      9  N   UNL d   1      25.620 -11.883  -5.493  0.00  0.00    -0.268 N 
ATOM     10  C   UNL d   1      26.810 -11.194  -6.063  0.00  0.00     0.240 C 
ATOM     11  O   UNL d   1      26.620 -10.294  -6.858  0.00  0.00    -0.272 OA
ATOM     12  H   UNL d   1      24.780 -11.277  -5.501  0.00  0.00     0.190 HD
BRANCH  10  13
ATOM     13  C   UNL d   1      28.351 -11.461  -5.484  0.00  0.00     0.143 C 
BRANCH  13  14
ATOM     14  C   UNL d   1      28.657 -12.902  -5.151  0.00  0.00    -0.049 A 
ATOM     15  C   UNL d   1      28.045 -14.026  -5.766  0.00  0.00     0.009 A 
ATOM     16  C   UNL d   1      28.363 -15.315  -5.323  0.00  0.00     0.024 A 
ATOM     17  C   UNL d   1      29.289 -15.465  -4.291  0.00  0.00     0.034 A 
ATOM     18 CL   UNL d   1      29.656 -17.030  -3.680  0.00  0.00    -0.084 Cl
ATOM     19  C   UNL d   1      29.923 -14.357  -3.731  0.00  0.00     0.024 A 
ATOM     20  C   UNL d   1      29.617 -13.084  -4.171  0.00  0.00     0.009 A 
ENDBRANCH  13  14
ENDBRANCH  10  13
ENDBRANCH   7   9
ENDBRANCH   5   7
ENDBRANCH   1   5
BRANCH   2  21
ATOM     21  C   UNL d   1      25.660 -16.173  -1.112  0.00  0.00     0.065 A 
ATOM     22  C   UNL d   1      26.978 -16.468  -0.666  0.00  0.00     0.020 A 
ATOM     23  C   UNL d   1      27.274 -17.579   0.141  0.00  0.00     0.001 A 
ATOM     24  C   UNL d   1      26.249 -18.389   0.601  0.00  0.00     0.003 A 
ATOM     25  C   UNL d   1      24.950 -18.140   0.173  0.00  0.00     0.038 A 
ATOM     26  C   UNL d   1      24.644 -17.081  -0.716  0.00  0.00     0.084 A 
BRANCH  26  27
ATOM     27  O   UNL d   1      23.330 -17.198  -1.114  0.00  0.00    -0.350 OA
BRANCH  27  28
ATOM     28  C   UNL d   1      22.675 -18.353  -0.663  0.00  0.00     0.180 C 
BRANCH  28  29
ATOM     29  C   UNL d   1      21.266 -18.552  -1.265  0.00  0.00     0.065 C 
BRANCH  29  30
ATOM     30  C   UNL d   1      20.412 -19.318  -0.314  0.00  0.00    -0.056 C 
ATOM     31  C   UNL d   1      19.247 -20.074  -0.520  0.00  0.00     0.007 C 
ATOM     32  C   UNL d   1      18.455 -20.581   0.547  0.00  0.00     0.001 C 
ATOM     33  C   UNL d   1      18.886 -20.435   1.823  0.00  0.00     0.000 C 
ATOM     34  C   UNL d   1      20.115 -19.846   1.886  0.00  0.00     0.001 C 
ATOM     35  C   UNL d   1      20.903 -19.319   0.929  0.00  0.00     0.007 C 
ENDBRANCH  29  30
ENDBRANCH  28  29
ENDBRANCH  27  28
ENDBRANCH  26  27
ENDBRANCH   2  21
TORSDOF 10
ENDMDL
MODEL 8
REMARK VINA RESULT:    -9.481      2.257      2.928
REMARK INTER + INTRA:         -14.647
REMARK INTER:                 -12.464
REMARK INTRA:                  -2.183
REMARK CONF_INDEPENDENT:        2.983
REMARK UNBOUND:                -2.183
REMARK  10 active torsions:
REMARK  status: ('A' for Active; 'I' for Inactive)
REMARK    1  A    between atoms: C_2  and  C_3 
REMARK       I    between atoms: C_2  and  N_11 
REMARK    2  A    between atoms: C_3  and  C_4 
REMARK    3  A    between atoms: N_11  and  N_12 
REMARK    4  A    between atoms: N_12  and  C_13 
REMARK    5  A    between atoms: C_13  and  N_15 
REMARK       I    between atoms: N_15  and  C_16 
REMARK    6  A    between atoms: C_16  and  C_18 
REMARK    7  A    between atoms: C_23  and  O_24 
REMARK    8  A    between atoms: O_24  and  C_25 
REMARK    9  A    between atoms: C_25  and  C_26 
REMARK   10  A    between atoms: C_26  and  C_27 
ROOT
ATOM      1  N   UNL d   1      25.764 -14.025  -2.351  0.00  0.00    -0.298 N 
ATOM      2  C   UNL d   1      25.375 -15.418  -2.366  0.00  0.00     0.260 C 
ATOM      3  O   UNL d   1      25.157 -16.036  -3.399  0.00  0.00    -0.267 OA
ATOM      4  H   UNL d   1      26.061 -13.695  -1.446  0.00  0.00     0.171 HD
ENDROOT
BRANCH   1   5
ATOM      5  C   UNL d   1      25.625 -13.035  -3.418  0.00  0.00     0.193 C 
ATOM      6  S   UNL d   1      25.761 -11.381  -3.186  0.00  0.00    -0.039 SA
BRANCH   5   7
ATOM      7  N   UNL d   1      25.327 -13.602  -4.728  0.00  0.00    -0.273 N 
ATOM      8  H   UNL d   1      24.358 -13.743  -4.979  0.00  0.00     0.189 HD
BRANCH   7   9
ATOM      9  N   UNL d   1      26.286 -14.725  -5.404  0.00  0.00    -0.268 N 
ATOM     10  C   UNL d   1      27.764 -14.721  -5.579  0.00  0.00     0.240 C 
ATOM     11  O   UNL d   1      28.255 -15.575  -6.292  0.00  0.00    -0.272 OA
ATOM     12  H   UNL d   1      25.802 -15.168  -6.206  0.00  0.00     0.190 HD
BRANCH  10  13
ATOM     13  C   UNL d   1      28.719 -13.472  -5.024  0.00  0.00     0.143 C 
BRANCH  13  14
ATOM     14  C   UNL d   1      28.963 -13.481  -3.533  0.00  0.00    -0.049 A 
ATOM     15  C   UNL d   1      29.387 -12.359  -2.772  0.00  0.00     0.009 A 
ATOM     16  C   UNL d   1      29.646 -12.509  -1.406  0.00  0.00     0.024 A 
ATOM     17  C   UNL d   1      29.467 -13.761  -0.818  0.00  0.00     0.034 A 
ATOM     18 CL   UNL d   1      29.836 -13.996   0.845  0.00  0.00    -0.084 Cl
ATOM     19  C   UNL d   1      29.000 -14.843  -1.563  0.00  0.00     0.024 A 
ATOM     20  C   UNL d   1      28.736 -14.696  -2.912  0.00  0.00     0.009 A 
ENDBRANCH  13  14
ENDBRANCH  10  13
ENDBRANCH   7   9
ENDBRANCH   5   7
ENDBRANCH   1   5
BRANCH   2  21
ATOM     21  C   UNL d   1      25.323 -16.288  -1.108  0.00  0.00     0.065 A 
ATOM     22  C   UNL d   1      26.602 -16.499  -0.524  0.00  0.00     0.020 A 
ATOM     23  C   UNL d   1      26.831 -17.466   0.470  0.00  0.00     0.001 A 
ATOM     24  C   UNL d   1      25.771 -18.200   0.974  0.00  0.00     0.003 A 
ATOM     25  C   UNL d   1      24.509 -18.031   0.417  0.00  0.00     0.038 A 
ATOM     26  C   UNL d   1      24.275 -17.129  -0.649  0.00  0.00     0.084 A 
BRANCH  26  27
ATOM     27  O   UNL d   1      22.994 -17.316  -1.120  0.00  0.00    -0.350 OA
BRANCH  27  28
ATOM     28  C   UNL d   1      22.427 -18.562  -0.815  0.00  0.00     0.180 C 
BRANCH  28  29
ATOM     29  C   UNL d   1      20.955 -18.710  -1.262  0.00  0.00     0.065 C 
BRANCH  29  30
ATOM     30  C   UNL d   1      20.183 -19.450  -0.224  0.00  0.00    -0.056 C 
ATOM     31  C   UNL d   1      19.062 -20.288  -0.329  0.00  0.00     0.007 C 
ATOM     32  C   UNL d   1      18.338 -20.759   0.801  0.00  0.00     0.001 C 
ATOM     33  C   UNL d   1      18.800 -20.488   2.046  0.00  0.00     0.000 C 
ATOM     34  C   UNL d   1      19.991 -19.823   2.019  0.00  0.00     0.001 C 
ATOM     35  C   UNL d   1      20.713 -19.325   0.997  0.00  0.00     0.007 C 
ENDBRANCH  29  30
ENDBRANCH  28  29
ENDBRANCH  27  28
ENDBRANCH  26  27
ENDBRANCH   2  21
TORSDOF 10
ENDMDL
MODEL 9
REMARK VINA RESULT:    -8.376      3.550      8.475
REMARK INTER + INTRA:         -14.753
REMARK INTER:                 -11.359
REMARK INTRA:                  -3.394
REMARK CONF_INDEPENDENT:        2.983
REMARK UNBOUND:                -3.394
REMARK  10 active torsions:
REMARK  status: ('A' for Active; 'I' for Inactive)
REMARK    1  A    between atoms: C_2  and  C_3 
REMARK       I    between atoms: C_2  and  N_11 
REMARK    2  A    between atoms: C_3  and  C_4 
REMARK    3  A    between atoms: N_11  and  N_12 
REMARK    4  A    between atoms: N_12  and  C_13 
REMARK    5  A    between atoms: C_13  and  N_15 
REMARK       I    between atoms: N_15  and  C_16 
REMARK    6  A    between atoms: C_16  and  C_18 
REMARK    7  A    between atoms: C_23  and  O_24 
REMARK    8  A    between atoms: O_24  and  C_25 
REMARK    9  A    between atoms: C_25  and  C_26 
REMARK   10  A    between atoms: C_26  and  C_27 
ROOT
ATOM      1  N   UNL d   1      29.531 -15.418  -3.231  0.00  0.00    -0.298 N 
ATOM      2  C   UNL d   1      29.881 -16.327  -4.301  0.00  0.00     0.260 C 
ATOM      3  O   UNL d   1      29.664 -17.529  -4.250  0.00  0.00    -0.267 OA
ATOM      4  H   UNL d   1      29.624 -14.445  -3.476  0.00  0.00     0.171 HD
ENDROOT
BRANCH   1   5
ATOM      5  C   UNL d   1      29.229 -15.737  -1.836  0.00  0.00     0.193 C 
ATOM      6  S   UNL d   1      28.947 -14.587  -0.651  0.00  0.00    -0.039 SA
BRANCH   5   7
ATOM      7  N   UNL d   1      29.213 -17.164  -1.536  0.00  0.00    -0.273 N 
ATOM      8  H   UNL d   1      29.169 -17.815  -2.309  0.00  0.00     0.189 HD
BRANCH   7   9
ATOM      9  N   UNL d   1      28.452 -17.748  -0.225  0.00  0.00    -0.268 N 
ATOM     10  C   UNL d   1      27.043 -17.547   0.213  0.00  0.00     0.240 C 
ATOM     11  O   UNL d   1      26.738 -17.913   1.332  0.00  0.00    -0.272 OA
ATOM     12  H   UNL d   1      29.106 -17.786   0.577  0.00  0.00     0.190 HD
BRANCH  10  13
ATOM     13  C   UNL d   1      25.956 -16.651  -0.679  0.00  0.00     0.143 C 
BRANCH  13  14
ATOM     14  C   UNL d   1      24.557 -17.220  -0.723  0.00  0.00    -0.049 A 
ATOM     15  C   UNL d   1      23.377 -16.458  -0.928  0.00  0.00     0.009 A 
ATOM     16  C   UNL d   1      22.129 -17.090  -0.880  0.00  0.00     0.024 A 
ATOM     17  C   UNL d   1      22.077 -18.464  -0.643  0.00  0.00     0.034 A 
ATOM     18 CL   UNL d   1      20.560 -19.262  -0.515  0.00  0.00    -0.084 Cl
ATOM     19  C   UNL d   1      23.246 -19.210  -0.495  0.00  0.00     0.024 A 
ATOM     20  C   UNL d   1      24.479 -18.590  -0.549  0.00  0.00     0.009 A 
ENDBRANCH  13  14
ENDBRANCH  10  13
ENDBRANCH   7   9
ENDBRANCH   5   7
ENDBRANCH   1   5
BRANCH   2  21
ATOM     21  C   UNL d   1      30.435 -15.860  -5.649  0.00  0.00     0.065 A 
ATOM     22  C   UNL d   1      31.057 -16.905  -6.387  0.00  0.00     0.020 A 
ATOM     23  C   UNL d   1      31.857 -16.664  -7.516  0.00  0.00     0.001 A 
ATOM     24  C   UNL d   1      31.998 -15.373  -7.998  0.00  0.00     0.003 A 
ATOM     25  C   UNL d   1      31.417 -14.325  -7.294  0.00  0.00     0.038 A 
ATOM     26  C   UNL d   1      30.684 -14.537  -6.100  0.00  0.00     0.084 A 
BRANCH  26  27
ATOM     27  O   UNL d   1      30.401 -13.317  -5.526  0.00  0.00    -0.350 OA
BRANCH  27  28
ATOM     28  C   UNL d   1      29.147 -12.784  -5.857  0.00  0.00     0.180 C 
BRANCH  28  29
ATOM     29  C   UNL d   1      28.131 -13.833  -6.363  0.00  0.00     0.065 C 
BRANCH  29  30
ATOM     30  C   UNL d   1      27.001 -13.950  -5.398  0.00  0.00    -0.056 C 
ATOM     31  C   UNL d   1      26.126 -12.983  -4.879  0.00  0.00     0.007 C 
ATOM     32  C   UNL d   1      25.223 -13.248  -3.814  0.00  0.00     0.001 C 
ATOM     33  C   UNL d   1      25.107 -14.513  -3.340  0.00  0.00     0.000 C 
ATOM     34  C   UNL d   1      25.873 -15.397  -4.042  0.00  0.00     0.001 C 
ATOM     35  C   UNL d   1      26.766 -15.214  -5.034  0.00  0.00     0.007 C 
ENDBRANCH  29  30
ENDBRANCH  28  29
ENDBRANCH  27  28
ENDBRANCH  26  27
ENDBRANCH   2  21
TORSDOF 10
ENDMDL
