MODEL 1
REMARK VINA RESULT:    -8.298      0.000      0.000
REMARK INTER + INTRA:         -13.390
REMARK INTER:                 -10.685
REMARK INTRA:                  -2.705
REMARK CONF_INDEPENDENT:        2.386
REMARK UNBOUND:                -2.705
REMARK  8 active torsions:
REMARK  status: ('A' for Active; 'I' for Inactive)
REMARK    1  A    between atoms: C_6  and  N_7 
REMARK       I    between atoms: N_7  and  C_8 
REMARK    2  A    between atoms: C_8  and  C_10 
REMARK    3  A    between atoms: C_10  and  O_11 
REMARK    4  A    between atoms: O_11  and  C_12 
REMARK    5  A    between atoms: C_15  and  C_16 
REMARK    6  A    between atoms: N_17  and  N_18 
REMARK       I    between atoms: N_18  and  C_19 
REMARK    7  A    between atoms: C_19  and  C_21 
REMARK       I    between atoms: C_21  and  N_23 
REMARK    8  A    between atoms: N_23  and  C_24 
ROOT
ATOM      1  C   UNL d   1      25.521 -14.779  -1.977  0.00  0.00     0.069 A 
ATOM      2  C   UNL d   1      25.406 -15.941  -1.201  0.00  0.00     0.037 A 
ATOM      3  C   UNL d   1      26.105 -16.068   0.009  0.00  0.00     0.015 A 
ATOM      4  C   UNL d   1      26.964 -15.042   0.421  0.00  0.00    -0.017 A 
ATOM      5  C   UNL d   1      27.014 -13.857  -0.323  0.00  0.00     0.015 A 
ATOM      6  C   UNL d   1      26.281 -13.719  -1.504  0.00  0.00     0.037 A 
ENDROOT
BRANCH   4   7
ATOM      7  C   UNL d   1      27.875 -15.209   1.593  0.00  0.00     0.150 C 
ATOM      8  N   UNL d   1      27.653 -14.556   2.695  0.00  0.00    -0.183 NA
BRANCH   8   9
ATOM      9  N   UNL d   1      28.525 -14.698   3.747  0.00  0.00    -0.239 N 
ATOM     10  C   UNL d   1      28.175 -14.178   5.011  0.00  0.00     0.329 C 
ATOM     11  O   UNL d   1      27.173 -13.556   5.301  0.00  0.00    -0.261 OA
ATOM     12  H   UNL d   1      29.405 -15.196   3.639  0.00  0.00     0.192 HD
BRANCH  10  13
ATOM     13  C   UNL d   1      29.222 -14.486   6.113  0.00  0.00     0.315 C 
ATOM     14  O   UNL d   1      30.168 -15.198   5.818  0.00  0.00    -0.262 OA
ATOM     15  N   UNL d   1      28.930 -13.971   7.386  0.00  0.00    -0.317 N 
ATOM     16  H   UNL d   1      27.983 -13.634   7.542  0.00  0.00     0.169 HD
BRANCH  15  17
ATOM     17  C   UNL d   1      29.827 -14.036   8.494  0.00  0.00     0.057 A 
ATOM     18  C   UNL d   1      31.159 -14.445   8.277  0.00  0.00     0.031 A 
ATOM     19  C   UNL d   1      32.061 -14.581   9.350  0.00  0.00     0.002 A 
ATOM     20  C   UNL d   1      31.659 -14.278  10.647  0.00  0.00     0.002 A 
ATOM     21  C   UNL d   1      30.343 -13.890  10.880  0.00  0.00     0.026 A 
ATOM     22  C   UNL d   1      29.429 -13.783   9.823  0.00  0.00     0.060 A 
ATOM     23 CL   UNL d   1      27.782 -13.515  10.292  0.00  0.00    -0.082 Cl
ENDBRANCH  15  17
ENDBRANCH  10  13
ENDBRANCH   8   9
ENDBRANCH   4   7
BRANCH   1  24
ATOM     24  O   UNL d   1      24.817 -14.769  -3.138  0.00  0.00    -0.342 OA
BRANCH  24  25
ATOM     25  C   UNL d   1      25.341 -14.082  -4.294  0.00  0.00     0.278 C 
BRANCH  25  26
ATOM     26  C   UNL d   1      26.425 -15.016  -4.831  0.00  0.00     0.246 C 
ATOM     27  N   UNL d   1      27.714 -14.917  -4.273  0.00  0.00    -0.324 N 
ATOM     28  H   UNL d   1      27.906 -14.064  -3.765  0.00  0.00     0.169 HD
ATOM     29  O   UNL d   1      26.093 -15.734  -5.775  0.00  0.00    -0.271 OA
BRANCH  27  30
ATOM     30  C   UNL d   1      28.865 -15.794  -4.462  0.00  0.00     0.046 A 
ATOM     31  C   UNL d   1      29.601 -15.764  -5.688  0.00  0.00    -0.034 A 
ATOM     32  C   UNL d   1      30.758 -16.590  -5.864  0.00  0.00     0.015 A 
ATOM     33  C   UNL d   1      29.213 -14.865  -6.839  0.00  0.00     0.050 C 
ATOM     34  C   UNL d   1      31.191 -17.461  -4.860  0.00  0.00    -0.061 A 
ATOM     35  C   UNL d   1      32.404 -18.338  -4.923  0.00  0.00     0.048 C 
ATOM     36  C   UNL d   1      30.477 -17.488  -3.676  0.00  0.00     0.015 A 
ATOM     37  C   UNL d   1      29.377 -16.644  -3.456  0.00  0.00    -0.034 A 
ATOM     38  C   UNL d   1      28.889 -16.677  -2.051  0.00  0.00     0.050 C 
ENDBRANCH  27  30
ENDBRANCH  25  26
ENDBRANCH  24  25
ENDBRANCH   1  24
TORSDOF 8
ENDMDL
MODEL 2
REMARK VINA RESULT:    -8.189      1.176      2.151
REMARK INTER + INTRA:         -13.327
REMARK INTER:                 -10.575
REMARK INTRA:                  -2.752
REMARK CONF_INDEPENDENT:        2.386
REMARK UNBOUND:                -2.752
REMARK  8 active torsions:
REMARK  status: ('A' for Active; 'I' for Inactive)
REMARK    1  A    between atoms: C_6  and  N_7 
REMARK       I    between atoms: N_7  and  C_8 
REMARK    2  A    between atoms: C_8  and  C_10 
REMARK    3  A    between atoms: C_10  and  O_11 
REMARK    4  A    between atoms: O_11  and  C_12 
REMARK    5  A    between atoms: C_15  and  C_16 
REMARK    6  A    between atoms: N_17  and  N_18 
REMARK       I    between atoms: N_18  and  C_19 
REMARK    7  A    between atoms: C_19  and  C_21 
REMARK       I    between atoms: C_21  and  N_23 
REMARK    8  A    between atoms: N_23  and  C_24 
ROOT
ATOM      1  C   UNL d   1      25.479 -15.035  -2.254  0.00  0.00     0.069 A 
ATOM      2  C   UNL d   1      26.297 -13.968  -1.859  0.00  0.00     0.037 A 
ATOM      3  C   UNL d   1      27.135 -14.083  -0.738  0.00  0.00     0.015 A 
ATOM      4  C   UNL d   1      27.116 -15.261   0.018  0.00  0.00    -0.017 A 
ATOM      5  C   UNL d   1      26.352 -16.346  -0.429  0.00  0.00     0.015 A 
ATOM      6  C   UNL d   1      25.554 -16.239  -1.570  0.00  0.00     0.037 A 
ENDROOT
BRANCH   4   7
ATOM      7  C   UNL d   1      27.837 -15.363   1.323  0.00  0.00     0.150 C 
ATOM      8  N   UNL d   1      27.444 -14.665   2.347  0.00  0.00    -0.183 NA
BRANCH   8   9
ATOM      9  N   UNL d   1      28.145 -14.747   3.526  0.00  0.00    -0.239 N 
ATOM     10  C   UNL d   1      27.885 -13.815   4.551  0.00  0.00     0.329 C 
ATOM     11  O   UNL d   1      27.114 -12.877   4.519  0.00  0.00    -0.261 OA
ATOM     12  H   UNL d   1      28.827 -15.485   3.683  0.00  0.00     0.192 HD
BRANCH  10  13
ATOM     13  C   UNL d   1      28.696 -14.085   5.847  0.00  0.00     0.315 C 
ATOM     14  O   UNL d   1      29.453 -15.042   5.856  0.00  0.00    -0.262 OA
ATOM     15  N   UNL d   1      28.412 -13.234   6.926  0.00  0.00    -0.317 N 
ATOM     16  H   UNL d   1      27.572 -12.664   6.858  0.00  0.00     0.169 HD
BRANCH  15  17
ATOM     17  C   UNL d   1      29.140 -13.240   8.154  0.00  0.00     0.057 A 
ATOM     18  C   UNL d   1      29.281 -14.450   8.864  0.00  0.00     0.031 A 
ATOM     19  C   UNL d   1      29.939 -14.489  10.108  0.00  0.00     0.002 A 
ATOM     20  C   UNL d   1      30.495 -13.332  10.645  0.00  0.00     0.002 A 
ATOM     21  C   UNL d   1      30.349 -12.127   9.965  0.00  0.00     0.026 A 
ATOM     22  C   UNL d   1      29.668 -12.071   8.741  0.00  0.00     0.060 A 
ATOM     23 CL   UNL d   1      29.369 -10.477   8.131  0.00  0.00    -0.082 Cl
ENDBRANCH  15  17
ENDBRANCH  10  13
ENDBRANCH   8   9
ENDBRANCH   4   7
BRANCH   1  24
ATOM     24  O   UNL d   1      24.695 -14.810  -3.340  0.00  0.00    -0.342 OA
BRANCH  24  25
ATOM     25  C   UNL d   1      25.157 -13.941  -4.396  0.00  0.00     0.278 C 
BRANCH  25  26
ATOM     26  C   UNL d   1      26.274 -14.732  -5.078  0.00  0.00     0.246 C 
ATOM     27  N   UNL d   1      27.593 -14.263  -4.935  0.00  0.00    -0.324 N 
ATOM     28  H   UNL d   1      27.686 -13.301  -4.636  0.00  0.00     0.169 HD
ATOM     29  O   UNL d   1      25.909 -15.684  -5.769  0.00  0.00    -0.271 OA
BRANCH  27  30
ATOM     30  C   UNL d   1      28.844 -14.913  -5.315  0.00  0.00     0.046 A 
ATOM     31  C   UNL d   1      29.420 -15.914  -4.473  0.00  0.00    -0.034 A 
ATOM     32  C   UNL d   1      30.625 -16.588  -4.860  0.00  0.00     0.015 A 
ATOM     33  C   UNL d   1      28.796 -16.319  -3.158  0.00  0.00     0.050 C 
ATOM     34  C   UNL d   1      31.281 -16.277  -6.054  0.00  0.00    -0.061 A 
ATOM     35  C   UNL d   1      32.520 -16.941  -6.573  0.00  0.00     0.048 C 
ATOM     36  C   UNL d   1      30.721 -15.307  -6.866  0.00  0.00     0.015 A 
ATOM     37  C   UNL d   1      29.510 -14.677  -6.539  0.00  0.00    -0.034 A 
ATOM     38  C   UNL d   1      28.976 -13.832  -7.641  0.00  0.00     0.050 C 
ENDBRANCH  27  30
ENDBRANCH  25  26
ENDBRANCH  24  25
ENDBRANCH   1  24
TORSDOF 8
ENDMDL
MODEL 3
REMARK VINA RESULT:    -8.004      6.718      8.995
REMARK INTER + INTRA:         -13.002
REMARK INTER:                 -10.391
REMARK INTRA:                  -2.611
REMARK CONF_INDEPENDENT:        2.386
REMARK UNBOUND:                -2.611
REMARK  8 active torsions:
REMARK  status: ('A' for Active; 'I' for Inactive)
REMARK    1  A    between atoms: C_6  and  N_7 
REMARK       I    between atoms: N_7  and  C_8 
REMARK    2  A    between atoms: C_8  and  C_10 
REMARK    3  A    between atoms: C_10  and  O_11 
REMARK    4  A    between atoms: O_11  and  C_12 
REMARK    5  A    between atoms: C_15  and  C_16 
REMARK    6  A    between atoms: N_17  and  N_18 
REMARK       I    between atoms: N_18  and  C_19 
REMARK    7  A    between atoms: C_19  and  C_21 
REMARK       I    between atoms: C_21  and  N_23 
REMARK    8  A    between atoms: N_23  and  C_24 
ROOT
ATOM      1  C   UNL d   1      28.923 -14.408  -3.137  0.00  0.00     0.069 A 
ATOM      2  C   UNL d   1      27.889 -14.178  -4.055  0.00  0.00     0.037 A 
ATOM      3  C   UNL d   1      26.632 -14.779  -3.886  0.00  0.00     0.015 A 
ATOM      4  C   UNL d   1      26.425 -15.654  -2.813  0.00  0.00    -0.017 A 
ATOM      5  C   UNL d   1      27.439 -15.818  -1.862  0.00  0.00     0.015 A 
ATOM      6  C   UNL d   1      28.674 -15.182  -2.013  0.00  0.00     0.037 A 
ENDROOT
BRANCH   4   7
ATOM      7  C   UNL d   1      25.176 -16.466  -2.697  0.00  0.00     0.150 C 
ATOM      8  N   UNL d   1      25.103 -17.441  -1.840  0.00  0.00    -0.183 NA
BRANCH   8   9
ATOM      9  N   UNL d   1      23.958 -18.197  -1.778  0.00  0.00    -0.239 N 
ATOM     10  C   UNL d   1      23.057 -17.999  -0.711  0.00  0.00     0.329 C 
ATOM     11  O   UNL d   1      23.180 -17.240   0.229  0.00  0.00    -0.261 OA
ATOM     12  H   UNL d   1      23.734 -18.876  -2.501  0.00  0.00     0.192 HD
BRANCH  10  13
ATOM     13  C   UNL d   1      21.775 -18.867  -0.821  0.00  0.00     0.315 C 
ATOM     14  O   UNL d   1      21.488 -19.324  -1.916  0.00  0.00    -0.262 OA
ATOM     15  N   UNL d   1      21.016 -18.977   0.354  0.00  0.00    -0.317 N 
ATOM     16  H   UNL d   1      21.232 -18.327   1.106  0.00  0.00     0.169 HD
BRANCH  15  17
ATOM     17  C   UNL d   1      19.881 -19.831   0.489  0.00  0.00     0.057 A 
ATOM     18  C   UNL d   1      19.040 -20.039  -0.625  0.00  0.00     0.031 A 
ATOM     19  C   UNL d   1      17.877 -20.825  -0.519  0.00  0.00     0.002 A 
ATOM     20  C   UNL d   1      17.553 -21.443   0.685  0.00  0.00     0.002 A 
ATOM     21  C   UNL d   1      18.363 -21.233   1.797  0.00  0.00     0.026 A 
ATOM     22  C   UNL d   1      19.506 -20.426   1.711  0.00  0.00     0.060 A 
ATOM     23 CL   UNL d   1      20.280 -20.075   3.221  0.00  0.00    -0.082 Cl
ENDBRANCH  15  17
ENDBRANCH  10  13
ENDBRANCH   8   9
ENDBRANCH   4   7
BRANCH   1  24
ATOM     24  O   UNL d   1      30.103 -13.793  -3.407  0.00  0.00    -0.342 OA
BRANCH  24  25
ATOM     25  C   UNL d   1      31.337 -14.346  -2.901  0.00  0.00     0.278 C 
BRANCH  25  26
ATOM     26  C   UNL d   1      31.786 -15.327  -3.984  0.00  0.00     0.246 C 
ATOM     27  N   UNL d   1      30.952 -16.426  -4.262  0.00  0.00    -0.324 N 
ATOM     28  H   UNL d   1      30.266 -16.645  -3.551  0.00  0.00     0.169 HD
ATOM     29  O   UNL d   1      32.895 -15.111  -4.475  0.00  0.00    -0.271 OA
BRANCH  27  30
ATOM     30  C   UNL d   1      31.042 -17.394  -5.351  0.00  0.00     0.046 A 
ATOM     31  C   UNL d   1      31.112 -18.793  -5.068  0.00  0.00    -0.034 A 
ATOM     32  C   UNL d   1      31.157 -19.751  -6.133  0.00  0.00     0.015 A 
ATOM     33  C   UNL d   1      31.130 -19.330  -3.655  0.00  0.00     0.050 C 
ATOM     34  C   UNL d   1      31.153 -19.352  -7.472  0.00  0.00    -0.061 A 
ATOM     35  C   UNL d   1      31.159 -20.266  -8.660  0.00  0.00     0.048 C 
ATOM     36  C   UNL d   1      31.085 -17.997  -7.742  0.00  0.00     0.015 A 
ATOM     37  C   UNL d   1      30.979 -17.043  -6.719  0.00  0.00    -0.034 A 
ATOM     38  C   UNL d   1      30.703 -15.672  -7.226  0.00  0.00     0.050 C 
ENDBRANCH  27  30
ENDBRANCH  25  26
ENDBRANCH  24  25
ENDBRANCH   1  24
TORSDOF 8
ENDMDL
MODEL 4
REMARK VINA RESULT:    -7.964      1.835      3.226
REMARK INTER + INTRA:         -13.417
REMARK INTER:                 -10.351
REMARK INTRA:                  -3.066
REMARK CONF_INDEPENDENT:        2.386
REMARK UNBOUND:                -3.066
REMARK  8 active torsions:
REMARK  status: ('A' for Active; 'I' for Inactive)
REMARK    1  A    between atoms: C_6  and  N_7 
REMARK       I    between atoms: N_7  and  C_8 
REMARK    2  A    between atoms: C_8  and  C_10 
REMARK    3  A    between atoms: C_10  and  O_11 
REMARK    4  A    between atoms: O_11  and  C_12 
REMARK    5  A    between atoms: C_15  and  C_16 
REMARK    6  A    between atoms: N_17  and  N_18 
REMARK       I    between atoms: N_18  and  C_19 
REMARK    7  A    between atoms: C_19  and  C_21 
REMARK       I    between atoms: C_21  and  N_23 
REMARK    8  A    between atoms: N_23  and  C_24 
ROOT
ATOM      1  C   UNL d   1      27.116 -15.710  -1.016  0.00  0.00     0.069 A 
ATOM      2  C   UNL d   1      26.305 -14.750  -0.394  0.00  0.00     0.037 A 
ATOM      3  C   UNL d   1      26.688 -14.168   0.824  0.00  0.00     0.015 A 
ATOM      4  C   UNL d   1      27.870 -14.588   1.447  0.00  0.00    -0.017 A 
ATOM      5  C   UNL d   1      28.707 -15.491   0.782  0.00  0.00     0.015 A 
ATOM      6  C   UNL d   1      28.341 -16.033  -0.453  0.00  0.00     0.037 A 
ENDROOT
BRANCH   4   7
ATOM      7  C   UNL d   1      28.223 -14.146   2.831  0.00  0.00     0.150 C 
ATOM      8  N   UNL d   1      27.369 -13.470   3.542  0.00  0.00    -0.183 NA
BRANCH   8   9
ATOM      9  N   UNL d   1      27.730 -13.044   4.797  0.00  0.00    -0.239 N 
ATOM     10  C   UNL d   1      28.138 -13.992   5.759  0.00  0.00     0.329 C 
ATOM     11  O   UNL d   1      28.178 -15.199   5.635  0.00  0.00    -0.261 OA
ATOM     12  H   UNL d   1      27.735 -12.055   5.036  0.00  0.00     0.192 HD
BRANCH  10  13
ATOM     13  C   UNL d   1      28.589 -13.352   7.098  0.00  0.00     0.315 C 
ATOM     14  O   UNL d   1      28.784 -12.147   7.118  0.00  0.00    -0.262 OA
ATOM     15  N   UNL d   1      28.809 -14.250   8.154  0.00  0.00    -0.317 N 
ATOM     16  H   UNL d   1      28.868 -15.238   7.916  0.00  0.00     0.169 HD
BRANCH  15  17
ATOM     17  C   UNL d   1      29.101 -13.848   9.491  0.00  0.00     0.057 A 
ATOM     18  C   UNL d   1      28.153 -13.080  10.201  0.00  0.00     0.031 A 
ATOM     19  C   UNL d   1      28.425 -12.612  11.500  0.00  0.00     0.002 A 
ATOM     20  C   UNL d   1      29.628 -12.929  12.124  0.00  0.00     0.002 A 
ATOM     21  C   UNL d   1      30.580 -13.670  11.431  0.00  0.00     0.026 A 
ATOM     22  C   UNL d   1      30.332 -14.115  10.125  0.00  0.00     0.060 A 
ATOM     23 CL   UNL d   1      31.690 -14.823   9.312  0.00  0.00    -0.082 Cl
ENDBRANCH  15  17
ENDBRANCH  10  13
ENDBRANCH   8   9
ENDBRANCH   4   7
BRANCH   1  24
ATOM     24  O   UNL d   1      26.641 -16.221  -2.182  0.00  0.00    -0.342 OA
BRANCH  24  25
ATOM     25  C   UNL d   1      25.356 -15.798  -2.685  0.00  0.00     0.278 C 
BRANCH  25  26
ATOM     26  C   UNL d   1      25.690 -14.935  -3.901  0.00  0.00     0.246 C 
ATOM     27  N   UNL d   1      27.048 -14.695  -4.185  0.00  0.00    -0.324 N 
ATOM     28  H   UNL d   1      27.691 -14.869  -3.424  0.00  0.00     0.169 HD
ATOM     29  O   UNL d   1      24.725 -14.450  -4.494  0.00  0.00    -0.271 OA
BRANCH  27  30
ATOM     30  C   UNL d   1      27.643 -14.075  -5.365  0.00  0.00     0.046 A 
ATOM     31  C   UNL d   1      27.258 -12.755  -5.757  0.00  0.00    -0.034 A 
ATOM     32  C   UNL d   1      27.870 -12.123  -6.888  0.00  0.00     0.015 A 
ATOM     33  C   UNL d   1      26.213 -11.963  -5.005  0.00  0.00     0.050 C 
ATOM     34  C   UNL d   1      28.840 -12.778  -7.651  0.00  0.00    -0.061 A 
ATOM     35  C   UNL d   1      29.569 -12.200  -8.826  0.00  0.00     0.048 C 
ATOM     36  C   UNL d   1      29.210 -14.055  -7.269  0.00  0.00     0.015 A 
ATOM     37  C   UNL d   1      28.670 -14.671  -6.130  0.00  0.00    -0.034 A 
ATOM     38  C   UNL d   1      29.355 -15.944  -5.777  0.00  0.00     0.050 C 
ENDBRANCH  27  30
ENDBRANCH  25  26
ENDBRANCH  24  25
ENDBRANCH   1  24
TORSDOF 8
ENDMDL
MODEL 5
REMARK VINA RESULT:    -7.555      2.038      3.402
REMARK INTER + INTRA:         -12.868
REMARK INTER:                  -9.941
REMARK INTRA:                  -2.927
REMARK CONF_INDEPENDENT:        2.386
REMARK UNBOUND:                -2.927
REMARK  8 active torsions:
REMARK  status: ('A' for Active; 'I' for Inactive)
REMARK    1  A    between atoms: C_6  and  N_7 
REMARK       I    between atoms: N_7  and  C_8 
REMARK    2  A    between atoms: C_8  and  C_10 
REMARK    3  A    between atoms: C_10  and  O_11 
REMARK    4  A    between atoms: O_11  and  C_12 
REMARK    5  A    between atoms: C_15  and  C_16 
REMARK    6  A    between atoms: N_17  and  N_18 
REMARK       I    between atoms: N_18  and  C_19 
REMARK    7  A    between atoms: C_19  and  C_21 
REMARK       I    between atoms: C_21  and  N_23 
REMARK    8  A    between atoms: N_23  and  C_24 
ROOT
ATOM      1  C   UNL d   1      26.864 -14.911  -0.682  0.00  0.00     0.069 A 
ATOM      2  C   UNL d   1      27.386 -16.006   0.019  0.00  0.00     0.037 A 
ATOM      3  C   UNL d   1      27.779 -15.879   1.361  0.00  0.00     0.015 A 
ATOM      4  C   UNL d   1      27.692 -14.630   1.989  0.00  0.00    -0.017 A 
ATOM      5  C   UNL d   1      27.101 -13.563   1.303  0.00  0.00     0.015 A 
ATOM      6  C   UNL d   1      26.671 -13.708  -0.018  0.00  0.00     0.037 A 
ENDROOT
BRANCH   4   7
ATOM      7  C   UNL d   1      28.275 -14.396   3.345  0.00  0.00     0.150 C 
ATOM      8  N   UNL d   1      27.899 -15.122   4.356  0.00  0.00    -0.183 NA
BRANCH   8   9
ATOM      9  N   UNL d   1      28.421 -14.863   5.600  0.00  0.00    -0.239 N 
ATOM     10  C   UNL d   1      28.236 -13.590   6.176  0.00  0.00     0.329 C 
ATOM     11  O   UNL d   1      27.683 -12.629   5.682  0.00  0.00    -0.261 OA
ATOM     12  H   UNL d   1      28.914 -15.583   6.124  0.00  0.00     0.192 HD
BRANCH  10  13
ATOM     13  C   UNL d   1      28.813 -13.477   7.613  0.00  0.00     0.315 C 
ATOM     14  O   UNL d   1      29.392 -14.448   8.073  0.00  0.00    -0.262 OA
ATOM     15  N   UNL d   1      28.536 -12.275   8.282  0.00  0.00    -0.317 N 
ATOM     16  H   UNL d   1      27.821 -11.675   7.880  0.00  0.00     0.169 HD
BRANCH  15  17
ATOM     17  C   UNL d   1      29.085 -11.930   9.554  0.00  0.00     0.057 A 
ATOM     18  C   UNL d   1      30.058 -10.911   9.629  0.00  0.00     0.031 A 
ATOM     19  C   UNL d   1      30.669 -10.580  10.854  0.00  0.00     0.002 A 
ATOM     20  C   UNL d   1      30.296 -11.234  12.024  0.00  0.00     0.002 A 
ATOM     21  C   UNL d   1      29.351 -12.253  11.963  0.00  0.00     0.026 A 
ATOM     22  C   UNL d   1      28.759 -12.612  10.744  0.00  0.00     0.060 A 
ATOM     23 CL   UNL d   1      27.779 -14.041  10.788  0.00  0.00    -0.082 Cl
ENDBRANCH  15  17
ENDBRANCH  10  13
ENDBRANCH   8   9
ENDBRANCH   4   7
BRANCH   1  24
ATOM     24  O   UNL d   1      26.534 -15.140  -1.979  0.00  0.00    -0.342 OA
BRANCH  24  25
ATOM     25  C   UNL d   1      25.244 -14.728  -2.480  0.00  0.00     0.278 C 
BRANCH  25  26
ATOM     26  C   UNL d   1      25.538 -14.172  -3.873  0.00  0.00     0.246 C 
ATOM     27  N   UNL d   1      26.847 -13.733  -4.143  0.00  0.00    -0.324 N 
ATOM     28  H   UNL d   1      27.426 -13.556  -3.333  0.00  0.00     0.169 HD
ATOM     29  O   UNL d   1      24.568 -14.081  -4.627  0.00  0.00    -0.271 OA
BRANCH  27  30
ATOM     30  C   UNL d   1      27.438 -13.340  -5.419  0.00  0.00     0.046 A 
ATOM     31  C   UNL d   1      28.408 -14.177  -6.052  0.00  0.00    -0.034 A 
ATOM     32  C   UNL d   1      28.960 -13.819  -7.326  0.00  0.00     0.015 A 
ATOM     33  C   UNL d   1      28.888 -15.469  -5.431  0.00  0.00     0.050 C 
ATOM     34  C   UNL d   1      28.586 -12.640  -7.976  0.00  0.00    -0.061 A 
ATOM     35  C   UNL d   1      29.069 -12.188  -9.320  0.00  0.00     0.048 C 
ATOM     36  C   UNL d   1      27.647 -11.832  -7.360  0.00  0.00     0.015 A 
ATOM     37  C   UNL d   1      27.047 -12.191  -6.143  0.00  0.00    -0.034 A 
ATOM     38  C   UNL d   1      25.917 -11.299  -5.765  0.00  0.00     0.050 C 
ENDBRANCH  27  30
ENDBRANCH  25  26
ENDBRANCH  24  25
ENDBRANCH   1  24
TORSDOF 8
ENDMDL
MODEL 6
REMARK VINA RESULT:    -7.437      5.700      7.318
REMARK INTER + INTRA:         -13.118
REMARK INTER:                  -9.824
REMARK INTRA:                  -3.294
REMARK CONF_INDEPENDENT:        2.386
REMARK UNBOUND:                -3.294
REMARK  8 active torsions:
REMARK  status: ('A' for Active; 'I' for Inactive)
REMARK    1  A    between atoms: C_6  and  N_7 
REMARK       I    between atoms: N_7  and  C_8 
REMARK    2  A    between atoms: C_8  and  C_10 
REMARK    3  A    between atoms: C_10  and  O_11 
REMARK    4  A    between atoms: O_11  and  C_12 
REMARK    5  A    between atoms: C_15  and  C_16 
REMARK    6  A    between atoms: N_17  and  N_18 
REMARK       I    between atoms: N_18  and  C_19 
REMARK    7  A    between atoms: C_19  and  C_21 
REMARK       I    between atoms: C_21  and  N_23 
REMARK    8  A    between atoms: N_23  and  C_24 
ROOT
ATOM      1  C   UNL d   1      30.315 -15.113  -0.638  0.00  0.00     0.069 A 
ATOM      2  C   UNL d   1      31.198 -14.493   0.257  0.00  0.00     0.037 A 
ATOM      3  C   UNL d   1      32.143 -15.246   0.971  0.00  0.00     0.015 A 
ATOM      4  C   UNL d   1      32.171 -16.638   0.821  0.00  0.00    -0.017 A 
ATOM      5  C   UNL d   1      31.337 -17.237  -0.130  0.00  0.00     0.015 A 
ATOM      6  C   UNL d   1      30.428 -16.476  -0.869  0.00  0.00     0.037 A 
ENDROOT
BRANCH   4   7
ATOM      7  C   UNL d   1      33.020 -17.501   1.697  0.00  0.00     0.150 C 
ATOM      8  N   UNL d   1      32.721 -18.754   1.873  0.00  0.00    -0.183 NA
BRANCH   8   9
ATOM      9  N   UNL d   1      33.496 -19.518   2.712  0.00  0.00    -0.239 N 
ATOM     10  C   UNL d   1      32.942 -19.999   3.916  0.00  0.00     0.329 C 
ATOM     11  O   UNL d   1      31.830 -19.786   4.355  0.00  0.00    -0.261 OA
ATOM     12  H   UNL d   1      34.451 -19.767   2.466  0.00  0.00     0.192 HD
BRANCH  10  13
ATOM     13  C   UNL d   1      33.911 -20.910   4.716  0.00  0.00     0.315 C 
ATOM     14  O   UNL d   1      34.913 -21.314   4.149  0.00  0.00    -0.262 OA
ATOM     15  N   UNL d   1      33.489 -21.252   6.010  0.00  0.00    -0.317 N 
ATOM     16  H   UNL d   1      32.517 -21.067   6.244  0.00  0.00     0.169 HD
BRANCH  15  17
ATOM     17  C   UNL d   1      34.295 -21.971   6.944  0.00  0.00     0.057 A 
ATOM     18  C   UNL d   1      34.158 -23.372   7.034  0.00  0.00     0.031 A 
ATOM     19  C   UNL d   1      34.889 -24.112   7.982  0.00  0.00     0.002 A 
ATOM     20  C   UNL d   1      35.791 -23.474   8.829  0.00  0.00     0.002 A 
ATOM     21  C   UNL d   1      35.924 -22.091   8.763  0.00  0.00     0.026 A 
ATOM     22  C   UNL d   1      35.177 -21.340   7.845  0.00  0.00     0.060 A 
ATOM     23 CL   UNL d   1      35.279 -19.621   8.036  0.00  0.00    -0.082 Cl
ENDBRANCH  15  17
ENDBRANCH  10  13
ENDBRANCH   8   9
ENDBRANCH   4   7
BRANCH   1  24
ATOM     24  O   UNL d   1      29.430 -14.294  -1.261  0.00  0.00    -0.342 OA
BRANCH  24  25
ATOM     25  C   UNL d   1      28.650 -13.354  -0.490  0.00  0.00     0.278 C 
BRANCH  25  26
ATOM     26  C   UNL d   1      27.300 -14.045  -0.301  0.00  0.00     0.246 C 
ATOM     27  N   UNL d   1      27.074 -15.248  -0.996  0.00  0.00    -0.324 N 
ATOM     28  H   UNL d   1      27.695 -15.426  -1.775  0.00  0.00     0.169 HD
ATOM     29  O   UNL d   1      26.483 -13.440   0.394  0.00  0.00    -0.271 OA
BRANCH  27  30
ATOM     30  C   UNL d   1      25.971 -16.194  -0.858  0.00  0.00     0.046 A 
ATOM     31  C   UNL d   1      24.764 -16.006  -1.599  0.00  0.00    -0.034 A 
ATOM     32  C   UNL d   1      23.693 -16.954  -1.502  0.00  0.00     0.015 A 
ATOM     33  C   UNL d   1      24.557 -14.825  -2.520  0.00  0.00     0.050 C 
ATOM     34  C   UNL d   1      23.786 -18.074  -0.672  0.00  0.00    -0.061 A 
ATOM     35  C   UNL d   1      22.748 -19.144  -0.522  0.00  0.00     0.048 C 
ATOM     36  C   UNL d   1      24.956 -18.253   0.045  0.00  0.00     0.015 A 
ATOM     37  C   UNL d   1      26.041 -17.371  -0.080  0.00  0.00    -0.034 A 
ATOM     38  C   UNL d   1      27.269 -17.859   0.604  0.00  0.00     0.050 C 
ENDBRANCH  27  30
ENDBRANCH  25  26
ENDBRANCH  24  25
ENDBRANCH   1  24
TORSDOF 8
ENDMDL
MODEL 7
REMARK VINA RESULT:    -7.410      5.890      7.520
REMARK INTER + INTRA:         -12.825
REMARK INTER:                  -9.796
REMARK INTRA:                  -3.028
REMARK CONF_INDEPENDENT:        2.386
REMARK UNBOUND:                -3.028
REMARK  8 active torsions:
REMARK  status: ('A' for Active; 'I' for Inactive)
REMARK    1  A    between atoms: C_6  and  N_7 
REMARK       I    between atoms: N_7  and  C_8 
REMARK    2  A    between atoms: C_8  and  C_10 
REMARK    3  A    between atoms: C_10  and  O_11 
REMARK    4  A    between atoms: O_11  and  C_12 
REMARK    5  A    between atoms: C_15  and  C_16 
REMARK    6  A    between atoms: N_17  and  N_18 
REMARK       I    between atoms: N_18  and  C_19 
REMARK    7  A    between atoms: C_19  and  C_21 
REMARK       I    between atoms: C_21  and  N_23 
REMARK    8  A    between atoms: N_23  and  C_24 
ROOT
ATOM      1  C   UNL d   1      30.821 -15.579  -0.633  0.00  0.00     0.069 A 
ATOM      2  C   UNL d   1      31.809 -14.869   0.062  0.00  0.00     0.037 A 
ATOM      3  C   UNL d   1      32.700 -15.532   0.920  0.00  0.00     0.015 A 
ATOM      4  C   UNL d   1      32.567 -16.911   1.120  0.00  0.00    -0.017 A 
ATOM      5  C   UNL d   1      31.626 -17.621   0.365  0.00  0.00     0.015 A 
ATOM      6  C   UNL d   1      30.771 -16.961  -0.521  0.00  0.00     0.037 A 
ENDROOT
BRANCH   4   7
ATOM      7  C   UNL d   1      33.359 -17.629   2.165  0.00  0.00     0.150 C 
ATOM      8  N   UNL d   1      33.441 -18.926   2.152  0.00  0.00    -0.183 NA
BRANCH   8   9
ATOM      9  N   UNL d   1      34.143 -19.565   3.144  0.00  0.00    -0.239 N 
ATOM     10  C   UNL d   1      33.445 -20.131   4.231  0.00  0.00     0.329 C 
ATOM     11  O   UNL d   1      32.250 -20.093   4.441  0.00  0.00    -0.261 OA
ATOM     12  H   UNL d   1      35.154 -19.664   3.094  0.00  0.00     0.192 HD
BRANCH  10  13
ATOM     13  C   UNL d   1      34.366 -20.886   5.226  0.00  0.00     0.315 C 
ATOM     14  O   UNL d   1      35.475 -21.215   4.839  0.00  0.00    -0.262 OA
ATOM     15  N   UNL d   1      33.791 -21.191   6.469  0.00  0.00    -0.317 N 
ATOM     16  H   UNL d   1      32.781 -21.095   6.548  0.00  0.00     0.169 HD
BRANCH  15  17
ATOM     17  C   UNL d   1      34.513 -21.764   7.559  0.00  0.00     0.057 A 
ATOM     18  C   UNL d   1      34.911 -20.936   8.630  0.00  0.00     0.031 A 
ATOM     19  C   UNL d   1      35.676 -21.447   9.696  0.00  0.00     0.002 A 
ATOM     20  C   UNL d   1      36.026 -22.794   9.728  0.00  0.00     0.002 A 
ATOM     21  C   UNL d   1      35.656 -23.618   8.670  0.00  0.00     0.026 A 
ATOM     22  C   UNL d   1      34.921 -23.113   7.588  0.00  0.00     0.060 A 
ATOM     23 CL   UNL d   1      34.734 -24.196   6.248  0.00  0.00    -0.082 Cl
ENDBRANCH  15  17
ENDBRANCH  10  13
ENDBRANCH   8   9
ENDBRANCH   4   7
BRANCH   1  24
ATOM     24  O   UNL d   1      30.001 -14.837  -1.421  0.00  0.00    -0.342 OA
BRANCH  24  25
ATOM     25  C   UNL d   1      29.808 -15.200  -2.805  0.00  0.00     0.278 C 
BRANCH  25  26
ATOM     26  C   UNL d   1      28.403 -15.800  -2.848  0.00  0.00     0.246 C 
ATOM     27  N   UNL d   1      27.831 -16.222  -1.633  0.00  0.00    -0.324 N 
ATOM     28  H   UNL d   1      28.479 -16.359  -0.869  0.00  0.00     0.169 HD
ATOM     29  O   UNL d   1      27.914 -15.937  -3.970  0.00  0.00    -0.271 OA
BRANCH  27  30
ATOM     30  C   UNL d   1      26.462 -16.650  -1.364  0.00  0.00     0.046 A 
ATOM     31  C   UNL d   1      26.206 -17.701  -0.430  0.00  0.00    -0.034 A 
ATOM     32  C   UNL d   1      24.862 -18.096  -0.128  0.00  0.00     0.015 A 
ATOM     33  C   UNL d   1      27.318 -18.432   0.287  0.00  0.00     0.050 C 
ATOM     34  C   UNL d   1      23.767 -17.486  -0.745  0.00  0.00    -0.061 A 
ATOM     35  C   UNL d   1      22.325 -17.794  -0.478  0.00  0.00     0.048 C 
ATOM     36  C   UNL d   1      24.018 -16.470  -1.649  0.00  0.00     0.015 A 
ATOM     37  C   UNL d   1      25.322 -16.023  -1.916  0.00  0.00    -0.034 A 
ATOM     38  C   UNL d   1      25.356 -14.789  -2.746  0.00  0.00     0.050 C 
ENDBRANCH  27  30
ENDBRANCH  25  26
ENDBRANCH  24  25
ENDBRANCH   1  24
TORSDOF 8
ENDMDL
MODEL 8
REMARK VINA RESULT:    -7.338      2.474      4.528
REMARK INTER + INTRA:         -13.148
REMARK INTER:                  -9.725
REMARK INTRA:                  -3.424
REMARK CONF_INDEPENDENT:        2.386
REMARK UNBOUND:                -3.424
REMARK  8 active torsions:
REMARK  status: ('A' for Active; 'I' for Inactive)
REMARK    1  A    between atoms: C_6  and  N_7 
REMARK       I    between atoms: N_7  and  C_8 
REMARK    2  A    between atoms: C_8  and  C_10 
REMARK    3  A    between atoms: C_10  and  O_11 
REMARK    4  A    between atoms: O_11  and  C_12 
REMARK    5  A    between atoms: C_15  and  C_16 
REMARK    6  A    between atoms: N_17  and  N_18 
REMARK       I    between atoms: N_18  and  C_19 
REMARK    7  A    between atoms: C_19  and  C_21 
REMARK       I    between atoms: C_21  and  N_23 
REMARK    8  A    between atoms: N_23  and  C_24 
ROOT
ATOM      1  C   UNL d   1      25.781 -15.679  -2.707  0.00  0.00     0.069 A 
ATOM      2  C   UNL d   1      27.171 -15.856  -2.653  0.00  0.00     0.037 A 
ATOM      3  C   UNL d   1      27.827 -16.009  -1.422  0.00  0.00     0.015 A 
ATOM      4  C   UNL d   1      27.090 -15.935  -0.234  0.00  0.00    -0.017 A 
ATOM      5  C   UNL d   1      25.695 -15.832  -0.303  0.00  0.00     0.015 A 
ATOM      6  C   UNL d   1      25.044 -15.724  -1.534  0.00  0.00     0.037 A 
ENDROOT
BRANCH   4   7
ATOM      7  C   UNL d   1      27.761 -15.895   1.101  0.00  0.00     0.150 C 
ATOM      8  N   UNL d   1      27.733 -14.811   1.818  0.00  0.00    -0.183 NA
BRANCH   8   9
ATOM      9  N   UNL d   1      28.388 -14.788   3.025  0.00  0.00    -0.239 N 
ATOM     10  C   UNL d   1      27.805 -14.110   4.115  0.00  0.00     0.329 C 
ATOM     11  O   UNL d   1      26.767 -13.478   4.123  0.00  0.00    -0.261 OA
ATOM     12  H   UNL d   1      29.272 -15.274   3.155  0.00  0.00     0.192 HD
BRANCH  10  13
ATOM     13  C   UNL d   1      28.622 -14.239   5.428  0.00  0.00     0.315 C 
ATOM     14  O   UNL d   1      29.532 -15.052   5.455  0.00  0.00    -0.262 OA
ATOM     15  N   UNL d   1      28.176 -13.450   6.499  0.00  0.00    -0.317 N 
ATOM     16  H   UNL d   1      27.253 -13.031   6.412  0.00  0.00     0.169 HD
BRANCH  15  17
ATOM     17  C   UNL d   1      28.868 -13.332   7.741  0.00  0.00     0.057 A 
ATOM     18  C   UNL d   1      28.908 -14.440   8.614  0.00  0.00     0.031 A 
ATOM     19  C   UNL d   1      29.528 -14.349   9.874  0.00  0.00     0.002 A 
ATOM     20  C   UNL d   1      30.146 -13.166  10.269  0.00  0.00     0.002 A 
ATOM     21  C   UNL d   1      30.101 -12.060   9.427  0.00  0.00     0.026 A 
ATOM     22  C   UNL d   1      29.458 -12.130   8.183  0.00  0.00     0.060 A 
ATOM     23 CL   UNL d   1      29.285 -10.619   7.352  0.00  0.00    -0.082 Cl
ENDBRANCH  15  17
ENDBRANCH  10  13
ENDBRANCH   8   9
ENDBRANCH   4   7
BRANCH   1  24
ATOM     24  O   UNL d   1      25.252 -15.522  -3.949  0.00  0.00    -0.342 OA
BRANCH  24  25
ATOM     25  C   UNL d   1      26.123 -15.367  -5.090  0.00  0.00     0.278 C 
BRANCH  25  26
ATOM     26  C   UNL d   1      26.533 -13.896  -5.057  0.00  0.00     0.246 C 
ATOM     27  N   UNL d   1      25.819 -13.032  -4.206  0.00  0.00    -0.324 N 
ATOM     28  H   UNL d   1      24.920 -13.373  -3.891  0.00  0.00     0.169 HD
ATOM     29  O   UNL d   1      27.419 -13.570  -5.850  0.00  0.00    -0.271 OA
BRANCH  27  30
ATOM     30  C   UNL d   1      26.113 -11.648  -3.846  0.00  0.00     0.046 A 
ATOM     31  C   UNL d   1      26.700 -11.343  -2.579  0.00  0.00    -0.034 A 
ATOM     32  C   UNL d   1      27.032  -9.992  -2.236  0.00  0.00     0.015 A 
ATOM     33  C   UNL d   1      27.010 -12.411  -1.555  0.00  0.00     0.050 C 
ATOM     34  C   UNL d   1      26.776  -8.934  -3.113  0.00  0.00    -0.061 A 
ATOM     35  C   UNL d   1      27.115  -7.494  -2.873  0.00  0.00     0.048 C 
ATOM     36  C   UNL d   1      26.208  -9.233  -4.338  0.00  0.00     0.015 A 
ATOM     37  C   UNL d   1      25.930 -10.554  -4.722  0.00  0.00    -0.034 A 
ATOM     38  C   UNL d   1      25.526 -10.674  -6.149  0.00  0.00     0.050 C 
ENDBRANCH  27  30
ENDBRANCH  25  26
ENDBRANCH  24  25
ENDBRANCH   1  24
TORSDOF 8
ENDMDL
MODEL 9
REMARK VINA RESULT:    -7.313      1.318      1.705
REMARK INTER + INTRA:         -13.080
REMARK INTER:                  -9.700
REMARK INTRA:                  -3.380
REMARK CONF_INDEPENDENT:        2.386
REMARK UNBOUND:                -3.380
REMARK  8 active torsions:
REMARK  status: ('A' for Active; 'I' for Inactive)
REMARK    1  A    between atoms: C_6  and  N_7 
REMARK       I    between atoms: N_7  and  C_8 
REMARK    2  A    between atoms: C_8  and  C_10 
REMARK    3  A    between atoms: C_10  and  O_11 
REMARK    4  A    between atoms: O_11  and  C_12 
REMARK    5  A    between atoms: C_15  and  C_16 
REMARK    6  A    between atoms: N_17  and  N_18 
REMARK       I    between atoms: N_18  and  C_19 
REMARK    7  A    between atoms: C_19  and  C_21 
REMARK       I    between atoms: C_21  and  N_23 
REMARK    8  A    between atoms: N_23  and  C_24 
ROOT
ATOM      1  C   UNL d   1      26.319 -13.506  -2.218  0.00  0.00     0.069 A 
ATOM      2  C   UNL d   1      27.344 -12.653  -1.787  0.00  0.00     0.037 A 
ATOM      3  C   UNL d   1      28.093 -12.954  -0.639  0.00  0.00     0.015 A 
ATOM      4  C   UNL d   1      27.778 -14.094   0.110  0.00  0.00    -0.017 A 
ATOM      5  C   UNL d   1      26.803 -14.976  -0.369  0.00  0.00     0.015 A 
ATOM      6  C   UNL d   1      26.091 -14.693  -1.538  0.00  0.00     0.037 A 
ENDROOT
BRANCH   4   7
ATOM      7  C   UNL d   1      28.410 -14.355   1.439  0.00  0.00     0.150 C 
ATOM      8  N   UNL d   1      27.705 -14.278   2.528  0.00  0.00    -0.183 NA
BRANCH   8   9
ATOM      9  N   UNL d   1      28.316 -14.485   3.741  0.00  0.00    -0.239 N 
ATOM     10  C   UNL d   1      28.079 -13.582   4.798  0.00  0.00     0.329 C 
ATOM     11  O   UNL d   1      27.405 -12.572   4.770  0.00  0.00    -0.261 OA
ATOM     12  H   UNL d   1      28.912 -15.294   3.899  0.00  0.00     0.192 HD
BRANCH  10  13
ATOM     13  C   UNL d   1      28.773 -13.993   6.123  0.00  0.00     0.315 C 
ATOM     14  O   UNL d   1      29.548 -14.935   6.093  0.00  0.00    -0.262 OA
ATOM     15  N   UNL d   1      28.373 -13.278   7.263  0.00  0.00    -0.317 N 
ATOM     16  H   UNL d   1      27.530 -12.714   7.183  0.00  0.00     0.169 HD
BRANCH  15  17
ATOM     17  C   UNL d   1      28.985 -13.419   8.545  0.00  0.00     0.057 A 
ATOM     18  C   UNL d   1      28.905 -14.659   9.212  0.00  0.00     0.031 A 
ATOM     19  C   UNL d   1      29.442 -14.824  10.503  0.00  0.00     0.002 A 
ATOM     20  C   UNL d   1      30.096 -13.769  11.132  0.00  0.00     0.002 A 
ATOM     21  C   UNL d   1      30.168 -12.535  10.493  0.00  0.00     0.026 A 
ATOM     22  C   UNL d   1      29.608 -12.351   9.222  0.00  0.00     0.060 A 
ATOM     23 CL   UNL d   1      29.574 -10.713   8.657  0.00  0.00    -0.082 Cl
ENDBRANCH  15  17
ENDBRANCH  10  13
ENDBRANCH   8   9
ENDBRANCH   4   7
BRANCH   1  24
ATOM     24  O   UNL d   1      25.646 -13.110  -3.329  0.00  0.00    -0.342 OA
BRANCH  24  25
ATOM     25  C   UNL d   1      24.907 -14.075  -4.108  0.00  0.00     0.278 C 
BRANCH  25  26
ATOM     26  C   UNL d   1      25.984 -14.900  -4.812  0.00  0.00     0.246 C 
ATOM     27  N   UNL d   1      27.299 -14.398  -4.815  0.00  0.00    -0.324 N 
ATOM     28  H   UNL d   1      27.392 -13.414  -4.603  0.00  0.00     0.169 HD
ATOM     29  O   UNL d   1      25.588 -15.911  -5.393  0.00  0.00    -0.271 OA
BRANCH  27  30
ATOM     30  C   UNL d   1      28.531 -15.056  -5.242  0.00  0.00     0.046 A 
ATOM     31  C   UNL d   1      29.137 -14.710  -6.489  0.00  0.00    -0.034 A 
ATOM     32  C   UNL d   1      30.369 -15.319  -6.895  0.00  0.00     0.015 A 
ATOM     33  C   UNL d   1      28.530 -13.691  -7.426  0.00  0.00     0.050 C 
ATOM     34  C   UNL d   1      31.003 -16.278  -6.101  0.00  0.00    -0.061 A 
ATOM     35  C   UNL d   1      32.307 -16.949  -6.409  0.00  0.00     0.048 C 
ATOM     36  C   UNL d   1      30.413 -16.611  -4.895  0.00  0.00     0.015 A 
ATOM     37  C   UNL d   1      29.240 -15.984  -4.448  0.00  0.00    -0.034 A 
ATOM     38  C   UNL d   1      28.895 -16.329  -3.042  0.00  0.00     0.050 C 
ENDBRANCH  27  30
ENDBRANCH  25  26
ENDBRANCH  24  25
ENDBRANCH   1  24
TORSDOF 8
ENDMDL
