MODEL 1
REMARK VINA RESULT:    -6.707      0.000      0.000
REMARK INTER + INTRA:         -10.045
REMARK INTER:                  -7.900
REMARK INTRA:                  -2.145
REMARK CONF_INDEPENDENT:        1.193
REMARK UNBOUND:                -2.145
REMARK  4 active torsions:
REMARK  status: ('A' for Active; 'I' for Inactive)
REMARK    1  A    between atoms: C_6  and  N_7 
REMARK    2  A    between atoms: N_7  and  N_8 
REMARK       I    between atoms: N_8  and  C_9 
REMARK    3  A    between atoms: C_9  and  C_11 
REMARK    4  A    between atoms: C_17  and  O_18 
ROOT
ATOM      1  N   UNL d   1      25.355 -15.518  -3.715  0.00  0.00    -0.187 NA
ATOM      2  C   UNL d   1      25.156 -14.236  -4.227  0.00  0.00     0.247 C 
ATOM      3  O   UNL d   1      24.046 -13.700  -4.142  0.00  0.00    -0.273 OA
ATOM      4  H   UNL d   1      24.473 -15.931  -3.429  0.00  0.00     0.150 HD
ENDROOT
BRANCH   1   5
ATOM      5  N   UNL d   1      26.351 -15.664  -2.675  0.00  0.00    -0.220 NA
ATOM      6  H   UNL d   1      27.257 -15.912  -3.084  0.00  0.00     0.147 HD
BRANCH   5   7
ATOM      7  C   UNL d   1      26.029 -16.633  -1.672  0.00  0.00     0.023 A 
ATOM      8  C   UNL d   1      27.002 -16.993  -0.719  0.00  0.00     0.025 A 
ATOM      9  C   UNL d   1      26.671 -17.777   0.397  0.00  0.00     0.002 A 
ATOM     10  C   UNL d   1      25.358 -18.200   0.589  0.00  0.00     0.007 A 
ATOM     11  C   UNL d   1      24.380 -17.870  -0.348  0.00  0.00    -0.060 A 
ATOM     12  C   UNL d   1      22.949 -18.276  -0.162  0.00  0.00     0.048 C 
ATOM     13  C   UNL d   1      24.726 -17.098  -1.470  0.00  0.00     0.031 A 
ENDBRANCH   5   7
ENDBRANCH   1   5
BRANCH   2  14
ATOM     14  C   UNL d   1      26.248 -13.566  -5.008  0.00  0.00     0.062 A 
ATOM     15  C   UNL d   1      26.091 -12.211  -5.367  0.00  0.00     0.043 A 
ATOM     16  C   UNL d   1      27.059 -11.578  -6.154  0.00  0.00     0.035 A 
ATOM     17 CL   UNL d   1      26.869  -9.931  -6.619  0.00  0.00    -0.084 Cl
ATOM     18  C   UNL d   1      28.188 -12.272  -6.586  0.00  0.00     0.026 A 
ATOM     19  C   UNL d   1      28.351 -13.609  -6.240  0.00  0.00     0.039 A 
ATOM     20  C   UNL d   1      27.381 -14.250  -5.478  0.00  0.00     0.081 A 
BRANCH  20  21
ATOM     21  O   UNL d   1      27.564 -15.575  -5.217  0.00  0.00    -0.360 OA
ATOM     22  H   UNL d   1      26.830 -15.966  -4.720  0.00  0.00     0.217 HD
ENDBRANCH  20  21
ENDBRANCH   2  14
TORSDOF 4
ENDMDL
MODEL 2
REMARK VINA RESULT:    -6.569      3.035      6.314
REMARK INTER + INTRA:          -9.301
REMARK INTER:                  -7.762
REMARK INTRA:                  -1.539
REMARK CONF_INDEPENDENT:        1.193
REMARK UNBOUND:                -1.539
REMARK  4 active torsions:
REMARK  status: ('A' for Active; 'I' for Inactive)
REMARK    1  A    between atoms: C_6  and  N_7 
REMARK    2  A    between atoms: N_7  and  N_8 
REMARK       I    between atoms: N_8  and  C_9 
REMARK    3  A    between atoms: C_9  and  C_11 
REMARK    4  A    between atoms: C_17  and  O_18 
ROOT
ATOM      1  N   UNL d   1      25.155 -15.187  -4.831  0.00  0.00    -0.187 NA
ATOM      2  C   UNL d   1      26.351 -15.530  -4.201  0.00  0.00     0.247 C 
ATOM      3  O   UNL d   1      27.403 -15.575  -4.847  0.00  0.00    -0.273 OA
ATOM      4  H   UNL d   1      25.282 -15.135  -5.836  0.00  0.00     0.150 HD
ENDROOT
BRANCH   1   5
ATOM      5  N   UNL d   1      24.466 -14.014  -4.339  0.00  0.00    -0.220 NA
ATOM      6  H   UNL d   1      23.766 -13.702  -5.019  0.00  0.00     0.147 HD
BRANCH   5   7
ATOM      7  C   UNL d   1      25.318 -12.906  -4.031  0.00  0.00     0.023 A 
ATOM      8  C   UNL d   1      25.753 -12.713  -2.705  0.00  0.00     0.025 A 
ATOM      9  C   UNL d   1      26.745 -11.771  -2.395  0.00  0.00     0.002 A 
ATOM     10  C   UNL d   1      27.334 -11.017  -3.407  0.00  0.00     0.007 A 
ATOM     11  C   UNL d   1      26.910 -11.178  -4.726  0.00  0.00    -0.060 A 
ATOM     12  C   UNL d   1      27.541 -10.411  -5.849  0.00  0.00     0.048 C 
ATOM     13  C   UNL d   1      25.905 -12.113  -5.023  0.00  0.00     0.031 A 
ENDBRANCH   5   7
ENDBRANCH   1   5
BRANCH   2  14
ATOM     14  C   UNL d   1      26.337 -15.985  -2.770  0.00  0.00     0.062 A 
ATOM     15  C   UNL d   1      25.195 -16.656  -2.284  0.00  0.00     0.043 A 
ATOM     16  C   UNL d   1      25.123 -17.030  -0.938  0.00  0.00     0.035 A 
ATOM     17 CL   UNL d   1      23.726 -17.829  -0.324  0.00  0.00    -0.084 Cl
ATOM     18  C   UNL d   1      26.176 -16.754  -0.066  0.00  0.00     0.026 A 
ATOM     19  C   UNL d   1      27.305 -16.091  -0.535  0.00  0.00     0.039 A 
ATOM     20  C   UNL d   1      27.371 -15.695  -1.867  0.00  0.00     0.081 A 
BRANCH  20  21
ATOM     21  O   UNL d   1      28.476 -14.998  -2.258  0.00  0.00    -0.360 OA
ATOM     22  H   UNL d   1      28.567 -14.947  -3.221  0.00  0.00     0.217 HD
ENDBRANCH  20  21
ENDBRANCH   2  14
TORSDOF 4
ENDMDL
MODEL 3
REMARK VINA RESULT:    -6.493      3.225      6.109
REMARK INTER + INTRA:          -9.232
REMARK INTER:                  -7.686
REMARK INTRA:                  -1.546
REMARK CONF_INDEPENDENT:        1.193
REMARK UNBOUND:                -1.546
REMARK  4 active torsions:
REMARK  status: ('A' for Active; 'I' for Inactive)
REMARK    1  A    between atoms: C_6  and  N_7 
REMARK    2  A    between atoms: N_7  and  N_8 
REMARK       I    between atoms: N_8  and  C_9 
REMARK    3  A    between atoms: C_9  and  C_11 
REMARK    4  A    between atoms: C_17  and  O_18 
ROOT
ATOM      1  N   UNL d   1      24.812 -14.824  -4.677  0.00  0.00    -0.187 NA
ATOM      2  C   UNL d   1      26.001 -15.404  -4.233  0.00  0.00     0.247 C 
ATOM      3  O   UNL d   1      26.939 -15.576  -5.018  0.00  0.00    -0.273 OA
ATOM      4  H   UNL d   1      24.818 -14.723  -5.686  0.00  0.00     0.150 HD
ENDROOT
BRANCH   1   5
ATOM      5  N   UNL d   1      24.404 -13.591  -4.039  0.00  0.00    -0.220 NA
ATOM      6  H   UNL d   1      23.755 -13.077  -4.642  0.00  0.00     0.147 HD
BRANCH   5   7
ATOM      7  C   UNL d   1      25.481 -12.716  -3.688  0.00  0.00     0.023 A 
ATOM      8  C   UNL d   1      25.868 -11.700  -4.582  0.00  0.00     0.025 A 
ATOM      9  C   UNL d   1      26.772 -10.698  -4.198  0.00  0.00     0.002 A 
ATOM     10  C   UNL d   1      27.291 -10.685  -2.906  0.00  0.00     0.007 A 
ATOM     11  C   UNL d   1      26.936 -11.689  -2.006  0.00  0.00    -0.060 A 
ATOM     12  C   UNL d   1      27.445 -11.692  -0.596  0.00  0.00     0.048 C 
ATOM     13  C   UNL d   1      26.042 -12.696  -2.407  0.00  0.00     0.031 A 
ENDBRANCH   5   7
ENDBRANCH   1   5
BRANCH   2  14
ATOM     14  C   UNL d   1      26.089 -15.951  -2.838  0.00  0.00     0.062 A 
ATOM     15  C   UNL d   1      24.951 -16.572  -2.280  0.00  0.00     0.043 A 
ATOM     16  C   UNL d   1      24.980 -17.029  -0.958  0.00  0.00     0.035 A 
ATOM     17 CL   UNL d   1      23.591 -17.767  -0.256  0.00  0.00    -0.084 Cl
ATOM     18  C   UNL d   1      26.129 -16.885  -0.182  0.00  0.00     0.026 A 
ATOM     19  C   UNL d   1      27.255 -16.273  -0.721  0.00  0.00     0.039 A 
ATOM     20  C   UNL d   1      27.224 -15.794  -2.027  0.00  0.00     0.081 A 
BRANCH  20  21
ATOM     21  O   UNL d   1      28.336 -15.153  -2.485  0.00  0.00    -0.360 OA
ATOM     22  H   UNL d   1      28.374 -15.109  -3.451  0.00  0.00     0.217 HD
ENDBRANCH  20  21
ENDBRANCH   2  14
TORSDOF 4
ENDMDL
MODEL 4
REMARK VINA RESULT:    -6.460      3.751      5.725
REMARK INTER + INTRA:          -9.354
REMARK INTER:                  -7.653
REMARK INTRA:                  -1.701
REMARK CONF_INDEPENDENT:        1.193
REMARK UNBOUND:                -1.701
REMARK  4 active torsions:
REMARK  status: ('A' for Active; 'I' for Inactive)
REMARK    1  A    between atoms: C_6  and  N_7 
REMARK    2  A    between atoms: N_7  and  N_8 
REMARK       I    between atoms: N_8  and  C_9 
REMARK    3  A    between atoms: C_9  and  C_11 
REMARK    4  A    between atoms: C_17  and  O_18 
ROOT
ATOM      1  N   UNL d   1      23.945 -17.961   0.486  0.00  0.00    -0.187 NA
ATOM      2  C   UNL d   1      25.307 -17.798   0.230  0.00  0.00     0.247 C 
ATOM      3  O   UNL d   1      26.126 -18.597   0.697  0.00  0.00    -0.273 OA
ATOM      4  H   UNL d   1      23.795 -18.692   1.173  0.00  0.00     0.150 HD
ENDROOT
BRANCH   1   5
ATOM      5  N   UNL d   1      23.079 -18.146  -0.659  0.00  0.00    -0.220 NA
ATOM      6  H   UNL d   1      22.983 -17.269  -1.177  0.00  0.00     0.147 HD
BRANCH   5   7
ATOM      7  C   UNL d   1      21.769 -18.629  -0.343  0.00  0.00     0.023 A 
ATOM      8  C   UNL d   1      20.881 -18.956  -1.386  0.00  0.00     0.025 A 
ATOM      9  C   UNL d   1      19.672 -19.620  -1.131  0.00  0.00     0.002 A 
ATOM     10  C   UNL d   1      19.338 -19.986   0.171  0.00  0.00     0.007 A 
ATOM     11  C   UNL d   1      20.192 -19.660   1.223  0.00  0.00    -0.060 A 
ATOM     12  C   UNL d   1      19.886 -20.065   2.634  0.00  0.00     0.048 C 
ATOM     13  C   UNL d   1      21.392 -18.981   0.957  0.00  0.00     0.031 A 
ENDBRANCH   5   7
ENDBRANCH   1   5
BRANCH   2  14
ATOM     14  C   UNL d   1      25.790 -16.573  -0.490  0.00  0.00     0.062 A 
ATOM     15  C   UNL d   1      26.533 -15.613   0.229  0.00  0.00     0.043 A 
ATOM     16  C   UNL d   1      26.937 -14.429  -0.396  0.00  0.00     0.035 A 
ATOM     17 CL   UNL d   1      27.824 -13.238   0.476  0.00  0.00    -0.084 Cl
ATOM     18  C   UNL d   1      26.620 -14.186  -1.732  0.00  0.00     0.026 A 
ATOM     19  C   UNL d   1      25.886 -15.125  -2.449  0.00  0.00     0.039 A 
ATOM     20  C   UNL d   1      25.460 -16.293  -1.826  0.00  0.00     0.081 A 
BRANCH  20  21
ATOM     21  O   UNL d   1      24.696 -17.151  -2.559  0.00  0.00    -0.360 OA
ATOM     22  H   UNL d   1      23.970 -17.539  -2.048  0.00  0.00     0.217 HD
ENDBRANCH  20  21
ENDBRANCH   2  14
TORSDOF 4
ENDMDL
MODEL 5
REMARK VINA RESULT:    -6.341      1.187      2.132
REMARK INTER + INTRA:          -9.669
REMARK INTER:                  -7.534
REMARK INTRA:                  -2.136
REMARK CONF_INDEPENDENT:        1.193
REMARK UNBOUND:                -2.136
REMARK  4 active torsions:
REMARK  status: ('A' for Active; 'I' for Inactive)
REMARK    1  A    between atoms: C_6  and  N_7 
REMARK    2  A    between atoms: N_7  and  N_8 
REMARK       I    between atoms: N_8  and  C_9 
REMARK    3  A    between atoms: C_9  and  C_11 
REMARK    4  A    between atoms: C_17  and  O_18 
ROOT
ATOM      1  N   UNL d   1      26.586 -15.465  -3.460  0.00  0.00    -0.187 NA
ATOM      2  C   UNL d   1      26.751 -14.706  -4.618  0.00  0.00     0.247 C 
ATOM      3  O   UNL d   1      27.291 -15.201  -5.613  0.00  0.00    -0.273 OA
ATOM      4  H   UNL d   1      27.076 -16.349  -3.538  0.00  0.00     0.150 HD
ENDROOT
BRANCH   1   5
ATOM      5  N   UNL d   1      25.231 -15.667  -2.993  0.00  0.00    -0.220 NA
ATOM      6  H   UNL d   1      24.833 -14.783  -2.665  0.00  0.00     0.147 HD
BRANCH   5   7
ATOM      7  C   UNL d   1      25.099 -16.635  -1.948  0.00  0.00     0.023 A 
ATOM      8  C   UNL d   1      26.174 -16.853  -1.064  0.00  0.00     0.025 A 
ATOM      9  C   UNL d   1      26.019 -17.636   0.090  0.00  0.00     0.002 A 
ATOM     10  C   UNL d   1      24.782 -18.200   0.391  0.00  0.00     0.007 A 
ATOM     11  C   UNL d   1      23.706 -18.013  -0.477  0.00  0.00    -0.060 A 
ATOM     12  C   UNL d   1      22.350 -18.575  -0.173  0.00  0.00     0.048 C 
ATOM     13  C   UNL d   1      23.877 -17.241  -1.637  0.00  0.00     0.031 A 
ENDBRANCH   5   7
ENDBRANCH   1   5
BRANCH   2  14
ATOM     14  C   UNL d   1      26.403 -13.245  -4.610  0.00  0.00     0.062 A 
ATOM     15  C   UNL d   1      26.656 -12.482  -5.770  0.00  0.00     0.043 A 
ATOM     16  C   UNL d   1      26.408 -11.105  -5.770  0.00  0.00     0.035 A 
ATOM     17 CL   UNL d   1      26.733 -10.157  -7.171  0.00  0.00    -0.084 Cl
ATOM     18  C   UNL d   1      25.905 -10.474  -4.633  0.00  0.00     0.026 A 
ATOM     19  C   UNL d   1      25.655 -11.216  -3.484  0.00  0.00     0.039 A 
ATOM     20  C   UNL d   1      25.922 -12.581  -3.471  0.00  0.00     0.081 A 
BRANCH  20  21
ATOM     21  O   UNL d   1      25.713 -13.248  -2.301  0.00  0.00    -0.360 OA
ATOM     22  H   UNL d   1      26.318 -13.994  -2.179  0.00  0.00     0.217 HD
ENDBRANCH  20  21
ENDBRANCH   2  14
TORSDOF 4
ENDMDL
MODEL 6
REMARK VINA RESULT:    -6.266      3.145      6.977
REMARK INTER + INTRA:          -9.654
REMARK INTER:                  -7.459
REMARK INTRA:                  -2.195
REMARK CONF_INDEPENDENT:        1.193
REMARK UNBOUND:                -2.195
REMARK  4 active torsions:
REMARK  status: ('A' for Active; 'I' for Inactive)
REMARK    1  A    between atoms: C_6  and  N_7 
REMARK    2  A    between atoms: N_7  and  N_8 
REMARK       I    between atoms: N_8  and  C_9 
REMARK    3  A    between atoms: C_9  and  C_11 
REMARK    4  A    between atoms: C_17  and  O_18 
ROOT
ATOM      1  N   UNL d   1      26.697 -14.558  -4.291  0.00  0.00    -0.187 NA
ATOM      2  C   UNL d   1      25.530 -14.956  -3.640  0.00  0.00     0.247 C 
ATOM      3  O   UNL d   1      24.448 -14.438  -3.934  0.00  0.00    -0.273 OA
ATOM      4  H   UNL d   1      26.523 -13.749  -4.877  0.00  0.00     0.150 HD
ENDROOT
BRANCH   1   5
ATOM      5  N   UNL d   1      27.422 -15.575  -5.022  0.00  0.00    -0.220 NA
ATOM      6  H   UNL d   1      27.871 -16.227  -4.373  0.00  0.00     0.147 HD
BRANCH   5   7
ATOM      7  C   UNL d   1      28.420 -15.071  -5.915  0.00  0.00     0.023 A 
ATOM      8  C   UNL d   1      28.317 -13.751  -6.397  0.00  0.00     0.025 A 
ATOM      9  C   UNL d   1      29.369 -13.151  -7.104  0.00  0.00     0.002 A 
ATOM     10  C   UNL d   1      30.552 -13.853  -7.326  0.00  0.00     0.007 A 
ATOM     11  C   UNL d   1      30.673 -15.166  -6.873  0.00  0.00    -0.060 A 
ATOM     12  C   UNL d   1      31.941 -15.944  -7.061  0.00  0.00     0.048 C 
ATOM     13  C   UNL d   1      29.607 -15.762  -6.180  0.00  0.00     0.031 A 
ENDBRANCH   5   7
ENDBRANCH   1   5
BRANCH   2  14
ATOM     14  C   UNL d   1      25.608 -15.908  -2.481  0.00  0.00     0.062 A 
ATOM     15  C   UNL d   1      24.410 -16.424  -1.946  0.00  0.00     0.043 A 
ATOM     16  C   UNL d   1      24.445 -17.257  -0.823  0.00  0.00     0.035 A 
ATOM     17 CL   UNL d   1      22.988 -17.876  -0.145  0.00  0.00    -0.084 Cl
ATOM     18  C   UNL d   1      25.660 -17.593  -0.227  0.00  0.00     0.026 A 
ATOM     19  C   UNL d   1      26.847 -17.088  -0.745  0.00  0.00     0.039 A 
ATOM     20  C   UNL d   1      26.816 -16.239  -1.846  0.00  0.00     0.081 A 
BRANCH  20  21
ATOM     21  O   UNL d   1      28.004 -15.728  -2.276  0.00  0.00    -0.360 OA
ATOM     22  H   UNL d   1      27.898 -15.073  -2.983  0.00  0.00     0.217 HD
ENDBRANCH  20  21
ENDBRANCH   2  14
TORSDOF 4
ENDMDL
MODEL 7
REMARK VINA RESULT:    -6.240      3.080      6.927
REMARK INTER + INTRA:          -9.645
REMARK INTER:                  -7.433
REMARK INTRA:                  -2.212
REMARK CONF_INDEPENDENT:        1.193
REMARK UNBOUND:                -2.212
REMARK  4 active torsions:
REMARK  status: ('A' for Active; 'I' for Inactive)
REMARK    1  A    between atoms: C_6  and  N_7 
REMARK    2  A    between atoms: N_7  and  N_8 
REMARK       I    between atoms: N_8  and  C_9 
REMARK    3  A    between atoms: C_9  and  C_11 
REMARK    4  A    between atoms: C_17  and  O_18 
ROOT
ATOM      1  N   UNL d   1      26.710 -14.557  -4.312  0.00  0.00    -0.187 NA
ATOM      2  C   UNL d   1      25.538 -14.960  -3.672  0.00  0.00     0.247 C 
ATOM      3  O   UNL d   1      24.456 -14.450  -3.981  0.00  0.00    -0.273 OA
ATOM      4  H   UNL d   1      26.537 -13.752  -4.904  0.00  0.00     0.150 HD
ENDROOT
BRANCH   1   5
ATOM      5  N   UNL d   1      27.449 -15.573  -5.029  0.00  0.00    -0.220 NA
ATOM      6  H   UNL d   1      27.713 -16.334  -4.397  0.00  0.00     0.147 HD
BRANCH   5   7
ATOM      7  C   UNL d   1      28.632 -15.101  -5.683  0.00  0.00     0.023 A 
ATOM      8  C   UNL d   1      29.785 -15.909  -5.698  0.00  0.00     0.025 A 
ATOM      9  C   UNL d   1      30.893 -15.581  -6.494  0.00  0.00     0.002 A 
ATOM     10  C   UNL d   1      30.860 -14.448  -7.303  0.00  0.00     0.007 A 
ATOM     11  C   UNL d   1      29.736 -13.623  -7.295  0.00  0.00    -0.060 A 
ATOM     12  C   UNL d   1      29.647 -12.414  -8.176  0.00  0.00     0.048 C 
ATOM     13  C   UNL d   1      28.639 -13.953  -6.482  0.00  0.00     0.031 A 
ENDBRANCH   5   7
ENDBRANCH   1   5
BRANCH   2  14
ATOM     14  C   UNL d   1      25.609 -15.906  -2.509  0.00  0.00     0.062 A 
ATOM     15  C   UNL d   1      24.406 -16.403  -1.965  0.00  0.00     0.043 A 
ATOM     16  C   UNL d   1      24.435 -17.230  -0.837  0.00  0.00     0.035 A 
ATOM     17 CL   UNL d   1      22.973 -17.825  -0.148  0.00  0.00    -0.084 Cl
ATOM     18  C   UNL d   1      25.648 -17.579  -0.244  0.00  0.00     0.026 A 
ATOM     19  C   UNL d   1      26.840 -17.093  -0.771  0.00  0.00     0.039 A 
ATOM     20  C   UNL d   1      26.814 -16.250  -1.877  0.00  0.00     0.081 A 
BRANCH  20  21
ATOM     21  O   UNL d   1      28.007 -15.758  -2.316  0.00  0.00    -0.360 OA
ATOM     22  H   UNL d   1      27.905 -15.059  -2.979  0.00  0.00     0.217 HD
ENDBRANCH  20  21
ENDBRANCH   2  14
TORSDOF 4
ENDMDL
MODEL 8
REMARK VINA RESULT:    -6.190      0.856      1.648
REMARK INTER + INTRA:          -9.456
REMARK INTER:                  -7.383
REMARK INTRA:                  -2.073
REMARK CONF_INDEPENDENT:        1.193
REMARK UNBOUND:                -2.073
REMARK  4 active torsions:
REMARK  status: ('A' for Active; 'I' for Inactive)
REMARK    1  A    between atoms: C_6  and  N_7 
REMARK    2  A    between atoms: N_7  and  N_8 
REMARK       I    between atoms: N_8  and  C_9 
REMARK    3  A    between atoms: C_9  and  C_11 
REMARK    4  A    between atoms: C_17  and  O_18 
ROOT
ATOM      1  N   UNL d   1      25.065 -14.828  -3.652  0.00  0.00    -0.187 NA
ATOM      2  C   UNL d   1      25.442 -13.531  -4.002  0.00  0.00     0.247 C 
ATOM      3  O   UNL d   1      24.780 -12.565  -3.609  0.00  0.00    -0.273 OA
ATOM      4  H   UNL d   1      24.161 -14.826  -3.192  0.00  0.00     0.150 HD
ENDROOT
BRANCH   1   5
ATOM      5  N   UNL d   1      26.022 -15.611  -2.902  0.00  0.00    -0.220 NA
ATOM      6  H   UNL d   1      26.462 -16.310  -3.508  0.00  0.00     0.147 HD
BRANCH   5   7
ATOM      7  C   UNL d   1      25.480 -16.282  -1.760  0.00  0.00     0.023 A 
ATOM      8  C   UNL d   1      24.085 -16.433  -1.642  0.00  0.00     0.025 A 
ATOM      9  C   UNL d   1      23.523 -17.255  -0.654  0.00  0.00     0.002 A 
ATOM     10  C   UNL d   1      24.347 -17.956   0.223  0.00  0.00     0.007 A 
ATOM     11  C   UNL d   1      25.731 -17.812   0.138  0.00  0.00    -0.060 A 
ATOM     12  C   UNL d   1      26.655 -18.574   1.040  0.00  0.00     0.048 C 
ATOM     13  C   UNL d   1      26.282 -16.973  -0.846  0.00  0.00     0.031 A 
ENDBRANCH   5   7
ENDBRANCH   1   5
BRANCH   2  14
ATOM     14  C   UNL d   1      26.566 -13.317  -4.975  0.00  0.00     0.062 A 
ATOM     15  C   UNL d   1      26.914 -11.997  -5.327  0.00  0.00     0.043 A 
ATOM     16  C   UNL d   1      27.909 -11.766  -6.283  0.00  0.00     0.035 A 
ATOM     17 CL   UNL d   1      28.329 -10.159  -6.739  0.00  0.00    -0.084 Cl
ATOM     18  C   UNL d   1      28.571 -12.832  -6.890  0.00  0.00     0.026 A 
ATOM     19  C   UNL d   1      28.233 -14.138  -6.553  0.00  0.00     0.039 A 
ATOM     20  C   UNL d   1      27.227 -14.373  -5.621  0.00  0.00     0.081 A 
BRANCH  20  21
ATOM     21  O   UNL d   1      26.899 -15.672  -5.370  0.00  0.00    -0.360 OA
ATOM     22  H   UNL d   1      25.988 -15.775  -5.057  0.00  0.00     0.217 HD
ENDBRANCH  20  21
ENDBRANCH   2  14
TORSDOF 4
ENDMDL
MODEL 9
REMARK VINA RESULT:    -5.932      2.884      6.277
REMARK INTER + INTRA:          -9.178
REMARK INTER:                  -7.125
REMARK INTRA:                  -2.053
REMARK CONF_INDEPENDENT:        1.193
REMARK UNBOUND:                -2.053
REMARK  4 active torsions:
REMARK  status: ('A' for Active; 'I' for Inactive)
REMARK    1  A    between atoms: C_6  and  N_7 
REMARK    2  A    between atoms: N_7  and  N_8 
REMARK       I    between atoms: N_8  and  C_9 
REMARK    3  A    between atoms: C_9  and  C_11 
REMARK    4  A    between atoms: C_17  and  O_18 
ROOT
ATOM      1  N   UNL d   1      25.155 -15.218  -4.748  0.00  0.00    -0.187 NA
ATOM      2  C   UNL d   1      26.447 -15.467  -4.285  0.00  0.00     0.247 C 
ATOM      3  O   UNL d   1      27.386 -15.554  -5.084  0.00  0.00    -0.273 OA
ATOM      4  H   UNL d   1      25.121 -15.268  -5.760  0.00  0.00     0.150 HD
ENDROOT
BRANCH   1   5
ATOM      5  N   UNL d   1      24.506 -14.017  -4.270  0.00  0.00    -0.220 NA
ATOM      6  H   UNL d   1      23.745 -13.749  -4.901  0.00  0.00     0.147 HD
BRANCH   5   7
ATOM      7  C   UNL d   1      25.376 -12.891  -4.110  0.00  0.00     0.023 A 
ATOM      8  C   UNL d   1      25.884 -12.584  -2.833  0.00  0.00     0.025 A 
ATOM      9  C   UNL d   1      26.894 -11.624  -2.664  0.00  0.00     0.002 A 
ATOM     10  C   UNL d   1      27.425 -10.967  -3.772  0.00  0.00     0.007 A 
ATOM     11  C   UNL d   1      26.928 -11.242  -5.045  0.00  0.00    -0.060 A 
ATOM     12  C   UNL d   1      27.495 -10.583  -6.266  0.00  0.00     0.048 C 
ATOM     13  C   UNL d   1      25.906 -12.194  -5.200  0.00  0.00     0.031 A 
ENDBRANCH   5   7
ENDBRANCH   1   5
BRANCH   2  14
ATOM     14  C   UNL d   1      26.675 -15.772  -2.833  0.00  0.00     0.062 A 
ATOM     15  C   UNL d   1      27.988 -16.041  -2.395  0.00  0.00     0.043 A 
ATOM     16  C   UNL d   1      28.224 -16.398  -1.063  0.00  0.00     0.035 A 
ATOM     17 CL   UNL d   1      29.819 -16.751  -0.520  0.00  0.00    -0.084 Cl
ATOM     18  C   UNL d   1      27.170 -16.484  -0.155  0.00  0.00     0.026 A 
ATOM     19  C   UNL d   1      25.871 -16.224  -0.576  0.00  0.00     0.039 A 
ATOM     20  C   UNL d   1      25.628 -15.893  -1.905  0.00  0.00     0.081 A 
BRANCH  20  21
ATOM     21  O   UNL d   1      24.330 -15.704  -2.276  0.00  0.00    -0.360 OA
ATOM     22  H   UNL d   1      24.233 -15.051  -2.984  0.00  0.00     0.217 HD
ENDBRANCH  20  21
ENDBRANCH   2  14
TORSDOF 4
ENDMDL
