MODEL 1
REMARK VINA RESULT:    -8.279      0.000      0.000
REMARK INTER + INTRA:         -10.992
REMARK INTER:                  -9.472
REMARK INTRA:                  -1.520
REMARK CONF_INDEPENDENT:        1.193
REMARK UNBOUND:                -1.520
REMARK  4 active torsions:
REMARK  status: ('A' for Active; 'I' for Inactive)
REMARK    1  A    between atoms: C_4  and  C_5 
REMARK    2  A    between atoms: C_13  and  C_14 
REMARK    3  A    between atoms: N_24  and  C_25 
REMARK    4  A    between atoms: C_30  and  C_31 
ROOT
ATOM      1  C   UNL d   1      29.849 -12.580  -5.431  0.00  0.00     0.063 C 
ATOM      2  C   UNL d   1      29.946 -13.978  -4.628  0.00  0.00     0.004 C 
ATOM      3  C   UNL d   1      28.888 -14.843  -4.522  0.00  0.00    -0.008 C 
ATOM      4  C   UNL d   1      27.384 -14.770  -4.876  0.00  0.00     0.126 C 
ATOM      5  C   UNL d   1      26.726 -15.256  -3.617  0.00  0.00     0.026 C 
ATOM      6  C   UNL d   1      27.403 -16.041  -2.741  0.00  0.00     0.018 C 
ATOM      7  C   UNL d   1      26.867 -16.329  -1.392  0.00  0.00     0.067 C 
ATOM      8  C   UNL d   1      25.498 -15.736  -1.045  0.00  0.00     0.038 C 
ATOM      9  C   UNL d   1      24.783 -14.837  -2.033  0.00  0.00     0.094 C 
ATOM     10  C   UNL d   1      25.394 -14.705  -3.355  0.00  0.00     0.159 C 
ATOM     11  O   UNL d   1      24.780 -14.057  -4.203  0.00  0.00    -0.293 OA
ATOM     12  N   UNL d   1      28.664 -16.613  -3.033  0.00  0.00    -0.371 N 
ATOM     13  C   UNL d   1      29.304 -16.394  -4.342  0.00  0.00     0.210 C 
ATOM     14  N   UNL d   1      30.884 -16.424  -4.503  0.00  0.00    -0.185 NA
ATOM     15  N   UNL d   1      31.178 -14.776  -4.452  0.00  0.00    -0.222 NA
ATOM     16  H   UNL d   1      29.290 -16.878  -2.280  0.00  0.00     0.161 HD
ATOM     17  H   UNL d   1      31.878 -14.506  -5.170  0.00  0.00     0.147 HD
ENDROOT
BRANCH  14  18
ATOM     18  C   UNL d   1      31.305 -17.055  -5.878  0.00  0.00     0.045 C 
ATOM     19  C   UNL d   1      32.036 -16.632  -7.013  0.00  0.00     0.026 C 
ATOM     20  C   UNL d   1      31.989 -17.478  -8.227  0.00  0.00     0.002 C 
ATOM     21  C   UNL d   1      31.362 -18.741  -8.299  0.00  0.00     0.001 C 
ATOM     22  C   UNL d   1      30.780 -19.190  -7.181  0.00  0.00     0.020 C 
ATOM     23  C   UNL d   1      30.819 -18.355  -6.072  0.00  0.00     0.063 C 
BRANCH  23  24
ATOM     24  C   UNL d   1      30.787 -19.214  -4.951  0.00  0.00     0.211 C 
ATOM     25  O   UNL d   1      30.028 -20.196  -4.983  0.00  0.00    -0.644 OA
ATOM     26  O   UNL d   1      31.722 -18.947  -4.100  0.00  0.00    -0.644 OA
ENDBRANCH  23  24
ENDBRANCH  14  18
BRANCH   4  27
ATOM     27  C   UNL d   1      26.952 -13.365  -5.331  0.00  0.00     0.094 C 
ATOM     28  N   UNL d   1      27.165 -12.752  -6.522  0.00  0.00    -0.354 N 
ATOM     29  C   UNL d   1      26.991 -11.379  -6.398  0.00  0.00     0.106 C 
ATOM     30  H   UNL d   1      27.762 -13.214  -7.219  0.00  0.00     0.166 HD
ATOM     31  C   UNL d   1      26.485 -11.160  -5.151  0.00  0.00     0.106 C 
ATOM     32  N   UNL d   1      26.514 -12.369  -4.526  0.00  0.00    -0.354 N 
ATOM     33  H   UNL d   1      26.246 -12.547  -3.568  0.00  0.00     0.166 HD
ENDBRANCH   4  27
BRANCH   8  34
ATOM     34  C   UNL d   1      24.577 -16.888  -0.812  0.00  0.00    -0.013 A 
ATOM     35  C   UNL d   1      24.950 -18.187  -0.519  0.00  0.00     0.015 A 
ATOM     36  C   UNL d   1      23.824 -19.018  -0.337  0.00  0.00     0.008 A 
ATOM     37  C   UNL d   1      22.648 -18.324  -0.507  0.00  0.00     0.050 A 
ATOM     38  S   UNL d   1      22.895 -16.682  -0.895  0.00  0.00    -0.106 SA
ENDBRANCH   8  34
TORSDOF 4
ENDMDL
MODEL 2
REMARK VINA RESULT:    -7.813      4.777      8.222
REMARK INTER + INTRA:         -10.692
REMARK INTER:                  -9.006
REMARK INTRA:                  -1.686
REMARK CONF_INDEPENDENT:        1.193
REMARK UNBOUND:                -1.686
REMARK  4 active torsions:
REMARK  status: ('A' for Active; 'I' for Inactive)
REMARK    1  A    between atoms: C_4  and  C_5 
REMARK    2  A    between atoms: C_13  and  C_14 
REMARK    3  A    between atoms: N_24  and  C_25 
REMARK    4  A    between atoms: C_30  and  C_31 
ROOT
ATOM      1  C   UNL d   1      27.531 -17.588   0.282  0.00  0.00     0.063 C 
ATOM      2  C   UNL d   1      28.170 -16.123   0.048  0.00  0.00     0.004 C 
ATOM      3  C   UNL d   1      27.415 -15.039  -0.318  0.00  0.00    -0.008 C 
ATOM      4  C   UNL d   1      25.952 -14.837  -0.778  0.00  0.00     0.126 C 
ATOM      5  C   UNL d   1      26.109 -13.991  -2.009  0.00  0.00     0.026 C 
ATOM      6  C   UNL d   1      27.217 -13.230  -2.189  0.00  0.00     0.018 C 
ATOM      7  C   UNL d   1      27.505 -12.584  -3.490  0.00  0.00     0.067 C 
ATOM      8  C   UNL d   1      26.475 -12.781  -4.607  0.00  0.00     0.038 C 
ATOM      9  C   UNL d   1      25.264 -13.664  -4.384  0.00  0.00     0.094 C 
ATOM     10  C   UNL d   1      25.070 -14.172  -3.026  0.00  0.00     0.159 C 
ATOM     11  O   UNL d   1      24.042 -14.811  -2.800  0.00  0.00    -0.293 OA
ATOM     12  N   UNL d   1      28.182 -13.020  -1.176  0.00  0.00    -0.371 N 
ATOM     13  C   UNL d   1      28.011 -13.615   0.161  0.00  0.00     0.210 C 
ATOM     14  N   UNL d   1      29.262 -13.970   1.072  0.00  0.00    -0.185 NA
ATOM     15  N   UNL d   1      29.379 -15.603   0.721  0.00  0.00    -0.222 NA
ATOM     16  H   UNL d   1      29.133 -12.767  -1.422  0.00  0.00     0.161 HD
ATOM     17  H   UNL d   1      29.565 -16.152   1.583  0.00  0.00     0.147 HD
ENDROOT
BRANCH  14  18
ATOM     18  C   UNL d   1      28.952 -13.715   2.590  0.00  0.00     0.045 C 
ATOM     19  C   UNL d   1      29.074 -14.450   3.793  0.00  0.00     0.026 C 
ATOM     20  C   UNL d   1      28.419 -13.911   5.008  0.00  0.00     0.002 C 
ATOM     21  C   UNL d   1      27.780 -12.655   5.083  0.00  0.00     0.001 C 
ATOM     22  C   UNL d   1      27.780 -11.911   3.971  0.00  0.00     0.020 C 
ATOM     23  C   UNL d   1      28.377 -12.463   2.844  0.00  0.00     0.063 C 
BRANCH  23  24
ATOM     24  C   UNL d   1      28.844 -11.364   2.088  0.00  0.00     0.211 C 
ATOM     25  O   UNL d   1      28.024 -10.717   1.419  0.00  0.00    -0.644 OA
ATOM     26  O   UNL d   1      30.073 -11.069   2.359  0.00  0.00    -0.644 OA
ENDBRANCH  23  24
ENDBRANCH  14  18
BRANCH   4  27
ATOM     27  C   UNL d   1      25.214 -16.169  -0.996  0.00  0.00     0.094 C 
ATOM     28  N   UNL d   1      25.088 -16.898  -2.132  0.00  0.00    -0.354 N 
ATOM     29  C   UNL d   1      24.030 -17.792  -2.020  0.00  0.00     0.106 C 
ATOM     30  H   UNL d   1      25.446 -16.510  -3.014  0.00  0.00     0.166 HD
ATOM     31  C   UNL d   1      23.610 -17.739  -0.724  0.00  0.00     0.106 C 
ATOM     32  N   UNL d   1      24.316 -16.726  -0.151  0.00  0.00    -0.354 N 
ATOM     33  H   UNL d   1      24.212 -16.395   0.799  0.00  0.00     0.166 HD
ENDBRANCH   4  27
BRANCH   8  34
ATOM     34  C   UNL d   1      25.930 -11.429  -4.933  0.00  0.00    -0.013 A 
ATOM     35  C   UNL d   1      25.695 -10.926  -6.200  0.00  0.00     0.015 A 
ATOM     36  C   UNL d   1      25.155  -9.624  -6.145  0.00  0.00     0.008 A 
ATOM     37  C   UNL d   1      25.013  -9.188  -4.848  0.00  0.00     0.050 A 
ATOM     38  S   UNL d   1      25.535 -10.335  -3.699  0.00  0.00    -0.106 SA
ENDBRANCH   8  34
TORSDOF 4
ENDMDL
MODEL 3
REMARK VINA RESULT:    -7.411      2.717      7.834
REMARK INTER + INTRA:         -10.198
REMARK INTER:                  -8.605
REMARK INTRA:                  -1.594
REMARK CONF_INDEPENDENT:        1.193
REMARK UNBOUND:                -1.594
REMARK  4 active torsions:
REMARK  status: ('A' for Active; 'I' for Inactive)
REMARK    1  A    between atoms: C_4  and  C_5 
REMARK    2  A    between atoms: C_13  and  C_14 
REMARK    3  A    between atoms: N_24  and  C_25 
REMARK    4  A    between atoms: C_30  and  C_31 
ROOT
ATOM      1  C   UNL d   1      31.034 -18.833  -1.754  0.00  0.00     0.063 C 
ATOM      2  C   UNL d   1      30.270 -17.413  -1.853  0.00  0.00     0.004 C 
ATOM      3  C   UNL d   1      29.671 -16.976  -3.006  0.00  0.00    -0.008 C 
ATOM      4  C   UNL d   1      29.655 -17.461  -4.475  0.00  0.00     0.126 C 
ATOM      5  C   UNL d   1      29.958 -16.204  -5.239  0.00  0.00     0.026 C 
ATOM      6  C   UNL d   1      29.708 -14.987  -4.695  0.00  0.00     0.018 C 
ATOM      7  C   UNL d   1      30.217 -13.745  -5.320  0.00  0.00     0.067 C 
ATOM      8  C   UNL d   1      31.001 -13.895  -6.628  0.00  0.00     0.038 C 
ATOM      9  C   UNL d   1      31.291 -15.272  -7.191  0.00  0.00     0.094 C 
ATOM     10  C   UNL d   1      30.659 -16.401  -6.510  0.00  0.00     0.159 C 
ATOM     11  O   UNL d   1      30.803 -17.517  -7.008  0.00  0.00    -0.293 OA
ATOM     12  N   UNL d   1      28.979 -14.813  -3.495  0.00  0.00    -0.371 N 
ATOM     13  C   UNL d   1      28.425 -15.973  -2.776  0.00  0.00     0.210 C 
ATOM     14  N   UNL d   1      28.200 -15.939  -1.204  0.00  0.00    -0.185 NA
ATOM     15  N   UNL d   1      29.599 -16.727  -0.728  0.00  0.00    -0.222 NA
ATOM     16  H   UNL d   1      29.108 -13.975  -2.937  0.00  0.00     0.161 HD
ATOM     17  H   UNL d   1      29.397 -17.408   0.029  0.00  0.00     0.147 HD
ENDROOT
BRANCH  14  18
ATOM     18  C   UNL d   1      26.909 -16.733  -0.796  0.00  0.00     0.045 C 
ATOM     19  C   UNL d   1      26.570 -17.695   0.186  0.00  0.00     0.026 C 
ATOM     20  C   UNL d   1      25.265 -18.384   0.064  0.00  0.00     0.002 C 
ATOM     21  C   UNL d   1      24.279 -18.069  -0.895  0.00  0.00     0.001 C 
ATOM     22  C   UNL d   1      24.558 -17.071  -1.741  0.00  0.00     0.020 C 
ATOM     23  C   UNL d   1      25.803 -16.468  -1.616  0.00  0.00     0.063 C 
BRANCH  23  24
ATOM     24  C   UNL d   1      25.628 -15.141  -2.067  0.00  0.00     0.211 C 
ATOM     25  O   UNL d   1      26.090 -14.218  -1.378  0.00  0.00    -0.644 OA
ATOM     26  O   UNL d   1      25.155 -15.089  -3.268  0.00  0.00    -0.644 OA
ENDBRANCH  23  24
ENDBRANCH  14  18
BRANCH   4  27
ATOM     27  C   UNL d   1      30.633 -18.622  -4.723  0.00  0.00     0.094 C 
ATOM     28  N   UNL d   1      31.936 -18.575  -5.096  0.00  0.00    -0.354 N 
ATOM     29  C   UNL d   1      32.339 -19.804  -5.605  0.00  0.00     0.106 C 
ATOM     30  H   UNL d   1      32.350 -17.667  -5.339  0.00  0.00     0.166 HD
ATOM     31  C   UNL d   1      31.317 -20.676  -5.374  0.00  0.00     0.106 C 
ATOM     32  N   UNL d   1      30.296 -19.924  -4.881  0.00  0.00    -0.354 N 
ATOM     33  H   UNL d   1      29.372 -20.260  -4.645  0.00  0.00     0.166 HD
ENDBRANCH   4  27
BRANCH   8  34
ATOM     34  C   UNL d   1      30.218 -13.187  -7.683  0.00  0.00    -0.013 A 
ATOM     35  C   UNL d   1      30.733 -12.575  -8.812  0.00  0.00     0.015 A 
ATOM     36  C   UNL d   1      29.709 -12.021  -9.610  0.00  0.00     0.008 A 
ATOM     37  C   UNL d   1      28.467 -12.224  -9.054  0.00  0.00     0.050 A 
ATOM     38  S   UNL d   1      28.530 -13.068  -7.574  0.00  0.00    -0.106 SA
ENDBRANCH   8  34
TORSDOF 4
ENDMDL
MODEL 4
REMARK VINA RESULT:    -7.251      2.036      2.723
REMARK INTER + INTRA:         -10.792
REMARK INTER:                  -8.444
REMARK INTRA:                  -2.348
REMARK CONF_INDEPENDENT:        1.193
REMARK UNBOUND:                -2.348
REMARK  4 active torsions:
REMARK  status: ('A' for Active; 'I' for Inactive)
REMARK    1  A    between atoms: C_4  and  C_5 
REMARK    2  A    between atoms: C_13  and  C_14 
REMARK    3  A    between atoms: N_24  and  C_25 
REMARK    4  A    between atoms: C_30  and  C_31 
ROOT
ATOM      1  C   UNL d   1      31.379 -13.692  -7.481  0.00  0.00     0.063 C 
ATOM      2  C   UNL d   1      31.358 -14.995  -6.527  0.00  0.00     0.004 C 
ATOM      3  C   UNL d   1      30.193 -15.585  -6.108  0.00  0.00    -0.008 C 
ATOM      4  C   UNL d   1      28.695 -15.206  -6.182  0.00  0.00     0.126 C 
ATOM      5  C   UNL d   1      28.235 -15.412  -4.768  0.00  0.00     0.026 C 
ATOM      6  C   UNL d   1      28.908 -16.245  -3.935  0.00  0.00     0.018 C 
ATOM      7  C   UNL d   1      28.623 -16.279  -2.483  0.00  0.00     0.067 C 
ATOM      8  C   UNL d   1      27.507 -15.362  -1.972  0.00  0.00     0.038 C 
ATOM      9  C   UNL d   1      26.797 -14.419  -2.922  0.00  0.00     0.094 C 
ATOM     10  C   UNL d   1      27.128 -14.552  -4.340  0.00  0.00     0.159 C 
ATOM     11  O   UNL d   1      26.493 -13.864  -5.139  0.00  0.00    -0.293 OA
ATOM     12  N   UNL d   1      29.936 -17.112  -4.376  0.00  0.00    -0.371 N 
ATOM     13  C   UNL d   1      30.315 -17.166  -5.799  0.00  0.00     0.210 C 
ATOM     14  N   UNL d   1      31.785 -17.568  -6.246  0.00  0.00    -0.185 NA
ATOM     15  N   UNL d   1      32.411 -16.031  -6.476  0.00  0.00    -0.222 NA
ATOM     16  H   UNL d   1      30.640 -17.441  -3.724  0.00  0.00     0.161 HD
ATOM     17  H   UNL d   1      32.983 -15.994  -7.342  0.00  0.00     0.147 HD
ENDROOT
BRANCH  14  18
ATOM     18  C   UNL d   1      31.769 -18.402  -7.575  0.00  0.00     0.045 C 
ATOM     19  C   UNL d   1      30.780 -18.999  -8.393  0.00  0.00     0.026 C 
ATOM     20  C   UNL d   1      31.225 -19.928  -9.458  0.00  0.00     0.002 C 
ATOM     21  C   UNL d   1      32.573 -20.171  -9.797  0.00  0.00     0.001 C 
ATOM     22  C   UNL d   1      33.500 -19.504  -9.100  0.00  0.00     0.020 C 
ATOM     23  C   UNL d   1      33.046 -18.665  -8.089  0.00  0.00     0.063 C 
BRANCH  23  24
ATOM     24  C   UNL d   1      34.017 -17.645  -7.980  0.00  0.00     0.211 C 
ATOM     25  O   UNL d   1      34.157 -16.861  -8.932  0.00  0.00    -0.644 OA
ATOM     26  O   UNL d   1      34.508 -17.560  -6.788  0.00  0.00    -0.644 OA
ENDBRANCH  23  24
ENDBRANCH  14  18
BRANCH   4  27
ATOM     27  C   UNL d   1      28.471 -13.789  -6.737  0.00  0.00     0.094 C 
ATOM     28  N   UNL d   1      28.531 -13.357  -8.020  0.00  0.00    -0.354 N 
ATOM     29  C   UNL d   1      28.676 -11.975  -8.060  0.00  0.00     0.106 C 
ATOM     30  H   UNL d   1      28.846 -14.008  -8.750  0.00  0.00     0.166 HD
ATOM     31  C   UNL d   1      28.522 -11.529  -6.781  0.00  0.00     0.106 C 
ATOM     32  N   UNL d   1      28.441 -12.648  -6.010  0.00  0.00    -0.354 N 
ATOM     33  H   UNL d   1      28.366 -12.668  -5.002  0.00  0.00     0.166 HD
ENDBRANCH   4  27
BRANCH   8  34
ATOM     34  C   UNL d   1      26.442 -16.248  -1.416  0.00  0.00    -0.013 A 
ATOM     35  C   UNL d   1      26.598 -17.178  -0.404  0.00  0.00     0.015 A 
ATOM     36  C   UNL d   1      25.381 -17.828  -0.109  0.00  0.00     0.008 A 
ATOM     37  C   UNL d   1      24.358 -17.376  -0.910  0.00  0.00     0.050 A 
ATOM     38  S   UNL d   1      24.859 -16.183  -2.020  0.00  0.00    -0.106 SA
ENDBRANCH   8  34
TORSDOF 4
ENDMDL
MODEL 5
REMARK VINA RESULT:    -7.175      5.298      7.913
REMARK INTER + INTRA:         -10.754
REMARK INTER:                  -8.368
REMARK INTRA:                  -2.386
REMARK CONF_INDEPENDENT:        1.193
REMARK UNBOUND:                -2.386
REMARK  4 active torsions:
REMARK  status: ('A' for Active; 'I' for Inactive)
REMARK    1  A    between atoms: C_4  and  C_5 
REMARK    2  A    between atoms: C_13  and  C_14 
REMARK    3  A    between atoms: N_24  and  C_25 
REMARK    4  A    between atoms: C_30  and  C_31 
ROOT
ATOM      1  C   UNL d   1      29.449 -16.805  -1.595  0.00  0.00     0.063 C 
ATOM      2  C   UNL d   1      28.266 -15.954  -0.897  0.00  0.00     0.004 C 
ATOM      3  C   UNL d   1      28.513 -14.928  -0.022  0.00  0.00    -0.008 C 
ATOM      4  C   UNL d   1      29.774 -14.387   0.693  0.00  0.00     0.126 C 
ATOM      5  C   UNL d   1      29.320 -14.277   2.120  0.00  0.00     0.026 C 
ATOM      6  C   UNL d   1      28.003 -14.161   2.420  0.00  0.00     0.018 C 
ATOM      7  C   UNL d   1      27.515 -14.295   3.811  0.00  0.00     0.067 C 
ATOM      8  C   UNL d   1      28.569 -14.527   4.899  0.00  0.00     0.038 C 
ATOM      9  C   UNL d   1      30.029 -14.684   4.526  0.00  0.00     0.094 C 
ATOM     10  C   UNL d   1      30.373 -14.450   3.125  0.00  0.00     0.159 C 
ATOM     11  O   UNL d   1      31.565 -14.477   2.820  0.00  0.00    -0.293 OA
ATOM     12  N   UNL d   1      27.005 -13.937   1.442  0.00  0.00    -0.371 N 
ATOM     13  C   UNL d   1      27.365 -13.791   0.020  0.00  0.00     0.210 C 
ATOM     14  N   UNL d   1      26.346 -14.184  -1.133  0.00  0.00    -0.185 NA
ATOM     15  N   UNL d   1      26.929 -15.715  -1.480  0.00  0.00    -0.222 NA
ATOM     16  H   UNL d   1      26.043 -14.205   1.623  0.00  0.00     0.161 HD
ATOM     17  H   UNL d   1      26.961 -15.871  -2.507  0.00  0.00     0.147 HD
ENDROOT
BRANCH  14  18
ATOM     18  C   UNL d   1      26.472 -13.213  -2.360  0.00  0.00     0.045 C 
ATOM     19  C   UNL d   1      27.158 -12.007  -2.640  0.00  0.00     0.026 C 
ATOM     20  C   UNL d   1      26.800 -11.274  -3.876  0.00  0.00     0.002 C 
ATOM     21  C   UNL d   1      25.905 -11.749  -4.859  0.00  0.00     0.001 C 
ATOM     22  C   UNL d   1      25.357 -12.950  -4.645  0.00  0.00     0.020 C 
ATOM     23  C   UNL d   1      25.694 -13.595  -3.461  0.00  0.00     0.063 C 
BRANCH  23  24
ATOM     24  C   UNL d   1      25.588 -14.975  -3.740  0.00  0.00     0.211 C 
ATOM     25  O   UNL d   1      26.375 -15.472  -4.561  0.00  0.00    -0.644 OA
ATOM     26  O   UNL d   1      24.780 -15.579  -2.932  0.00  0.00    -0.644 OA
ENDBRANCH  23  24
ENDBRANCH  14  18
BRANCH   4  27
ATOM     27  C   UNL d   1      31.006 -15.282   0.472  0.00  0.00     0.094 C 
ATOM     28  N   UNL d   1      31.446 -16.326   1.216  0.00  0.00    -0.354 N 
ATOM     29  C   UNL d   1      32.779 -16.597   0.931  0.00  0.00     0.106 C 
ATOM     30  H   UNL d   1      30.975 -16.537   2.105  0.00  0.00     0.166 HD
ATOM     31  C   UNL d   1      33.115 -15.823  -0.140  0.00  0.00     0.106 C 
ATOM     32  N   UNL d   1      32.039 -15.018  -0.362  0.00  0.00    -0.354 N 
ATOM     33  H   UNL d   1      31.978 -14.291  -1.062  0.00  0.00     0.166 HD
ENDBRANCH   4  27
BRANCH   8  34
ATOM     34  C   UNL d   1      28.512 -13.347   5.811  0.00  0.00    -0.013 A 
ATOM     35  C   UNL d   1      28.156 -12.057   5.460  0.00  0.00     0.015 A 
ATOM     36  C   UNL d   1      28.186 -11.192   6.574  0.00  0.00     0.008 A 
ATOM     37  C   UNL d   1      28.572 -11.852   7.718  0.00  0.00     0.050 A 
ATOM     38  S   UNL d   1      28.905 -13.504   7.454  0.00  0.00    -0.106 SA
ENDBRANCH   8  34
TORSDOF 4
ENDMDL
MODEL 6
REMARK VINA RESULT:    -7.047      4.361      6.624
REMARK INTER + INTRA:         -10.503
REMARK INTER:                  -8.240
REMARK INTRA:                  -2.263
REMARK CONF_INDEPENDENT:        1.193
REMARK UNBOUND:                -2.263
REMARK  4 active torsions:
REMARK  status: ('A' for Active; 'I' for Inactive)
REMARK    1  A    between atoms: C_4  and  C_5 
REMARK    2  A    between atoms: C_13  and  C_14 
REMARK    3  A    between atoms: N_24  and  C_25 
REMARK    4  A    between atoms: C_30  and  C_31 
ROOT
ATOM      1  C   UNL d   1      29.744 -12.085  -2.614  0.00  0.00     0.063 C 
ATOM      2  C   UNL d   1      28.417 -12.614  -3.369  0.00  0.00     0.004 C 
ATOM      3  C   UNL d   1      27.296 -13.022  -2.694  0.00  0.00    -0.008 C 
ATOM      4  C   UNL d   1      26.961 -13.295  -1.208  0.00  0.00     0.126 C 
ATOM      5  C   UNL d   1      26.303 -14.644  -1.263  0.00  0.00     0.026 C 
ATOM      6  C   UNL d   1      25.724 -15.085  -2.408  0.00  0.00     0.018 C 
ATOM      7  C   UNL d   1      25.289 -16.492  -2.558  0.00  0.00     0.067 C 
ATOM      8  C   UNL d   1      25.485 -17.414  -1.350  0.00  0.00     0.038 C 
ATOM      9  C   UNL d   1      26.165 -16.898  -0.098  0.00  0.00     0.094 C 
ATOM     10  C   UNL d   1      26.469 -15.468  -0.064  0.00  0.00     0.159 C 
ATOM     11  O   UNL d   1      26.933 -15.011   0.981  0.00  0.00    -0.293 OA
ATOM     12  N   UNL d   1      25.520 -14.258  -3.537  0.00  0.00    -0.371 N 
ATOM     13  C   UNL d   1      25.916 -12.839  -3.513  0.00  0.00     0.210 C 
ATOM     14  N   UNL d   1      26.317 -12.072  -4.844  0.00  0.00    -0.185 NA
ATOM     15  N   UNL d   1      27.983 -12.199  -4.720  0.00  0.00    -0.222 NA
ATOM     16  H   UNL d   1      25.428 -14.670  -4.461  0.00  0.00     0.161 HD
ATOM     17  H   UNL d   1      28.439 -11.302  -4.976  0.00  0.00     0.147 HD
ENDROOT
BRANCH  14  18
ATOM     18  C   UNL d   1      25.837 -10.578  -4.808  0.00  0.00     0.045 C 
ATOM     19  C   UNL d   1      25.435  -9.660  -3.808  0.00  0.00     0.026 C 
ATOM     20  C   UNL d   1      24.810  -8.389  -4.241  0.00  0.00     0.002 C 
ATOM     21  C   UNL d   1      24.691  -7.971  -5.585  0.00  0.00     0.001 C 
ATOM     22  C   UNL d   1      25.189  -8.791  -6.517  0.00  0.00     0.020 C 
ATOM     23  C   UNL d   1      25.741  -9.987  -6.075  0.00  0.00     0.063 C 
BRANCH  23  24
ATOM     24  C   UNL d   1      26.726 -10.324  -7.029  0.00  0.00     0.211 C 
ATOM     25  O   UNL d   1      27.917 -10.123  -6.743  0.00  0.00    -0.644 OA
ATOM     26  O   UNL d   1      26.239 -10.989  -8.025  0.00  0.00    -0.644 OA
ENDBRANCH  23  24
ENDBRANCH  14  18
BRANCH   4  27
ATOM     27  C   UNL d   1      28.200 -13.214  -0.299  0.00  0.00     0.094 C 
ATOM     28  N   UNL d   1      29.061 -14.199   0.057  0.00  0.00    -0.354 N 
ATOM     29  C   UNL d   1      29.780 -13.828   1.187  0.00  0.00     0.106 C 
ATOM     30  H   UNL d   1      28.855 -15.165  -0.224  0.00  0.00     0.166 HD
ATOM     31  C   UNL d   1      29.486 -12.518   1.424  0.00  0.00     0.106 C 
ATOM     32  N   UNL d   1      28.504 -12.195   0.538  0.00  0.00    -0.354 N 
ATOM     33  H   UNL d   1      28.030 -11.305   0.477  0.00  0.00     0.166 HD
ENDBRANCH   4  27
BRANCH   8  34
ATOM     34  C   UNL d   1      24.124 -17.849  -0.917  0.00  0.00    -0.013 A 
ATOM     35  C   UNL d   1      23.764 -19.122  -0.510  0.00  0.00     0.015 A 
ATOM     36  C   UNL d   1      22.402 -19.180  -0.146  0.00  0.00     0.008 A 
ATOM     37  C   UNL d   1      21.783 -17.961  -0.301  0.00  0.00     0.050 A 
ATOM     38  S   UNL d   1      22.832 -16.752  -0.890  0.00  0.00    -0.106 SA
ENDBRANCH   8  34
TORSDOF 4
ENDMDL
MODEL 7
REMARK VINA RESULT:    -6.916      7.480     10.392
REMARK INTER + INTRA:         -10.466
REMARK INTER:                  -8.110
REMARK INTRA:                  -2.357
REMARK CONF_INDEPENDENT:        1.193
REMARK UNBOUND:                -2.357
REMARK  4 active torsions:
REMARK  status: ('A' for Active; 'I' for Inactive)
REMARK    1  A    between atoms: C_4  and  C_5 
REMARK    2  A    between atoms: C_13  and  C_14 
REMARK    3  A    between atoms: N_24  and  C_25 
REMARK    4  A    between atoms: C_30  and  C_31 
ROOT
ATOM      1  C   UNL d   1      31.877 -11.763   3.555  0.00  0.00     0.063 C 
ATOM      2  C   UNL d   1      30.291 -11.973   3.777  0.00  0.00     0.004 C 
ATOM      3  C   UNL d   1      29.652 -13.148   3.477  0.00  0.00    -0.008 C 
ATOM      4  C   UNL d   1      30.057 -14.449   2.746  0.00  0.00     0.126 C 
ATOM      5  C   UNL d   1      28.923 -14.651   1.782  0.00  0.00     0.026 C 
ATOM      6  C   UNL d   1      27.708 -14.098   2.019  0.00  0.00     0.018 C 
ATOM      7  C   UNL d   1      26.655 -14.077   0.979  0.00  0.00     0.067 C 
ATOM      8  C   UNL d   1      26.987 -14.743  -0.361  0.00  0.00     0.038 C 
ATOM      9  C   UNL d   1      28.365 -15.322  -0.605  0.00  0.00     0.094 C 
ATOM     10  C   UNL d   1      29.276 -15.342   0.539  0.00  0.00     0.159 C 
ATOM     11  O   UNL d   1      30.365 -15.896   0.389  0.00  0.00    -0.293 OA
ATOM     12  N   UNL d   1      27.365 -13.485   3.247  0.00  0.00    -0.371 N 
ATOM     13  C   UNL d   1      28.330 -13.437   4.360  0.00  0.00     0.210 C 
ATOM     14  N   UNL d   1      28.286 -12.275   5.441  0.00  0.00    -0.185 NA
ATOM     15  N   UNL d   1      29.475 -11.285   4.800  0.00  0.00    -0.222 NA
ATOM     16  H   UNL d   1      26.625 -12.790   3.282  0.00  0.00     0.161 HD
ATOM     17  H   UNL d   1      30.091 -10.917   5.552  0.00  0.00     0.147 HD
ENDROOT
BRANCH  14  18
ATOM     18  C   UNL d   1      28.670 -12.808   6.867  0.00  0.00     0.045 C 
ATOM     19  C   UNL d   1      28.905 -14.075   7.453  0.00  0.00     0.026 C 
ATOM     20  C   UNL d   1      29.005 -14.151   8.929  0.00  0.00     0.002 C 
ATOM     21  C   UNL d   1      29.002 -13.034   9.791  0.00  0.00     0.001 C 
ATOM     22  C   UNL d   1      28.906 -11.829   9.216  0.00  0.00     0.020 C 
ATOM     23  C   UNL d   1      28.783 -11.799   7.832  0.00  0.00     0.063 C 
BRANCH  23  24
ATOM     24  C   UNL d   1      29.351 -10.570   7.430  0.00  0.00     0.211 C 
ATOM     25  O   UNL d   1      30.566 -10.395   7.613  0.00  0.00    -0.644 OA
ATOM     26  O   UNL d   1      28.530  -9.853   6.736  0.00  0.00    -0.644 OA
ENDBRANCH  23  24
ENDBRANCH  14  18
BRANCH   4  27
ATOM     27  C   UNL d   1      31.449 -14.354   2.098  0.00  0.00     0.094 C 
ATOM     28  N   UNL d   1      32.669 -14.448   2.681  0.00  0.00    -0.354 N 
ATOM     29  C   UNL d   1      33.646 -13.908   1.852  0.00  0.00     0.106 C 
ATOM     30  H   UNL d   1      32.728 -14.508   3.705  0.00  0.00     0.166 HD
ATOM     31  C   UNL d   1      33.041 -13.640   0.660  0.00  0.00     0.106 C 
ATOM     32  N   UNL d   1      31.717 -13.882   0.858  0.00  0.00    -0.354 N 
ATOM     33  H   UNL d   1      30.981 -13.740   0.179  0.00  0.00     0.166 HD
ENDBRANCH   4  27
BRANCH   8  34
ATOM     34  C   UNL d   1      26.038 -15.885  -0.520  0.00  0.00    -0.013 A 
ATOM     35  C   UNL d   1      24.870 -15.880  -1.260  0.00  0.00     0.015 A 
ATOM     36  C   UNL d   1      24.225 -17.134  -1.213  0.00  0.00     0.008 A 
ATOM     37  C   UNL d   1      24.919 -18.033  -0.436  0.00  0.00     0.050 A 
ATOM     38  S   UNL d   1      26.336 -17.370   0.243  0.00  0.00    -0.106 SA
ENDBRANCH   8  34
TORSDOF 4
ENDMDL
MODEL 8
REMARK VINA RESULT:    -6.910      8.378     11.338
REMARK INTER + INTRA:         -10.167
REMARK INTER:                  -8.103
REMARK INTRA:                  -2.065
REMARK CONF_INDEPENDENT:        1.193
REMARK UNBOUND:                -2.065
REMARK  4 active torsions:
REMARK  status: ('A' for Active; 'I' for Inactive)
REMARK    1  A    between atoms: C_4  and  C_5 
REMARK    2  A    between atoms: C_13  and  C_14 
REMARK    3  A    between atoms: N_24  and  C_25 
REMARK    4  A    between atoms: C_30  and  C_31 
ROOT
ATOM      1  C   UNL d   1      27.035 -11.962   0.490  0.00  0.00     0.063 C 
ATOM      2  C   UNL d   1      27.004 -11.182   1.904  0.00  0.00     0.004 C 
ATOM      3  C   UNL d   1      27.996 -11.312   2.841  0.00  0.00    -0.008 C 
ATOM      4  C   UNL d   1      29.223 -12.239   3.003  0.00  0.00     0.126 C 
ATOM      5  C   UNL d   1      29.084 -12.723   4.418  0.00  0.00     0.026 C 
ATOM      6  C   UNL d   1      28.375 -12.008   5.327  0.00  0.00     0.018 C 
ATOM      7  C   UNL d   1      28.021 -12.576   6.647  0.00  0.00     0.067 C 
ATOM      8  C   UNL d   1      28.526 -13.990   6.955  0.00  0.00     0.038 C 
ATOM      9  C   UNL d   1      29.287 -14.774   5.905  0.00  0.00     0.094 C 
ATOM     10  C   UNL d   1      29.631 -14.057   4.679  0.00  0.00     0.159 C 
ATOM     11  O   UNL d   1      30.332 -14.645   3.854  0.00  0.00    -0.293 OA
ATOM     12  N   UNL d   1      27.903 -10.698   5.079  0.00  0.00    -0.371 N 
ATOM     13  C   UNL d   1      28.186 -10.025   3.799  0.00  0.00     0.210 C 
ATOM     14  N   UNL d   1      27.208  -8.919   3.214  0.00  0.00    -0.185 NA
ATOM     15  N   UNL d   1      26.348  -9.879   2.144  0.00  0.00    -0.222 NA
ATOM     16  H   UNL d   1      27.107 -10.336   5.595  0.00  0.00     0.161 HD
ATOM     17  H   UNL d   1      26.207  -9.385   1.241  0.00  0.00     0.147 HD
ENDROOT
BRANCH  14  18
ATOM     18  C   UNL d   1      28.005  -7.785   2.478  0.00  0.00     0.045 C 
ATOM     19  C   UNL d   1      29.299  -7.644   1.921  0.00  0.00     0.026 C 
ATOM     20  C   UNL d   1      29.743  -6.287   1.527  0.00  0.00     0.002 C 
ATOM     21  C   UNL d   1      28.926  -5.136   1.557  0.00  0.00     0.001 C 
ATOM     22  C   UNL d   1      27.663  -5.304   1.967  0.00  0.00     0.020 C 
ATOM     23  C   UNL d   1      27.292  -6.585   2.356  0.00  0.00     0.063 C 
BRANCH  23  24
ATOM     24  C   UNL d   1      25.907  -6.672   2.096  0.00  0.00     0.211 C 
ATOM     25  O   UNL d   1      25.496  -7.613   1.399  0.00  0.00    -0.644 OA
ATOM     26  O   UNL d   1      25.221  -5.833   2.800  0.00  0.00    -0.644 OA
ENDBRANCH  23  24
ENDBRANCH  14  18
BRANCH   4  27
ATOM     27  C   UNL d   1      29.268 -13.350   1.940  0.00  0.00     0.094 C 
ATOM     28  N   UNL d   1      29.643 -13.270   0.640  0.00  0.00    -0.354 N 
ATOM     29  C   UNL d   1      29.161 -14.363  -0.072  0.00  0.00     0.106 C 
ATOM     30  H   UNL d   1      29.855 -12.349   0.239  0.00  0.00     0.166 HD
ATOM     31  C   UNL d   1      28.633 -15.223   0.845  0.00  0.00     0.106 C 
ATOM     32  N   UNL d   1      28.678 -14.564   2.035  0.00  0.00    -0.354 N 
ATOM     33  H   UNL d   1      28.322 -14.909   2.917  0.00  0.00     0.166 HD
ENDBRANCH   4  27
BRANCH   8  34
ATOM     34  C   UNL d   1      29.454 -13.871   8.118  0.00  0.00    -0.013 A 
ATOM     35  C   UNL d   1      30.785 -14.250   8.145  0.00  0.00     0.015 A 
ATOM     36  C   UNL d   1      31.373 -13.976   9.398  0.00  0.00     0.008 A 
ATOM     37  C   UNL d   1      30.470 -13.414  10.270  0.00  0.00     0.050 A 
ATOM     38  S   UNL d   1      28.918 -13.224   9.591  0.00  0.00    -0.106 SA
ENDBRANCH   8  34
TORSDOF 4
ENDMDL
MODEL 9
REMARK VINA RESULT:    -6.586      3.138      7.052
REMARK INTER + INTRA:         -10.117
REMARK INTER:                  -7.779
REMARK INTRA:                  -2.338
REMARK CONF_INDEPENDENT:        1.193
REMARK UNBOUND:                -2.338
REMARK  4 active torsions:
REMARK  status: ('A' for Active; 'I' for Inactive)
REMARK    1  A    between atoms: C_4  and  C_5 
REMARK    2  A    between atoms: C_13  and  C_14 
REMARK    3  A    between atoms: N_24  and  C_25 
REMARK    4  A    between atoms: C_30  and  C_31 
ROOT
ATOM      1  C   UNL d   1      29.377 -15.450  -3.679  0.00  0.00     0.063 C 
ATOM      2  C   UNL d   1      28.280 -14.630  -2.822  0.00  0.00     0.004 C 
ATOM      3  C   UNL d   1      27.254 -13.936  -3.409  0.00  0.00    -0.008 C 
ATOM      4  C   UNL d   1      26.898 -13.543  -4.862  0.00  0.00     0.126 C 
ATOM      5  C   UNL d   1      26.604 -12.075  -4.743  0.00  0.00     0.026 C 
ATOM      6  C   UNL d   1      26.234 -11.538  -3.554  0.00  0.00     0.018 C 
ATOM      7  C   UNL d   1      26.177 -10.072  -3.355  0.00  0.00     0.067 C 
ATOM      8  C   UNL d   1      26.514  -9.193  -4.564  0.00  0.00     0.038 C 
ATOM      9  C   UNL d   1      26.956  -9.824  -5.868  0.00  0.00     0.094 C 
ATOM     10  C   UNL d   1      26.890 -11.283  -5.942  0.00  0.00     0.159 C 
ATOM     11  O   UNL d   1      27.152 -11.810  -7.023  0.00  0.00    -0.293 OA
ATOM     12  N   UNL d   1      25.906 -12.321  -2.422  0.00  0.00    -0.371 N 
ATOM     13  C   UNL d   1      25.931 -13.793  -2.492  0.00  0.00     0.210 C 
ATOM     14  N   UNL d   1      26.217 -14.676  -1.204  0.00  0.00    -0.185 NA
ATOM     15  N   UNL d   1      27.849 -14.963  -1.448  0.00  0.00    -0.222 NA
ATOM     16  H   UNL d   1      25.984 -11.928  -1.490  0.00  0.00     0.161 HD
ATOM     17  H   UNL d   1      28.082 -15.953  -1.237  0.00  0.00     0.147 HD
ENDROOT
BRANCH  14  18
ATOM     18  C   UNL d   1      25.376 -16.001  -1.223  0.00  0.00     0.045 C 
ATOM     19  C   UNL d   1      24.340 -16.540  -2.021  0.00  0.00     0.026 C 
ATOM     20  C   UNL d   1      23.643 -17.752  -1.533  0.00  0.00     0.002 C 
ATOM     21  C   UNL d   1      24.015 -18.481  -0.383  0.00  0.00     0.001 C 
ATOM     22  C   UNL d   1      25.077 -18.035   0.297  0.00  0.00     0.020 C 
ATOM     23  C   UNL d   1      25.686 -16.878  -0.175  0.00  0.00     0.063 C 
BRANCH  23  24
ATOM     24  C   UNL d   1      27.041 -16.980   0.213  0.00  0.00     0.211 C 
ATOM     25  O   UNL d   1      27.736 -17.869  -0.302  0.00  0.00    -0.644 OA
ATOM     26  O   UNL d   1      27.421 -15.979   0.937  0.00  0.00    -0.644 OA
ENDBRANCH  23  24
ENDBRANCH  14  18
BRANCH   4  27
ATOM     27  C   UNL d   1      28.012 -13.903  -5.860  0.00  0.00     0.094 C 
ATOM     28  N   UNL d   1      28.335 -15.114  -6.377  0.00  0.00    -0.354 N 
ATOM     29  C   UNL d   1      29.622 -15.089  -6.901  0.00  0.00     0.106 C 
ATOM     30  H   UNL d   1      27.855 -15.950  -6.022  0.00  0.00     0.166 HD
ATOM     31  C   UNL d   1      30.032 -13.789  -6.869  0.00  0.00     0.106 C 
ATOM     32  N   UNL d   1      29.057 -13.113  -6.201  0.00  0.00    -0.354 N 
ATOM     33  H   UNL d   1      29.072 -12.130  -5.966  0.00  0.00     0.166 HD
ENDBRANCH   4  27
BRANCH   8  34
ATOM     34  C   UNL d   1      25.280  -8.419  -4.891  0.00  0.00    -0.013 A 
ATOM     35  C   UNL d   1      24.843  -7.271  -4.255  0.00  0.00     0.015 A 
ATOM     36  C   UNL d   1      23.650  -6.784  -4.833  0.00  0.00     0.008 A 
ATOM     37  C   UNL d   1      23.227  -7.583  -5.870  0.00  0.00     0.050 A 
ATOM     38  S   UNL d   1      24.252  -8.918  -6.143  0.00  0.00    -0.106 SA
ENDBRANCH   8  34
TORSDOF 4
ENDMDL
