MODEL 1
REMARK VINA RESULT:    -8.273      0.000      0.000
REMARK INTER + INTRA:         -10.442
REMARK INTER:                 -10.063
REMARK INTRA:                  -0.380
REMARK CONF_INDEPENDENT:        1.790
REMARK UNBOUND:                -0.380
REMARK  6 active torsions:
REMARK  status: ('A' for Active; 'I' for Inactive)
REMARK    1  A    between atoms: C_2  and  C_3 
REMARK    2  A    between atoms: C_3  and  N_5 
REMARK       I    between atoms: N_5  and  C_6 
REMARK    3  A    between atoms: C_6  and  C_8 
REMARK    4  A    between atoms: C_8  and  C_9 
REMARK    5  A    between atoms: C_9  and  C_10 
REMARK    6  A    between atoms: C_14  and  N_15 
ROOT
ATOM      1  C   UNL d   1      23.721 -18.581  -0.146  0.00  0.00     0.048 C 
ENDROOT
BRANCH   1   2
ATOM      2  C   UNL d   1      22.726 -18.787  -1.299  0.00  0.00     0.107 C 
BRANCH   2   3
ATOM      3  C   UNL d   1      21.312 -18.735  -0.776  0.00  0.00     0.218 C 
ATOM      4  N   UNL d   1      21.040 -19.584   0.280  0.00  0.00    -0.357 N 
ATOM      5  H   UNL d   1      21.749 -20.232   0.603  0.00  0.00     0.162 HD
ATOM      6  O   UNL d   1      20.465 -17.987  -1.265  0.00  0.00    -0.274 OA
BRANCH   4   7
ATOM      7  C   UNL d   1      19.714 -19.588   0.904  0.00  0.00     0.080 C 
ATOM      8  C   UNL d   1      19.816 -20.082   2.352  0.00  0.00     0.032 C 
BRANCH   7   9
ATOM      9  C   UNL d   1      18.705 -20.449   0.119  0.00  0.00     0.020 C 
ATOM     10  C   UNL d   1      18.058 -21.526   0.987  0.00  0.00     0.007 C 
ENDBRANCH   7   9
ENDBRANCH   4   7
ENDBRANCH   2   3
ENDBRANCH   1   2
BRANCH   1  11
ATOM     11  C   UNL d   1      24.820 -17.601  -0.467  0.00  0.00    -0.056 A 
ATOM     12  C   UNL d   1      24.587 -16.523  -1.330  0.00  0.00     0.007 A 
ATOM     13  C   UNL d   1      25.616 -15.629  -1.628  0.00  0.00     0.003 A 
ATOM     14  C   UNL d   1      26.885 -15.812  -1.074  0.00  0.00     0.029 A 
ATOM     15  C   UNL d   1      27.142 -16.888  -0.227  0.00  0.00     0.026 A 
ATOM     16  C   UNL d   1      26.108 -17.779   0.058  0.00  0.00     0.036 A 
BRANCH  15  17
ATOM     17  N   UNL d   1      28.381 -17.055   0.361  0.00  0.00    -0.399 N 
ATOM     18  H   UNL d   1      28.885 -17.923   0.256  0.00  0.00     0.156 HD
ATOM     19  H   UNL d   1      28.757 -16.343   0.973  0.00  0.00     0.156 HD
ENDBRANCH  15  17
ENDBRANCH   1  11
TORSDOF 6
ENDMDL
MODEL 2
REMARK VINA RESULT:    -7.605      0.819      1.339
REMARK INTER + INTRA:          -9.523
REMARK INTER:                  -9.394
REMARK INTRA:                  -0.129
REMARK CONF_INDEPENDENT:        1.790
REMARK UNBOUND:                -0.129
REMARK  6 active torsions:
REMARK  status: ('A' for Active; 'I' for Inactive)
REMARK    1  A    between atoms: C_2  and  C_3 
REMARK    2  A    between atoms: C_3  and  N_5 
REMARK       I    between atoms: N_5  and  C_6 
REMARK    3  A    between atoms: C_6  and  C_8 
REMARK    4  A    between atoms: C_8  and  C_9 
REMARK    5  A    between atoms: C_9  and  C_10 
REMARK    6  A    between atoms: C_14  and  N_15 
ROOT
ATOM      1  C   UNL d   1      23.801 -18.522  -0.076  0.00  0.00     0.048 C 
ENDROOT
BRANCH   1   2
ATOM      2  C   UNL d   1      22.446 -17.862  -0.380  0.00  0.00     0.107 C 
BRANCH   2   3
ATOM      3  C   UNL d   1      21.382 -18.920  -0.538  0.00  0.00     0.218 C 
ATOM      4  N   UNL d   1      20.843 -19.397   0.643  0.00  0.00    -0.357 N 
ATOM      5  H   UNL d   1      21.216 -19.084   1.531  0.00  0.00     0.162 HD
ATOM      6  O   UNL d   1      21.027 -19.326  -1.645  0.00  0.00    -0.274 OA
BRANCH   4   7
ATOM      7  C   UNL d   1      19.767 -20.391   0.616  0.00  0.00     0.080 C 
ATOM      8  C   UNL d   1      18.786 -20.074  -0.520  0.00  0.00     0.032 C 
BRANCH   7   9
ATOM      9  C   UNL d   1      19.015 -20.471   1.959  0.00  0.00     0.020 C 
ATOM     10  C   UNL d   1      19.962 -20.450   3.158  0.00  0.00     0.007 C 
ENDBRANCH   7   9
ENDBRANCH   4   7
ENDBRANCH   2   3
ENDBRANCH   1   2
BRANCH   1  11
ATOM     11  C   UNL d   1      24.984 -17.707  -0.533  0.00  0.00    -0.056 A 
ATOM     12  C   UNL d   1      24.845 -16.756  -1.551  0.00  0.00     0.007 A 
ATOM     13  C   UNL d   1      25.950 -16.017  -1.974  0.00  0.00     0.003 A 
ATOM     14  C   UNL d   1      27.201 -16.229  -1.389  0.00  0.00     0.029 A 
ATOM     15  C   UNL d   1      27.363 -17.183  -0.386  0.00  0.00     0.026 A 
ATOM     16  C   UNL d   1      26.253 -17.921   0.022  0.00  0.00     0.036 A 
BRANCH  15  17
ATOM     17  N   UNL d   1      28.585 -17.373   0.229  0.00  0.00    -0.399 N 
ATOM     18  H   UNL d   1      28.934 -16.699   0.894  0.00  0.00     0.156 HD
ATOM     19  H   UNL d   1      29.180 -18.143  -0.043  0.00  0.00     0.156 HD
ENDBRANCH  15  17
ENDBRANCH   1  11
TORSDOF 6
ENDMDL
MODEL 3
REMARK VINA RESULT:    -7.322      0.902      1.526
REMARK INTER + INTRA:          -9.468
REMARK INTER:                  -9.112
REMARK INTRA:                  -0.356
REMARK CONF_INDEPENDENT:        1.790
REMARK UNBOUND:                -0.356
REMARK  6 active torsions:
REMARK  status: ('A' for Active; 'I' for Inactive)
REMARK    1  A    between atoms: C_2  and  C_3 
REMARK    2  A    between atoms: C_3  and  N_5 
REMARK       I    between atoms: N_5  and  C_6 
REMARK    3  A    between atoms: C_6  and  C_8 
REMARK    4  A    between atoms: C_8  and  C_9 
REMARK    5  A    between atoms: C_9  and  C_10 
REMARK    6  A    between atoms: C_14  and  N_15 
ROOT
ATOM      1  C   UNL d   1      23.448 -17.580  -1.426  0.00  0.00     0.048 C 
ENDROOT
BRANCH   1   2
ATOM      2  C   UNL d   1      22.851 -18.959  -1.104  0.00  0.00     0.107 C 
BRANCH   2   3
ATOM      3  C   UNL d   1      21.428 -18.806  -0.626  0.00  0.00     0.218 C 
ATOM      4  N   UNL d   1      21.030 -19.707   0.344  0.00  0.00    -0.357 N 
ATOM      5  H   UNL d   1      21.657 -20.448   0.633  0.00  0.00     0.162 HD
ATOM      6  O   UNL d   1      20.680 -17.938  -1.077  0.00  0.00    -0.274 OA
BRANCH   4   7
ATOM      7  C   UNL d   1      19.685 -19.627   0.920  0.00  0.00     0.080 C 
ATOM      8  C   UNL d   1      19.714 -20.075   2.387  0.00  0.00     0.032 C 
BRANCH   7   9
ATOM      9  C   UNL d   1      18.662 -20.466   0.129  0.00  0.00     0.020 C 
ATOM     10  C   UNL d   1      18.026 -21.564   0.980  0.00  0.00     0.007 C 
ENDBRANCH   7   9
ENDBRANCH   4   7
ENDBRANCH   2   3
ENDBRANCH   1   2
BRANCH   1  11
ATOM     11  C   UNL d   1      24.800 -17.349  -0.802  0.00  0.00    -0.056 A 
ATOM     12  C   UNL d   1      25.387 -18.325   0.013  0.00  0.00     0.007 A 
ATOM     13  C   UNL d   1      26.634 -18.094   0.595  0.00  0.00     0.003 A 
ATOM     14  C   UNL d   1      27.298 -16.885   0.373  0.00  0.00     0.029 A 
ATOM     15  C   UNL d   1      26.723 -15.894  -0.420  0.00  0.00     0.026 A 
ATOM     16  C   UNL d   1      25.473 -16.133  -0.989  0.00  0.00     0.036 A 
BRANCH  15  17
ATOM     17  N   UNL d   1      27.387 -14.711  -0.681  0.00  0.00    -0.399 N 
ATOM     18  H   UNL d   1      27.227 -13.896  -0.109  0.00  0.00     0.156 HD
ATOM     19  H   UNL d   1      27.975 -14.625  -1.499  0.00  0.00     0.156 HD
ENDBRANCH  15  17
ENDBRANCH   1  11
TORSDOF 6
ENDMDL
MODEL 4
REMARK VINA RESULT:    -7.209      2.362      3.096
REMARK INTER + INTRA:          -9.340
REMARK INTER:                  -8.999
REMARK INTRA:                  -0.341
REMARK CONF_INDEPENDENT:        1.790
REMARK UNBOUND:                -0.341
REMARK  6 active torsions:
REMARK  status: ('A' for Active; 'I' for Inactive)
REMARK    1  A    between atoms: C_2  and  C_3 
REMARK    2  A    between atoms: C_3  and  N_5 
REMARK       I    between atoms: N_5  and  C_6 
REMARK    3  A    between atoms: C_6  and  C_8 
REMARK    4  A    between atoms: C_8  and  C_9 
REMARK    5  A    between atoms: C_9  and  C_10 
REMARK    6  A    between atoms: C_14  and  N_15 
ROOT
ATOM      1  C   UNL d   1      24.981 -17.042  -0.864  0.00  0.00     0.048 C 
ENDROOT
BRANCH   1   2
ATOM      2  C   UNL d   1      23.493 -16.772  -0.597  0.00  0.00     0.107 C 
BRANCH   2   3
ATOM      3  C   UNL d   1      22.704 -18.052  -0.726  0.00  0.00     0.218 C 
ATOM      4  N   UNL d   1      21.779 -18.281   0.275  0.00  0.00    -0.357 N 
ATOM      5  H   UNL d   1      21.717 -17.644   1.061  0.00  0.00     0.162 HD
ATOM      6  O   UNL d   1      22.883 -18.833  -1.661  0.00  0.00    -0.274 OA
BRANCH   4   7
ATOM      7  C   UNL d   1      20.920 -19.467   0.231  0.00  0.00     0.080 C 
ATOM      8  C   UNL d   1      19.909 -19.342  -0.915  0.00  0.00     0.032 C 
BRANCH   7   9
ATOM      9  C   UNL d   1      20.184 -19.702   1.565  0.00  0.00     0.020 C 
ATOM     10  C   UNL d   1      18.876 -20.469   1.382  0.00  0.00     0.007 C 
ENDBRANCH   7   9
ENDBRANCH   4   7
ENDBRANCH   2   3
ENDBRANCH   1   2
BRANCH   1  11
ATOM     11  C   UNL d   1      25.577 -16.144  -1.919  0.00  0.00    -0.056 A 
ATOM     12  C   UNL d   1      26.944 -16.197  -2.214  0.00  0.00     0.007 A 
ATOM     13  C   UNL d   1      27.485 -15.353  -3.183  0.00  0.00     0.003 A 
ATOM     14  C   UNL d   1      26.665 -14.445  -3.857  0.00  0.00     0.029 A 
ATOM     15  C   UNL d   1      25.305 -14.364  -3.567  0.00  0.00     0.026 A 
ATOM     16  C   UNL d   1      24.778 -15.207  -2.590  0.00  0.00     0.036 A 
BRANCH  15  17
ATOM     17  N   UNL d   1      24.476 -13.500  -4.256  0.00  0.00    -0.399 N 
ATOM     18  H   UNL d   1      24.365 -12.545  -3.951  0.00  0.00     0.156 HD
ATOM     19  H   UNL d   1      23.908 -13.838  -5.020  0.00  0.00     0.156 HD
ENDBRANCH  15  17
ENDBRANCH   1  11
TORSDOF 6
ENDMDL
MODEL 5
REMARK VINA RESULT:    -6.946      1.792      7.349
REMARK INTER + INTRA:          -9.101
REMARK INTER:                  -8.736
REMARK INTRA:                  -0.365
REMARK CONF_INDEPENDENT:        1.790
REMARK UNBOUND:                -0.365
REMARK  6 active torsions:
REMARK  status: ('A' for Active; 'I' for Inactive)
REMARK    1  A    between atoms: C_2  and  C_3 
REMARK    2  A    between atoms: C_3  and  N_5 
REMARK       I    between atoms: N_5  and  C_6 
REMARK    3  A    between atoms: C_6  and  C_8 
REMARK    4  A    between atoms: C_8  and  C_9 
REMARK    5  A    between atoms: C_9  and  C_10 
REMARK    6  A    between atoms: C_14  and  N_15 
ROOT
ATOM      1  C   UNL d   1      21.304 -18.589  -0.931  0.00  0.00     0.048 C 
ENDROOT
BRANCH   1   2
ATOM      2  C   UNL d   1      22.788 -18.740  -0.563  0.00  0.00     0.107 C 
BRANCH   2   3
ATOM      3  C   UNL d   1      23.474 -17.397  -0.624  0.00  0.00     0.218 C 
ATOM      4  N   UNL d   1      24.835 -17.438  -0.866  0.00  0.00    -0.357 N 
ATOM      5  H   UNL d   1      25.311 -18.331  -0.921  0.00  0.00     0.162 HD
ATOM      6  O   UNL d   1      22.857 -16.344  -0.464  0.00  0.00    -0.274 OA
BRANCH   4   7
ATOM      7  C   UNL d   1      25.601 -16.196  -0.994  0.00  0.00     0.080 C 
ATOM      8  C   UNL d   1      25.699 -15.790  -2.470  0.00  0.00     0.032 C 
BRANCH   7   9
ATOM      9  C   UNL d   1      27.010 -16.316  -0.381  0.00  0.00     0.020 C 
ATOM     10  C   UNL d   1      27.317 -17.732   0.101  0.00  0.00     0.007 C 
ENDBRANCH   7   9
ENDBRANCH   4   7
ENDBRANCH   2   3
ENDBRANCH   1   2
BRANCH   1  11
ATOM     11  C   UNL d   1      20.374 -19.319   0.004  0.00  0.00    -0.056 A 
ATOM     12  C   UNL d   1      20.636 -19.366   1.379  0.00  0.00     0.007 A 
ATOM     13  C   UNL d   1      19.775 -20.056   2.233  0.00  0.00     0.003 A 
ATOM     14  C   UNL d   1      18.652 -20.708   1.718  0.00  0.00     0.029 A 
ATOM     15  C   UNL d   1      18.383 -20.688   0.351  0.00  0.00     0.026 A 
ATOM     16  C   UNL d   1      19.256 -20.002  -0.493  0.00  0.00     0.036 A 
BRANCH  15  17
ATOM     17  N   UNL d   1      17.254 -21.293  -0.165  0.00  0.00    -0.399 N 
ATOM     18  H   UNL d   1      16.765 -20.885  -0.948  0.00  0.00     0.156 HD
ATOM     19  H   UNL d   1      16.856 -22.104   0.289  0.00  0.00     0.156 HD
ENDBRANCH  15  17
ENDBRANCH   1  11
TORSDOF 6
ENDMDL
MODEL 6
REMARK VINA RESULT:    -6.287      1.893      6.910
REMARK INTER + INTRA:          -8.391
REMARK INTER:                  -8.077
REMARK INTRA:                  -0.314
REMARK CONF_INDEPENDENT:        1.790
REMARK UNBOUND:                -0.314
REMARK  6 active torsions:
REMARK  status: ('A' for Active; 'I' for Inactive)
REMARK    1  A    between atoms: C_2  and  C_3 
REMARK    2  A    between atoms: C_3  and  N_5 
REMARK       I    between atoms: N_5  and  C_6 
REMARK    3  A    between atoms: C_6  and  C_8 
REMARK    4  A    between atoms: C_8  and  C_9 
REMARK    5  A    between atoms: C_9  and  C_10 
REMARK    6  A    between atoms: C_14  and  N_15 
ROOT
ATOM      1  C   UNL d   1      20.881 -19.100  -1.316  0.00  0.00     0.048 C 
ENDROOT
BRANCH   1   2
ATOM      2  C   UNL d   1      21.526 -17.770  -0.895  0.00  0.00     0.107 C 
BRANCH   2   3
ATOM      3  C   UNL d   1      23.029 -17.899  -0.904  0.00  0.00     0.218 C 
ATOM      4  N   UNL d   1      23.723 -16.749  -0.580  0.00  0.00    -0.357 N 
ATOM      5  H   UNL d   1      23.221 -15.882  -0.424  0.00  0.00     0.162 HD
ATOM      6  O   UNL d   1      23.589 -18.959  -1.186  0.00  0.00    -0.274 OA
BRANCH   4   7
ATOM      7  C   UNL d   1      25.187 -16.763  -0.509  0.00  0.00     0.080 C 
ATOM      8  C   UNL d   1      25.783 -16.693  -1.920  0.00  0.00     0.032 C 
BRANCH   7   9
ATOM      9  C   UNL d   1      25.720 -18.006   0.231  0.00  0.00     0.020 C 
ATOM     10  C   UNL d   1      27.196 -17.873   0.605  0.00  0.00     0.007 C 
ENDBRANCH   7   9
ENDBRANCH   4   7
ENDBRANCH   2   3
ENDBRANCH   1   2
BRANCH   1  11
ATOM     11  C   UNL d   1      20.049 -19.737  -0.233  0.00  0.00    -0.056 A 
ATOM     12  C   UNL d   1      18.780 -20.253  -0.518  0.00  0.00     0.007 A 
ATOM     13  C   UNL d   1      18.014 -20.829   0.496  0.00  0.00     0.003 A 
ATOM     14  C   UNL d   1      18.508 -20.885   1.802  0.00  0.00     0.029 A 
ATOM     15  C   UNL d   1      19.762 -20.361   2.110  0.00  0.00     0.026 A 
ATOM     16  C   UNL d   1      20.514 -19.780   1.089  0.00  0.00     0.036 A 
BRANCH  15  17
ATOM     17  N   UNL d   1      20.280 -20.448   3.387  0.00  0.00    -0.399 N 
ATOM     18  H   UNL d   1      19.667 -20.542   4.183  0.00  0.00     0.156 HD
ATOM     19  H   UNL d   1      21.271 -20.332   3.546  0.00  0.00     0.156 HD
ENDBRANCH  15  17
ENDBRANCH   1  11
TORSDOF 6
ENDMDL
MODEL 7
REMARK VINA RESULT:    -6.207      2.148      6.987
REMARK INTER + INTRA:          -8.276
REMARK INTER:                  -7.997
REMARK INTRA:                  -0.279
REMARK CONF_INDEPENDENT:        1.790
REMARK UNBOUND:                -0.279
REMARK  6 active torsions:
REMARK  status: ('A' for Active; 'I' for Inactive)
REMARK    1  A    between atoms: C_2  and  C_3 
REMARK    2  A    between atoms: C_3  and  N_5 
REMARK       I    between atoms: N_5  and  C_6 
REMARK    3  A    between atoms: C_6  and  C_8 
REMARK    4  A    between atoms: C_8  and  C_9 
REMARK    5  A    between atoms: C_9  and  C_10 
REMARK    6  A    between atoms: C_14  and  N_15 
ROOT
ATOM      1  C   UNL d   1      22.184 -18.300  -1.004  0.00  0.00     0.048 C 
ENDROOT
BRANCH   1   2
ATOM      2  C   UNL d   1      23.537 -18.974  -0.728  0.00  0.00     0.107 C 
BRANCH   2   3
ATOM      3  C   UNL d   1      24.637 -17.941  -0.719  0.00  0.00     0.218 C 
ATOM      4  N   UNL d   1      24.589 -17.017  -1.746  0.00  0.00    -0.357 N 
ATOM      5  H   UNL d   1      23.890 -17.107  -2.474  0.00  0.00     0.162 HD
ATOM      6  O   UNL d   1      25.513 -17.932   0.146  0.00  0.00    -0.274 OA
BRANCH   4   7
ATOM      7  C   UNL d   1      25.575 -15.936  -1.815  0.00  0.00     0.080 C 
ATOM      8  C   UNL d   1      25.696 -15.247  -0.450  0.00  0.00     0.032 C 
BRANCH   7   9
ATOM      9  C   UNL d   1      25.229 -14.901  -2.903  0.00  0.00     0.020 C 
ATOM     10  C   UNL d   1      25.911 -15.205  -4.235  0.00  0.00     0.007 C 
ENDBRANCH   7   9
ENDBRANCH   4   7
ENDBRANCH   2   3
ENDBRANCH   1   2
BRANCH   1  11
ATOM     11  C   UNL d   1      21.016 -19.011  -0.369  0.00  0.00    -0.056 A 
ATOM     12  C   UNL d   1      19.879 -19.329  -1.122  0.00  0.00     0.007 A 
ATOM     13  C   UNL d   1      18.800 -19.976  -0.520  0.00  0.00     0.003 A 
ATOM     14  C   UNL d   1      18.846 -20.303   0.837  0.00  0.00     0.029 A 
ATOM     15  C   UNL d   1      19.962 -19.980   1.607  0.00  0.00     0.026 A 
ATOM     16  C   UNL d   1      21.031 -19.326   0.997  0.00  0.00     0.036 A 
BRANCH  15  17
ATOM     17  N   UNL d   1      20.037 -20.335   2.940  0.00  0.00    -0.399 N 
ATOM     18  H   UNL d   1      19.264 -20.156   3.563  0.00  0.00     0.156 HD
ATOM     19  H   UNL d   1      20.899 -20.699   3.324  0.00  0.00     0.156 HD
ENDBRANCH  15  17
ENDBRANCH   1  11
TORSDOF 6
ENDMDL
MODEL 8
REMARK VINA RESULT:    -5.497      3.348      7.273
REMARK INTER + INTRA:          -7.807
REMARK INTER:                  -7.287
REMARK INTRA:                  -0.520
REMARK CONF_INDEPENDENT:        1.790
REMARK UNBOUND:                -0.520
REMARK  6 active torsions:
REMARK  status: ('A' for Active; 'I' for Inactive)
REMARK    1  A    between atoms: C_2  and  C_3 
REMARK    2  A    between atoms: C_3  and  N_5 
REMARK       I    between atoms: N_5  and  C_6 
REMARK    3  A    between atoms: C_6  and  C_8 
REMARK    4  A    between atoms: C_8  and  C_9 
REMARK    5  A    between atoms: C_9  and  C_10 
REMARK    6  A    between atoms: C_14  and  N_15 
ROOT
ATOM      1  C   UNL d   1      27.049 -17.836   0.624  0.00  0.00     0.048 C 
ENDROOT
BRANCH   1   2
ATOM      2  C   UNL d   1      27.987 -16.653   0.336  0.00  0.00     0.107 C 
BRANCH   2   3
ATOM      3  C   UNL d   1      27.452 -15.400   0.985  0.00  0.00     0.218 C 
ATOM      4  N   UNL d   1      28.132 -14.983   2.115  0.00  0.00    -0.357 N 
ATOM      5  H   UNL d   1      28.886 -15.548   2.488  0.00  0.00     0.162 HD
ATOM      6  O   UNL d   1      26.476 -14.801   0.535  0.00  0.00    -0.274 OA
BRANCH   4   7
ATOM      7  C   UNL d   1      27.736 -13.752   2.804  0.00  0.00     0.080 C 
ATOM      8  C   UNL d   1      28.198 -12.529   2.003  0.00  0.00     0.032 C 
BRANCH   7   9
ATOM      9  C   UNL d   1      28.289 -13.687   4.241  0.00  0.00     0.020 C 
ATOM     10  C   UNL d   1      27.799 -14.845   5.108  0.00  0.00     0.007 C 
ENDBRANCH   7   9
ENDBRANCH   4   7
ENDBRANCH   2   3
ENDBRANCH   1   2
BRANCH   1  11
ATOM     11  C   UNL d   1      25.704 -17.715  -0.047  0.00  0.00    -0.056 A 
ATOM     12  C   UNL d   1      25.581 -17.084  -1.291  0.00  0.00     0.007 A 
ATOM     13  C   UNL d   1      24.330 -16.968  -1.896  0.00  0.00     0.003 A 
ATOM     14  C   UNL d   1      23.194 -17.475  -1.260  0.00  0.00     0.029 A 
ATOM     15  C   UNL d   1      23.293 -18.091  -0.015  0.00  0.00     0.026 A 
ATOM     16  C   UNL d   1      24.547 -18.194   0.584  0.00  0.00     0.036 A 
BRANCH  15  17
ATOM     17  N   UNL d   1      22.184 -18.633   0.605  0.00  0.00    -0.399 N 
ATOM     18  H   UNL d   1      21.503 -18.037   1.051  0.00  0.00     0.156 HD
ATOM     19  H   UNL d   1      22.087 -19.636   0.694  0.00  0.00     0.156 HD
ENDBRANCH  15  17
ENDBRANCH   1  11
TORSDOF 6
ENDMDL
MODEL 9
REMARK VINA RESULT:    -5.479      3.727      8.089
REMARK INTER + INTRA:          -7.745
REMARK INTER:                  -7.269
REMARK INTRA:                  -0.476
REMARK CONF_INDEPENDENT:        1.790
REMARK UNBOUND:                -0.476
REMARK  6 active torsions:
REMARK  status: ('A' for Active; 'I' for Inactive)
REMARK    1  A    between atoms: C_2  and  C_3 
REMARK    2  A    between atoms: C_3  and  N_5 
REMARK       I    between atoms: N_5  and  C_6 
REMARK    3  A    between atoms: C_6  and  C_8 
REMARK    4  A    between atoms: C_8  and  C_9 
REMARK    5  A    between atoms: C_9  and  C_10 
REMARK    6  A    between atoms: C_14  and  N_15 
ROOT
ATOM      1  C   UNL d   1      24.511 -15.018  -2.453  0.00  0.00     0.048 C 
ENDROOT
BRANCH   1   2
ATOM      2  C   UNL d   1      25.860 -14.376  -2.815  0.00  0.00     0.107 C 
BRANCH   2   3
ATOM      3  C   UNL d   1      26.294 -14.825  -4.188  0.00  0.00     0.218 C 
ATOM      4  N   UNL d   1      27.619 -14.583  -4.499  0.00  0.00    -0.357 N 
ATOM      5  H   UNL d   1      28.205 -14.073  -3.848  0.00  0.00     0.162 HD
ATOM      6  O   UNL d   1      25.513 -15.365  -4.972  0.00  0.00    -0.274 OA
BRANCH   4   7
ATOM      7  C   UNL d   1      28.168 -15.018  -5.785  0.00  0.00     0.080 C 
ATOM      8  C   UNL d   1      29.366 -15.948  -5.558  0.00  0.00     0.032 C 
BRANCH   7   9
ATOM      9  C   UNL d   1      28.581 -13.827  -6.673  0.00  0.00     0.020 C 
ATOM     10  C   UNL d   1      27.777 -12.565  -6.367  0.00  0.00     0.007 C 
ENDBRANCH   7   9
ENDBRANCH   4   7
ENDBRANCH   2   3
ENDBRANCH   1   2
BRANCH   1  11
ATOM     11  C   UNL d   1      24.634 -16.184  -1.506  0.00  0.00    -0.056 A 
ATOM     12  C   UNL d   1      25.886 -16.738  -1.214  0.00  0.00     0.007 A 
ATOM     13  C   UNL d   1      25.985 -17.825  -0.345  0.00  0.00     0.003 A 
ATOM     14  C   UNL d   1      24.834 -18.369   0.231  0.00  0.00     0.029 A 
ATOM     15  C   UNL d   1      23.578 -17.843  -0.060  0.00  0.00     0.026 A 
ATOM     16  C   UNL d   1      23.490 -16.762  -0.937  0.00  0.00     0.036 A 
BRANCH  15  17
ATOM     17  N   UNL d   1      22.437 -18.345   0.535  0.00  0.00    -0.399 N 
ATOM     18  H   UNL d   1      21.777 -17.726   0.982  0.00  0.00     0.156 HD
ATOM     19  H   UNL d   1      22.294 -19.343   0.604  0.00  0.00     0.156 HD
ENDBRANCH  15  17
ENDBRANCH   1  11
TORSDOF 6
ENDMDL
