MODEL 1
REMARK VINA RESULT:   -28.600      0.000      0.000
REMARK INTER + INTRA:         -30.998
REMARK INTER:                 -30.092
REMARK INTRA:                  -0.906
REMARK CONF_INDEPENDENT:        1.492
REMARK UNBOUND:                -0.906
REMARK  5 active torsions:
REMARK  status: ('A' for Active; 'I' for Inactive)
REMARK    1  A    between atoms: C_2  and  C_3 
REMARK    2  A    between atoms: C_2  and  C_12 
REMARK    3  A    between atoms: C_3  and  N_4 
REMARK    4  A    between atoms: N_4  and  C_5 
REMARK       I    between atoms: C_12  and  N_14 
REMARK    5  A    between atoms: N_14  and  N_15 
ROOT
ATOM      1  C   UNL d   1      23.150 -16.608  -0.519  0.00  0.00     0.133 C 
ENDROOT
BRANCH   1   2
ATOM      2  C   UNL d   1      22.913 -18.051  -0.071  0.00  0.00     0.093 C 
ATOM      3  C   UNL d   1      24.223 -18.840  -0.131  0.00  0.00     0.021 C 
BRANCH   2   4
ATOM      4  C   UNL d   1      21.861 -18.718  -0.970  0.00  0.00     0.237 C 
ATOM      5  O   UNL d   1      22.155 -19.299  -2.024  0.00  0.00    -0.272 OA
ATOM      6  N   UNL d   1      20.542 -18.647  -0.535  0.00  0.00    -0.294 N 
ATOM      7  H   UNL d   1      20.301 -18.285   0.388  0.00  0.00     0.183 HD
BRANCH   6   8
ATOM      8  N   UNL d   1      19.536 -19.325  -1.269  0.00  0.00    -0.247 NA
ATOM      9  H   UNL d   1      19.979 -19.677  -2.131  0.00  0.00     0.143 HD
ATOM     10  H   UNL d   1      18.849 -18.640  -1.598  0.00  0.00     0.143 HD
ENDBRANCH   6   8
ENDBRANCH   2   4
ENDBRANCH   1   2
BRANCH   1  11
ATOM     11  N   UNL d   1      24.097 -16.513  -1.637  0.00  0.00    -0.388 N 
ATOM     12  H   UNL d   1      23.731 -16.363  -2.572  0.00  0.00     0.159 HD
BRANCH  11  13
ATOM     13  C   UNL d   1      25.409 -16.082  -1.410  0.00  0.00     0.050 A 
ATOM     14  C   UNL d   1      26.015 -16.323  -0.159  0.00  0.00     0.031 A 
ATOM     15  C   UNL d   1      27.340 -15.931   0.103  0.00  0.00     0.002 A 
ATOM     16  C   UNL d   1      28.092 -15.307  -0.886  0.00  0.00     0.002 A 
ATOM     17  C   UNL d   1      27.519 -15.062  -2.128  0.00  0.00     0.026 A 
ATOM     18  C   UNL d   1      26.197 -15.435  -2.387  0.00  0.00     0.060 A 
ATOM     19 CL   UNL d   1      25.572 -14.909  -3.918  0.00  0.00    -0.082 Cl
ENDBRANCH  11  13
ENDBRANCH   1  11
TORSDOF 5
ENDMDL
MODEL 2
REMARK VINA RESULT:   -28.564      1.544      2.013
REMARK INTER + INTRA:         -31.111
REMARK INTER:                 -30.056
REMARK INTRA:                  -1.055
REMARK CONF_INDEPENDENT:        1.492
REMARK UNBOUND:                -1.055
REMARK  5 active torsions:
REMARK  status: ('A' for Active; 'I' for Inactive)
REMARK    1  A    between atoms: C_2  and  C_3 
REMARK    2  A    between atoms: C_2  and  C_12 
REMARK    3  A    between atoms: C_3  and  N_4 
REMARK    4  A    between atoms: N_4  and  C_5 
REMARK       I    between atoms: C_12  and  N_14 
REMARK    5  A    between atoms: N_14  and  N_15 
ROOT
ATOM      1  C   UNL d   1      23.312 -16.635  -0.608  0.00  0.00     0.133 C 
ENDROOT
BRANCH   1   2
ATOM      2  C   UNL d   1      23.038 -18.054  -0.104  0.00  0.00     0.093 C 
ATOM      3  C   UNL d   1      24.325 -18.882  -0.141  0.00  0.00     0.021 C 
BRANCH   2   4
ATOM      4  C   UNL d   1      21.961 -18.723  -0.970  0.00  0.00     0.237 C 
ATOM      5  O   UNL d   1      22.228 -19.324  -2.021  0.00  0.00    -0.272 OA
ATOM      6  N   UNL d   1      20.652 -18.633  -0.509  0.00  0.00    -0.294 N 
ATOM      7  H   UNL d   1      20.434 -18.254   0.413  0.00  0.00     0.183 HD
BRANCH   6   8
ATOM      8  N   UNL d   1      19.624 -19.312  -1.211  0.00  0.00    -0.247 NA
ATOM      9  H   UNL d   1      20.071 -19.791  -2.008  0.00  0.00     0.143 HD
ATOM     10  H   UNL d   1      19.008 -18.619  -1.645  0.00  0.00     0.143 HD
ENDBRANCH   6   8
ENDBRANCH   2   4
ENDBRANCH   1   2
BRANCH   1  11
ATOM     11  N   UNL d   1      24.675 -16.183  -0.302  0.00  0.00    -0.388 N 
ATOM     12  H   UNL d   1      25.088 -16.449   0.585  0.00  0.00     0.159 HD
BRANCH  11  13
ATOM     13  C   UNL d   1      25.571 -15.905  -1.341  0.00  0.00     0.050 A 
ATOM     14  C   UNL d   1      25.138 -15.145  -2.450  0.00  0.00     0.031 A 
ATOM     15  C   UNL d   1      26.012 -14.819  -3.502  0.00  0.00     0.002 A 
ATOM     16  C   UNL d   1      27.340 -15.229  -3.460  0.00  0.00     0.002 A 
ATOM     17  C   UNL d   1      27.791 -15.975  -2.378  0.00  0.00     0.026 A 
ATOM     18  C   UNL d   1      26.922 -16.316  -1.337  0.00  0.00     0.060 A 
ATOM     19 CL   UNL d   1      27.586 -17.390  -0.148  0.00  0.00    -0.082 Cl
ENDBRANCH  11  13
ENDBRANCH   1  11
TORSDOF 5
ENDMDL
MODEL 3
REMARK VINA RESULT:   -28.505      1.994      2.321
REMARK INTER + INTRA:         -30.938
REMARK INTER:                 -29.997
REMARK INTRA:                  -0.941
REMARK CONF_INDEPENDENT:        1.492
REMARK UNBOUND:                -0.941
REMARK  5 active torsions:
REMARK  status: ('A' for Active; 'I' for Inactive)
REMARK    1  A    between atoms: C_2  and  C_3 
REMARK    2  A    between atoms: C_2  and  C_12 
REMARK    3  A    between atoms: C_3  and  N_4 
REMARK    4  A    between atoms: N_4  and  C_5 
REMARK       I    between atoms: C_12  and  N_14 
REMARK    5  A    between atoms: N_14  and  N_15 
ROOT
ATOM      1  C   UNL d   1      23.717 -16.869  -1.305  0.00  0.00     0.133 C 
ENDROOT
BRANCH   1   2
ATOM      2  C   UNL d   1      22.961 -17.885  -0.447  0.00  0.00     0.093 C 
ATOM      3  C   UNL d   1      23.597 -19.270  -0.591  0.00  0.00     0.021 C 
BRANCH   2   4
ATOM      4  C   UNL d   1      21.486 -17.942  -0.872  0.00  0.00     0.237 C 
ATOM      5  O   UNL d   1      20.868 -16.945  -1.270  0.00  0.00    -0.272 OA
ATOM      6  N   UNL d   1      20.869 -19.186  -0.799  0.00  0.00    -0.294 N 
ATOM      7  H   UNL d   1      21.397 -20.034  -0.596  0.00  0.00     0.183 HD
BRANCH   6   8
ATOM      8  N   UNL d   1      19.538 -19.325  -1.267  0.00  0.00    -0.247 NA
ATOM      9  H   UNL d   1      19.596 -19.620  -2.254  0.00  0.00     0.143 HD
ATOM     10  H   UNL d   1      19.102 -18.399  -1.305  0.00  0.00     0.143 HD
ENDBRANCH   6   8
ENDBRANCH   2   4
ENDBRANCH   1   2
BRANCH   1  11
ATOM     11  N   UNL d   1      24.810 -16.216  -0.572  0.00  0.00    -0.388 N 
ATOM     12  H   UNL d   1      24.677 -16.006   0.411  0.00  0.00     0.159 HD
BRANCH  11  13
ATOM     13  C   UNL d   1      26.133 -16.377  -0.996  0.00  0.00     0.050 A 
ATOM     14  C   UNL d   1      26.594 -15.668  -2.127  0.00  0.00     0.031 A 
ATOM     15  C   UNL d   1      27.924 -15.779  -2.571  0.00  0.00     0.002 A 
ATOM     16  C   UNL d   1      28.824 -16.586  -1.885  0.00  0.00     0.002 A 
ATOM     17  C   UNL d   1      28.396 -17.292  -0.767  0.00  0.00     0.026 A 
ATOM     18  C   UNL d   1      27.071 -17.197  -0.332  0.00  0.00     0.060 A 
ATOM     19 CL   UNL d   1      26.647 -18.265   0.968  0.00  0.00    -0.082 Cl
ENDBRANCH  11  13
ENDBRANCH   1  11
TORSDOF 5
ENDMDL
MODEL 4
REMARK VINA RESULT:   -28.353      1.139      1.477
REMARK INTER + INTRA:         -30.743
REMARK INTER:                 -29.845
REMARK INTRA:                  -0.898
REMARK CONF_INDEPENDENT:        1.492
REMARK UNBOUND:                -0.898
REMARK  5 active torsions:
REMARK  status: ('A' for Active; 'I' for Inactive)
REMARK    1  A    between atoms: C_2  and  C_3 
REMARK    2  A    between atoms: C_2  and  C_12 
REMARK    3  A    between atoms: C_3  and  N_4 
REMARK    4  A    between atoms: N_4  and  C_5 
REMARK       I    between atoms: C_12  and  N_14 
REMARK    5  A    between atoms: N_14  and  N_15 
ROOT
ATOM      1  C   UNL d   1      24.285 -18.071  -0.458  0.00  0.00     0.133 C 
ENDROOT
BRANCH   1   2
ATOM      2  C   UNL d   1      22.960 -17.637  -1.087  0.00  0.00     0.093 C 
ATOM      3  C   UNL d   1      22.529 -16.282  -0.521  0.00  0.00     0.021 C 
BRANCH   2   4
ATOM      4  C   UNL d   1      21.874 -18.688  -0.809  0.00  0.00     0.237 C 
ATOM      5  O   UNL d   1      22.107 -19.743  -0.202  0.00  0.00    -0.272 OA
ATOM      6  N   UNL d   1      20.596 -18.393  -1.269  0.00  0.00    -0.294 N 
ATOM      7  H   UNL d   1      20.364 -17.478  -1.656  0.00  0.00     0.183 HD
BRANCH   6   8
ATOM      8  N   UNL d   1      19.530 -19.276  -0.961  0.00  0.00    -0.247 NA
ATOM      9  H   UNL d   1      19.932 -20.225  -0.910  0.00  0.00     0.143 HD
ATOM     10  H   UNL d   1      18.891 -19.314  -1.760  0.00  0.00     0.143 HD
ENDBRANCH   6   8
ENDBRANCH   2   4
ENDBRANCH   1   2
BRANCH   1  11
ATOM     11  N   UNL d   1      25.450 -17.584  -1.208  0.00  0.00    -0.388 N 
ATOM     12  H   UNL d   1      25.487 -17.750  -2.209  0.00  0.00     0.159 HD
BRANCH  11  13
ATOM     13  C   UNL d   1      26.180 -16.488  -0.737  0.00  0.00     0.050 A 
ATOM     14  C   UNL d   1      26.971 -16.624   0.425  0.00  0.00     0.031 A 
ATOM     15  C   UNL d   1      27.742 -15.556   0.917  0.00  0.00     0.002 A 
ATOM     16  C   UNL d   1      27.752 -14.336   0.251  0.00  0.00     0.002 A 
ATOM     17  C   UNL d   1      26.985 -14.178  -0.897  0.00  0.00     0.026 A 
ATOM     18  C   UNL d   1      26.205 -15.232  -1.382  0.00  0.00     0.060 A 
ATOM     19 CL   UNL d   1      25.175 -14.828  -2.718  0.00  0.00    -0.082 Cl
ENDBRANCH  11  13
ENDBRANCH   1  11
TORSDOF 5
ENDMDL
