MODEL 1
REMARK VINA RESULT:   -10.122      0.000      0.000
REMARK INTER + INTRA:         -12.578
REMARK INTER:                 -11.613
REMARK INTRA:                  -0.965
REMARK CONF_INDEPENDENT:        1.492
REMARK UNBOUND:                -0.965
REMARK  5 active torsions:
REMARK  status: ('A' for Active; 'I' for Inactive)
REMARK    1  A    between atoms: C_2  and  C_4 
REMARK       I    between atoms: C_4  and  N_6 
REMARK    2  A    between atoms: N_6  and  C_7 
REMARK       I    between atoms: N_19  and  C_20 
REMARK    3  A    between atoms: C_20  and  C_22 
REMARK    4  A    between atoms: N_26  and  C_27 
REMARK    5  A    between atoms: C_27  and  C_28 
ROOT
ATOM      1  C   UNL d   1      23.340 -18.090  -0.204  0.00  0.00     0.734 C 
ATOM      2  N   UNL d   1      22.898 -17.159  -1.050  0.00  0.00    -0.019 NA
ATOM      3  C   UNL d   1      23.665 -16.100  -1.427  0.00  0.00     0.314 C 
ATOM      4  O   UNL d   1      23.008 -15.187  -2.019  0.00  0.00    -0.263 OA
ATOM      5  C   UNL d   1      25.012 -16.050  -1.050  0.00  0.00     0.155 C 
ATOM      6  C   UNL d   1      25.398 -17.074  -0.119  0.00  0.00     0.176 C 
ATOM      7  N   UNL d   1      24.564 -18.047   0.362  0.00  0.00    -0.043 NA
ATOM      8  N   UNL d   1      26.721 -17.122   0.363  0.00  0.00    -0.366 N 
ATOM      9  C   UNL d   1      27.722 -16.394  -0.389  0.00  0.00     0.102 C 
ATOM     10  C   UNL d   1      28.038 -17.074  -1.733  0.00  0.00     0.034 C 
ATOM     11  C   UNL d   1      27.187 -14.947  -0.564  0.00  0.00     0.112 C 
ATOM     12  C   UNL d   1      28.365 -14.034  -0.879  0.00  0.00     0.035 C 
ATOM     13  N   UNL d   1      25.995 -14.983  -1.491  0.00  0.00    -0.299 N 
ATOM     14  C   UNL d   1      25.793 -14.233  -2.679  0.00  0.00     0.260 C 
ATOM     15  O   UNL d   1      25.066 -14.458  -3.655  0.00  0.00    -0.267 OA
ATOM     16  H   UNL d   1      26.954 -17.878   0.991  0.00  0.00     0.161 HD
ENDROOT
BRANCH  14  17
ATOM     17  C   UNL d   1      26.673 -13.116  -3.053  0.00  0.00     0.048 C 
ATOM     18  C   UNL d   1      27.814 -13.248  -3.823  0.00  0.00     0.020 C 
ATOM     19  C   UNL d   1      28.553 -12.103  -4.129  0.00  0.00     0.018 C 
ATOM     20  C   UNL d   1      28.121 -10.852  -3.682  0.00  0.00     0.090 C 
ATOM     21  N   UNL d   1      27.038 -10.751  -2.872  0.00  0.00    -0.361 N 
ATOM     22  C   UNL d   1      26.408 -11.889  -2.476  0.00  0.00     0.107 C 
BRANCH  21  23
ATOM     23  C   UNL d   1      26.551  -9.373  -2.509  0.00  0.00     0.166 C 
BRANCH  23  24
ATOM     24  C   UNL d   1      25.715  -8.679  -3.556  0.00  0.00    -0.040 A 
ATOM     25  C   UNL d   1      25.483  -7.294  -3.528  0.00  0.00     0.009 A 
ATOM     26  C   UNL d   1      24.733  -6.693  -4.544  0.00  0.00     0.001 A 
ATOM     27  C   UNL d   1      24.249  -7.455  -5.608  0.00  0.00     0.000 A 
ATOM     28  C   UNL d   1      24.483  -8.824  -5.648  0.00  0.00     0.001 A 
ATOM     29  C   UNL d   1      25.156  -9.436  -4.599  0.00  0.00     0.009 A 
ENDBRANCH  23  24
ENDBRANCH  21  23
ENDBRANCH  14  17
BRANCH   1  30
ATOM     30  N   UNL d   1      22.425 -19.105   0.187  0.00  0.00    -0.155 N 
ATOM     31  C   UNL d   1      21.078 -19.053  -0.151  0.00  0.00     0.239 C 
ATOM     32  O   UNL d   1      20.575 -18.206  -0.889  0.00  0.00    -0.272 OA
ATOM     33  H   UNL d   1      22.838 -19.919   0.605  0.00  0.00     0.187 HD
BRANCH  31  34
ATOM     34  C   UNL d   1      20.164 -20.197   0.374  0.00  0.00     0.070 C 
ATOM     35  C   UNL d   1      19.992 -20.079   1.908  0.00  0.00     0.019 C 
ATOM     36  C   UNL d   1      18.769 -20.169  -0.245  0.00  0.00     0.019 C 
ENDBRANCH  31  34
ENDBRANCH   1  30
TORSDOF 5
ENDMDL
MODEL 2
REMARK VINA RESULT:   -10.090      2.017      2.891
REMARK INTER + INTRA:         -12.399
REMARK INTER:                 -11.582
REMARK INTRA:                  -0.817
REMARK CONF_INDEPENDENT:        1.492
REMARK UNBOUND:                -0.817
REMARK  5 active torsions:
REMARK  status: ('A' for Active; 'I' for Inactive)
REMARK    1  A    between atoms: C_2  and  C_4 
REMARK       I    between atoms: C_4  and  N_6 
REMARK    2  A    between atoms: N_6  and  C_7 
REMARK       I    between atoms: N_19  and  C_20 
REMARK    3  A    between atoms: C_20  and  C_22 
REMARK    4  A    between atoms: N_26  and  C_27 
REMARK    5  A    between atoms: C_27  and  C_28 
ROOT
ATOM      1  C   UNL d   1      23.283 -18.096  -0.205  0.00  0.00     0.734 C 
ATOM      2  N   UNL d   1      22.823 -17.170  -1.047  0.00  0.00    -0.019 NA
ATOM      3  C   UNL d   1      23.576 -16.105  -1.434  0.00  0.00     0.314 C 
ATOM      4  O   UNL d   1      22.905 -15.199  -2.020  0.00  0.00    -0.263 OA
ATOM      5  C   UNL d   1      24.927 -16.043  -1.072  0.00  0.00     0.155 C 
ATOM      6  C   UNL d   1      25.333 -17.062  -0.144  0.00  0.00     0.176 C 
ATOM      7  N   UNL d   1      24.514 -18.042   0.347  0.00  0.00    -0.043 NA
ATOM      8  N   UNL d   1      26.662 -17.098   0.322  0.00  0.00    -0.366 N 
ATOM      9  C   UNL d   1      27.647 -16.362  -0.442  0.00  0.00     0.102 C 
ATOM     10  C   UNL d   1      27.955 -17.041  -1.789  0.00  0.00     0.034 C 
ATOM     11  C   UNL d   1      27.098 -14.920  -0.613  0.00  0.00     0.112 C 
ATOM     12  C   UNL d   1      28.264 -13.997  -0.943  0.00  0.00     0.035 C 
ATOM     13  N   UNL d   1      25.895 -14.967  -1.526  0.00  0.00    -0.299 N 
ATOM     14  C   UNL d   1      25.673 -14.221  -2.713  0.00  0.00     0.260 C 
ATOM     15  O   UNL d   1      24.937 -14.454  -3.680  0.00  0.00    -0.267 OA
ATOM     16  H   UNL d   1      26.908 -17.850   0.948  0.00  0.00     0.161 HD
ENDROOT
BRANCH  14  17
ATOM     17  C   UNL d   1      26.538 -13.097  -3.098  0.00  0.00     0.048 C 
ATOM     18  C   UNL d   1      26.692 -11.941  -2.354  0.00  0.00     0.020 C 
ATOM     19  C   UNL d   1      27.565 -10.955  -2.818  0.00  0.00     0.018 C 
ATOM     20  C   UNL d   1      28.284 -11.158  -4.000  0.00  0.00     0.090 C 
ATOM     21  N   UNL d   1      28.069 -12.267  -4.750  0.00  0.00    -0.361 N 
ATOM     22  C   UNL d   1      27.119 -13.154  -4.350  0.00  0.00     0.107 C 
BRANCH  21  23
ATOM     23  C   UNL d   1      28.947 -12.489  -5.953  0.00  0.00     0.166 C 
BRANCH  23  24
ATOM     24  C   UNL d   1      28.314 -12.181  -7.289  0.00  0.00    -0.040 A 
ATOM     25  C   UNL d   1      27.258 -11.265  -7.421  0.00  0.00     0.009 A 
ATOM     26  C   UNL d   1      26.732 -10.987  -8.687  0.00  0.00     0.001 A 
ATOM     27  C   UNL d   1      27.280 -11.582  -9.823  0.00  0.00     0.000 A 
ATOM     28  C   UNL d   1      28.332 -12.482  -9.702  0.00  0.00     0.001 A 
ATOM     29  C   UNL d   1      28.800 -12.823  -8.440  0.00  0.00     0.009 A 
ENDBRANCH  23  24
ENDBRANCH  21  23
ENDBRANCH  14  17
BRANCH   1  30
ATOM     30  N   UNL d   1      22.382 -19.119   0.197  0.00  0.00    -0.155 N 
ATOM     31  C   UNL d   1      21.028 -19.075  -0.116  0.00  0.00     0.239 C 
ATOM     32  O   UNL d   1      20.507 -18.228  -0.842  0.00  0.00    -0.272 OA
ATOM     33  H   UNL d   1      22.807 -19.933   0.605  0.00  0.00     0.187 HD
BRANCH  31  34
ATOM     34  C   UNL d   1      20.132 -20.227   0.421  0.00  0.00     0.070 C 
ATOM     35  C   UNL d   1      19.920 -20.070   1.945  0.00  0.00     0.019 C 
ATOM     36  C   UNL d   1      18.752 -20.253  -0.232  0.00  0.00     0.019 C 
ENDBRANCH  31  34
ENDBRANCH   1  30
TORSDOF 5
ENDMDL
MODEL 3
REMARK VINA RESULT:    -9.952      1.936      4.173
REMARK INTER + INTRA:         -12.733
REMARK INTER:                 -11.443
REMARK INTRA:                  -1.290
REMARK CONF_INDEPENDENT:        1.492
REMARK UNBOUND:                -1.290
REMARK  5 active torsions:
REMARK  status: ('A' for Active; 'I' for Inactive)
REMARK    1  A    between atoms: C_2  and  C_4 
REMARK       I    between atoms: C_4  and  N_6 
REMARK    2  A    between atoms: N_6  and  C_7 
REMARK       I    between atoms: N_19  and  C_20 
REMARK    3  A    between atoms: C_20  and  C_22 
REMARK    4  A    between atoms: N_26  and  C_27 
REMARK    5  A    between atoms: C_27  and  C_28 
ROOT
ATOM      1  C   UNL d   1      23.321 -18.097  -0.193  0.00  0.00     0.734 C 
ATOM      2  N   UNL d   1      22.886 -17.169  -1.046  0.00  0.00    -0.019 NA
ATOM      3  C   UNL d   1      23.654 -16.110  -1.419  0.00  0.00     0.314 C 
ATOM      4  O   UNL d   1      23.001 -15.200  -2.020  0.00  0.00    -0.263 OA
ATOM      5  C   UNL d   1      24.997 -16.056  -1.029  0.00  0.00     0.155 C 
ATOM      6  C   UNL d   1      25.377 -17.076  -0.091  0.00  0.00     0.176 C 
ATOM      7  N   UNL d   1      24.540 -18.050   0.384  0.00  0.00    -0.043 NA
ATOM      8  N   UNL d   1      26.695 -17.120   0.403  0.00  0.00    -0.366 N 
ATOM      9  C   UNL d   1      27.701 -16.392  -0.341  0.00  0.00     0.102 C 
ATOM     10  C   UNL d   1      28.032 -17.075  -1.680  0.00  0.00     0.034 C 
ATOM     11  C   UNL d   1      27.165 -14.946  -0.525  0.00  0.00     0.112 C 
ATOM     12  C   UNL d   1      28.344 -14.031  -0.832  0.00  0.00     0.035 C 
ATOM     13  N   UNL d   1      25.982 -14.987  -1.463  0.00  0.00    -0.299 N 
ATOM     14  C   UNL d   1      25.789 -14.241  -2.655  0.00  0.00     0.260 C 
ATOM     15  O   UNL d   1      25.073 -14.470  -3.638  0.00  0.00    -0.267 OA
ATOM     16  H   UNL d   1      26.923 -17.873   1.035  0.00  0.00     0.161 HD
ENDROOT
BRANCH  14  17
ATOM     17  C   UNL d   1      26.670 -13.124  -3.024  0.00  0.00     0.048 C 
ATOM     18  C   UNL d   1      26.595 -11.857  -2.472  0.00  0.00     0.020 C 
ATOM     19  C   UNL d   1      27.508 -10.888  -2.891  0.00  0.00     0.018 C 
ATOM     20  C   UNL d   1      28.490 -11.212  -3.831  0.00  0.00     0.090 C 
ATOM     21  N   UNL d   1      28.505 -12.438  -4.411  0.00  0.00    -0.361 N 
ATOM     22  C   UNL d   1      27.528 -13.327  -4.088  0.00  0.00     0.107 C 
BRANCH  21  23
ATOM     23  C   UNL d   1      29.647 -12.771  -5.333  0.00  0.00     0.166 C 
BRANCH  23  24
ATOM     24  C   UNL d   1      29.984 -14.237  -5.454  0.00  0.00    -0.040 A 
ATOM     25  C   UNL d   1      30.111 -15.068  -4.329  0.00  0.00     0.009 A 
ATOM     26  C   UNL d   1      30.386 -16.430  -4.497  0.00  0.00     0.001 A 
ATOM     27  C   UNL d   1      30.492 -16.974  -5.777  0.00  0.00     0.000 A 
ATOM     28  C   UNL d   1      30.358 -16.161  -6.895  0.00  0.00     0.001 A 
ATOM     29  C   UNL d   1      30.167 -14.795  -6.730  0.00  0.00     0.009 A 
ENDBRANCH  23  24
ENDBRANCH  21  23
ENDBRANCH  14  17
BRANCH   1  30
ATOM     30  N   UNL d   1      22.405 -19.113   0.191  0.00  0.00    -0.155 N 
ATOM     31  C   UNL d   1      21.058 -19.058  -0.146  0.00  0.00     0.239 C 
ATOM     32  O   UNL d   1      20.556 -18.206  -0.881  0.00  0.00    -0.272 OA
ATOM     33  H   UNL d   1      22.817 -19.930   0.605  0.00  0.00     0.187 HD
BRANCH  31  34
ATOM     34  C   UNL d   1      20.143 -20.203   0.372  0.00  0.00     0.070 C 
ATOM     35  C   UNL d   1      19.918 -20.055   1.896  0.00  0.00     0.019 C 
ATOM     36  C   UNL d   1      18.769 -20.208  -0.294  0.00  0.00     0.019 C 
ENDBRANCH  31  34
ENDBRANCH   1  30
TORSDOF 5
ENDMDL
MODEL 4
REMARK VINA RESULT:    -9.666      1.418      2.456
REMARK INTER + INTRA:         -12.169
REMARK INTER:                 -11.158
REMARK INTRA:                  -1.011
REMARK CONF_INDEPENDENT:        1.492
REMARK UNBOUND:                -1.011
REMARK  5 active torsions:
REMARK  status: ('A' for Active; 'I' for Inactive)
REMARK    1  A    between atoms: C_2  and  C_4 
REMARK       I    between atoms: C_4  and  N_6 
REMARK    2  A    between atoms: N_6  and  C_7 
REMARK       I    between atoms: N_19  and  C_20 
REMARK    3  A    between atoms: C_20  and  C_22 
REMARK    4  A    between atoms: N_26  and  C_27 
REMARK    5  A    between atoms: C_27  and  C_28 
ROOT
ATOM      1  C   UNL d   1      23.364 -18.047  -0.193  0.00  0.00     0.734 C 
ATOM      2  N   UNL d   1      22.941 -17.114  -1.047  0.00  0.00    -0.019 NA
ATOM      3  C   UNL d   1      23.722 -16.063  -1.417  0.00  0.00     0.314 C 
ATOM      4  O   UNL d   1      23.081 -15.146  -2.020  0.00  0.00    -0.263 OA
ATOM      5  C   UNL d   1      25.064 -16.024  -1.022  0.00  0.00     0.155 C 
ATOM      6  C   UNL d   1      25.429 -17.048  -0.083  0.00  0.00     0.176 C 
ATOM      7  N   UNL d   1      24.581 -18.013   0.389  0.00  0.00    -0.043 NA
ATOM      8  N   UNL d   1      26.745 -17.106   0.416  0.00  0.00    -0.366 N 
ATOM      9  C   UNL d   1      27.762 -16.389  -0.324  0.00  0.00     0.102 C 
ATOM     10  C   UNL d   1      28.091 -17.075  -1.662  0.00  0.00     0.034 C 
ATOM     11  C   UNL d   1      27.242 -14.937  -0.509  0.00  0.00     0.112 C 
ATOM     12  C   UNL d   1      28.432 -14.035  -0.811  0.00  0.00     0.035 C 
ATOM     13  N   UNL d   1      26.062 -14.965  -1.452  0.00  0.00    -0.299 N 
ATOM     14  C   UNL d   1      25.882 -14.217  -2.645  0.00  0.00     0.260 C 
ATOM     15  O   UNL d   1      25.167 -14.438  -3.630  0.00  0.00    -0.267 OA
ATOM     16  H   UNL d   1      26.963 -17.862   1.049  0.00  0.00     0.161 HD
ENDROOT
BRANCH  14  17
ATOM     17  C   UNL d   1      26.776 -13.109  -3.009  0.00  0.00     0.048 C 
ATOM     18  C   UNL d   1      27.913 -13.248  -3.786  0.00  0.00     0.020 C 
ATOM     19  C   UNL d   1      28.666 -12.110  -4.083  0.00  0.00     0.018 C 
ATOM     20  C   UNL d   1      28.254 -10.858  -3.619  0.00  0.00     0.090 C 
ATOM     21  N   UNL d   1      27.176 -10.752  -2.803  0.00  0.00    -0.361 N 
ATOM     22  C   UNL d   1      26.531 -11.885  -2.417  0.00  0.00     0.107 C 
BRANCH  21  23
ATOM     23  C   UNL d   1      26.710  -9.371  -2.423  0.00  0.00     0.166 C 
BRANCH  23  24
ATOM     24  C   UNL d   1      26.655  -9.085  -0.941  0.00  0.00    -0.040 A 
ATOM     25  C   UNL d   1      27.479  -9.754  -0.021  0.00  0.00     0.009 A 
ATOM     26  C   UNL d   1      27.416  -9.424   1.337  0.00  0.00     0.001 A 
ATOM     27  C   UNL d   1      26.570  -8.406   1.776  0.00  0.00     0.000 A 
ATOM     28  C   UNL d   1      25.759  -7.733   0.871  0.00  0.00     0.001 A 
ATOM     29  C   UNL d   1      25.758  -8.114  -0.464  0.00  0.00     0.009 A 
ENDBRANCH  23  24
ENDBRANCH  21  23
ENDBRANCH  14  17
BRANCH   1  30
ATOM     30  N   UNL d   1      22.435 -19.053   0.187  0.00  0.00    -0.155 N 
ATOM     31  C   UNL d   1      21.090 -18.985  -0.158  0.00  0.00     0.239 C 
ATOM     32  O   UNL d   1      20.602 -18.129  -0.896  0.00  0.00    -0.272 OA
ATOM     33  H   UNL d   1      22.836 -19.874   0.605  0.00  0.00     0.187 HD
BRANCH  31  34
ATOM     34  C   UNL d   1      20.161 -20.121   0.357  0.00  0.00     0.070 C 
ATOM     35  C   UNL d   1      19.969 -19.997   1.887  0.00  0.00     0.019 C 
ATOM     36  C   UNL d   1      18.775 -20.084  -0.282  0.00  0.00     0.019 C 
ENDBRANCH  31  34
ENDBRANCH   1  30
TORSDOF 5
ENDMDL
MODEL 5
REMARK VINA RESULT:    -9.610      3.640      6.537
REMARK INTER + INTRA:         -12.189
REMARK INTER:                 -11.101
REMARK INTRA:                  -1.088
REMARK CONF_INDEPENDENT:        1.492
REMARK UNBOUND:                -1.088
REMARK  5 active torsions:
REMARK  status: ('A' for Active; 'I' for Inactive)
REMARK    1  A    between atoms: C_2  and  C_4 
REMARK       I    between atoms: C_4  and  N_6 
REMARK    2  A    between atoms: N_6  and  C_7 
REMARK       I    between atoms: N_19  and  C_20 
REMARK    3  A    between atoms: C_20  and  C_22 
REMARK    4  A    between atoms: N_26  and  C_27 
REMARK    5  A    between atoms: C_27  and  C_28 
ROOT
ATOM      1  C   UNL d   1      23.159 -17.780  -0.087  0.00  0.00     0.734 C 
ATOM      2  N   UNL d   1      24.259 -18.386   0.358  0.00  0.00    -0.019 NA
ATOM      3  C   UNL d   1      25.491 -18.121  -0.155  0.00  0.00     0.314 C 
ATOM      4  O   UNL d   1      26.376 -18.962   0.196  0.00  0.00    -0.263 OA
ATOM      5  C   UNL d   1      25.650 -17.074  -1.071  0.00  0.00     0.155 C 
ATOM      6  C   UNL d   1      24.414 -16.493  -1.518  0.00  0.00     0.176 C 
ATOM      7  N   UNL d   1      23.171 -16.879  -1.092  0.00  0.00    -0.043 NA
ATOM      8  N   UNL d   1      24.430 -15.447  -2.460  0.00  0.00    -0.366 N 
ATOM      9  C   UNL d   1      25.682 -14.743  -2.640  0.00  0.00     0.102 C 
ATOM     10  C   UNL d   1      26.017 -13.848  -1.434  0.00  0.00     0.034 C 
ATOM     11  C   UNL d   1      26.769 -15.820  -2.904  0.00  0.00     0.112 C 
ATOM     12  C   UNL d   1      27.955 -15.150  -3.585  0.00  0.00     0.035 C 
ATOM     13  N   UNL d   1      26.980 -16.612  -1.635  0.00  0.00    -0.299 N 
ATOM     14  C   UNL d   1      28.199 -16.850  -0.949  0.00  0.00     0.260 C 
ATOM     15  O   UNL d   1      28.410 -17.144   0.234  0.00  0.00    -0.267 OA
ATOM     16  H   UNL d   1      23.539 -15.050  -2.720  0.00  0.00     0.161 HD
ENDROOT
BRANCH  14  17
ATOM     17  C   UNL d   1      29.502 -16.514  -1.542  0.00  0.00     0.048 C 
ATOM     18  C   UNL d   1      30.172 -15.323  -1.327  0.00  0.00     0.020 C 
ATOM     19  C   UNL d   1      31.418 -15.136  -1.930  0.00  0.00     0.018 C 
ATOM     20  C   UNL d   1      31.977 -16.152  -2.710  0.00  0.00     0.090 C 
ATOM     21  N   UNL d   1      31.275 -17.284  -2.964  0.00  0.00    -0.361 N 
ATOM     22  C   UNL d   1      30.010 -17.394  -2.478  0.00  0.00     0.107 C 
BRANCH  21  23
ATOM     23  C   UNL d   1      31.965 -18.390  -3.718  0.00  0.00     0.166 C 
BRANCH  23  24
ATOM     24  C   UNL d   1      31.516 -18.587  -5.146  0.00  0.00    -0.040 A 
ATOM     25  C   UNL d   1      31.528 -17.540  -6.082  0.00  0.00     0.009 A 
ATOM     26  C   UNL d   1      31.138 -17.785  -7.404  0.00  0.00     0.001 A 
ATOM     27  C   UNL d   1      30.779 -19.071  -7.806  0.00  0.00     0.000 A 
ATOM     28  C   UNL d   1      30.775 -20.114  -6.888  0.00  0.00     0.001 A 
ATOM     29  C   UNL d   1      31.081 -19.858  -5.558  0.00  0.00     0.009 A 
ENDBRANCH  23  24
ENDBRANCH  21  23
ENDBRANCH  14  17
BRANCH   1  30
ATOM     30  N   UNL d   1      21.916 -18.195   0.463  0.00  0.00    -0.155 N 
ATOM     31  C   UNL d   1      21.014 -18.973  -0.254  0.00  0.00     0.239 C 
ATOM     32  O   UNL d   1      21.239 -19.458  -1.364  0.00  0.00    -0.272 OA
ATOM     33  H   UNL d   1      21.791 -18.002   1.440  0.00  0.00     0.187 HD
BRANCH  31  34
ATOM     34  C   UNL d   1      19.665 -19.325   0.435  0.00  0.00     0.070 C 
ATOM     35  C   UNL d   1      18.783 -20.163  -0.520  0.00  0.00     0.019 C 
ATOM     36  C   UNL d   1      19.851 -20.136   1.716  0.00  0.00     0.019 C 
ENDBRANCH  31  34
ENDBRANCH   1  30
TORSDOF 5
ENDMDL
MODEL 6
REMARK VINA RESULT:    -9.035      6.311      9.034
REMARK INTER + INTRA:         -11.382
REMARK INTER:                 -10.526
REMARK INTRA:                  -0.856
REMARK CONF_INDEPENDENT:        1.492
REMARK UNBOUND:                -0.856
REMARK  5 active torsions:
REMARK  status: ('A' for Active; 'I' for Inactive)
REMARK    1  A    between atoms: C_2  and  C_4 
REMARK       I    between atoms: C_4  and  N_6 
REMARK    2  A    between atoms: N_6  and  C_7 
REMARK       I    between atoms: N_19  and  C_20 
REMARK    3  A    between atoms: C_20  and  C_22 
REMARK    4  A    between atoms: N_26  and  C_27 
REMARK    5  A    between atoms: C_27  and  C_28 
ROOT
ATOM      1  C   UNL d   1      28.618 -13.761   6.966  0.00  0.00     0.734 C 
ATOM      2  N   UNL d   1      28.661 -14.725   6.045  0.00  0.00    -0.019 NA
ATOM      3  C   UNL d   1      28.304 -14.506   4.751  0.00  0.00     0.314 C 
ATOM      4  O   UNL d   1      28.155 -15.575   4.081  0.00  0.00    -0.263 OA
ATOM      5  C   UNL d   1      28.029 -13.203   4.318  0.00  0.00     0.155 C 
ATOM      6  C   UNL d   1      27.979 -12.232   5.376  0.00  0.00     0.176 C 
ATOM      7  N   UNL d   1      28.200 -12.507   6.699  0.00  0.00    -0.043 NA
ATOM      8  N   UNL d   1      27.686 -10.886   5.081  0.00  0.00    -0.366 N 
ATOM      9  C   UNL d   1      27.836 -10.468   3.703  0.00  0.00     0.102 C 
ATOM     10  C   UNL d   1      29.316 -10.382   3.286  0.00  0.00     0.034 C 
ATOM     11  C   UNL d   1      27.030 -11.473   2.838  0.00  0.00     0.112 C 
ATOM     12  C   UNL d   1      26.732 -10.821   1.493  0.00  0.00     0.035 C 
ATOM     13  N   UNL d   1      27.724 -12.814   2.884  0.00  0.00    -0.299 N 
ATOM     14  C   UNL d   1      28.153 -13.611   1.791  0.00  0.00     0.260 C 
ATOM     15  O   UNL d   1      29.022 -14.490   1.733  0.00  0.00    -0.267 OA
ATOM     16  H   UNL d   1      27.692 -10.236   5.852  0.00  0.00     0.161 HD
ENDROOT
BRANCH  14  17
ATOM     17  C   UNL d   1      27.761 -13.309   0.408  0.00  0.00     0.048 C 
ATOM     18  C   UNL d   1      28.351 -12.332  -0.374  0.00  0.00     0.020 C 
ATOM     19  C   UNL d   1      27.902 -12.160  -1.685  0.00  0.00     0.018 C 
ATOM     20  C   UNL d   1      26.894 -12.984  -2.193  0.00  0.00     0.090 C 
ATOM     21  N   UNL d   1      26.281 -13.890  -1.391  0.00  0.00    -0.361 N 
ATOM     22  C   UNL d   1      26.640 -13.953  -0.081  0.00  0.00     0.107 C 
BRANCH  21  23
ATOM     23  C   UNL d   1      25.280 -14.825  -2.015  0.00  0.00     0.166 C 
BRANCH  23  24
ATOM     24  C   UNL d   1      25.030 -16.111  -1.264  0.00  0.00    -0.040 A 
ATOM     25  C   UNL d   1      26.078 -16.954  -0.859  0.00  0.00     0.009 A 
ATOM     26  C   UNL d   1      25.795 -18.115  -0.132  0.00  0.00     0.001 A 
ATOM     27  C   UNL d   1      24.482 -18.418   0.230  0.00  0.00     0.000 A 
ATOM     28  C   UNL d   1      23.441 -17.583  -0.158  0.00  0.00     0.001 A 
ATOM     29  C   UNL d   1      23.710 -16.475  -0.951  0.00  0.00     0.009 A 
ENDBRANCH  23  24
ENDBRANCH  21  23
ENDBRANCH  14  17
BRANCH   1  30
ATOM     30  N   UNL d   1      28.932 -14.122   8.304  0.00  0.00    -0.155 N 
ATOM     31  C   UNL d   1      28.720 -13.257   9.372  0.00  0.00     0.239 C 
ATOM     32  O   UNL d   1      28.157 -12.166   9.283  0.00  0.00    -0.272 OA
ATOM     33  H   UNL d   1      29.192 -15.083   8.442  0.00  0.00     0.187 HD
BRANCH  31  34
ATOM     34  C   UNL d   1      29.149 -13.745  10.785  0.00  0.00     0.070 C 
ATOM     35  C   UNL d   1      27.949 -13.670  11.759  0.00  0.00     0.019 C 
ATOM     36  C   UNL d   1      29.648 -15.188  10.785  0.00  0.00     0.019 C 
ENDBRANCH  31  34
ENDBRANCH   1  30
TORSDOF 5
ENDMDL
MODEL 7
REMARK VINA RESULT:    -8.433      3.339      5.756
REMARK INTER + INTRA:         -11.116
REMARK INTER:                  -9.924
REMARK INTRA:                  -1.192
REMARK CONF_INDEPENDENT:        1.492
REMARK UNBOUND:                -1.192
REMARK  5 active torsions:
REMARK  status: ('A' for Active; 'I' for Inactive)
REMARK    1  A    between atoms: C_2  and  C_4 
REMARK       I    between atoms: C_4  and  N_6 
REMARK    2  A    between atoms: N_6  and  C_7 
REMARK       I    between atoms: N_19  and  C_20 
REMARK    3  A    between atoms: C_20  and  C_22 
REMARK    4  A    between atoms: N_26  and  C_27 
REMARK    5  A    between atoms: C_27  and  C_28 
ROOT
ATOM      1  C   UNL d   1      24.441 -17.489  -0.558  0.00  0.00     0.734 C 
ATOM      2  N   UNL d   1      24.259 -16.932  -1.756  0.00  0.00    -0.019 NA
ATOM      3  C   UNL d   1      25.211 -16.161  -2.349  0.00  0.00     0.314 C 
ATOM      4  O   UNL d   1      24.780 -15.507  -3.349  0.00  0.00    -0.263 OA
ATOM      5  C   UNL d   1      26.483 -16.065  -1.772  0.00  0.00     0.155 C 
ATOM      6  C   UNL d   1      26.585 -16.669  -0.473  0.00  0.00     0.176 C 
ATOM      7  N   UNL d   1      25.564 -17.317   0.170  0.00  0.00    -0.043 NA
ATOM      8  N   UNL d   1      27.805 -16.621   0.231  0.00  0.00    -0.366 N 
ATOM      9  C   UNL d   1      28.994 -16.316  -0.536  0.00  0.00     0.102 C 
ATOM     10  C   UNL d   1      29.406 -17.487  -1.447  0.00  0.00     0.034 C 
ATOM     11  C   UNL d   1      28.695 -15.018  -1.332  0.00  0.00     0.112 C 
ATOM     12  C   UNL d   1      30.021 -14.386  -1.738  0.00  0.00     0.035 C 
ATOM     13  N   UNL d   1      27.657 -15.326  -2.385  0.00  0.00    -0.299 N 
ATOM     14  C   UNL d   1      27.735 -15.086  -3.782  0.00  0.00     0.260 C 
ATOM     15  O   UNL d   1      27.134 -15.621  -4.722  0.00  0.00    -0.267 OA
ATOM     16  H   UNL d   1      27.837 -17.087   1.126  0.00  0.00     0.161 HD
ENDROOT
BRANCH  14  17
ATOM     17  C   UNL d   1      28.805 -14.269  -4.372  0.00  0.00     0.048 C 
ATOM     18  C   UNL d   1      28.810 -12.886  -4.390  0.00  0.00     0.020 C 
ATOM     19  C   UNL d   1      29.900 -12.226  -4.961  0.00  0.00     0.018 C 
ATOM     20  C   UNL d   1      30.971 -12.961  -5.476  0.00  0.00     0.090 C 
ATOM     21  N   UNL d   1      30.918 -14.316  -5.510  0.00  0.00    -0.361 N 
ATOM     22  C   UNL d   1      29.792 -14.938  -5.071  0.00  0.00     0.107 C 
BRANCH  21  23
ATOM     23  C   UNL d   1      32.141 -15.061  -5.973  0.00  0.00     0.166 C 
BRANCH  23  24
ATOM     24  C   UNL d   1      31.898 -16.455  -6.499  0.00  0.00    -0.040 A 
ATOM     25  C   UNL d   1      31.862 -16.737  -7.875  0.00  0.00     0.009 A 
ATOM     26  C   UNL d   1      31.671 -18.053  -8.310  0.00  0.00     0.001 A 
ATOM     27  C   UNL d   1      31.559 -19.092  -7.385  0.00  0.00     0.000 A 
ATOM     28  C   UNL d   1      31.604 -18.822  -6.023  0.00  0.00     0.001 A 
ATOM     29  C   UNL d   1      31.710 -17.507  -5.588  0.00  0.00     0.009 A 
ENDBRANCH  23  24
ENDBRANCH  21  23
ENDBRANCH  14  17
BRANCH   1  30
ATOM     30  N   UNL d   1      23.348 -18.204   0.002  0.00  0.00    -0.155 N 
ATOM     31  C   UNL d   1      22.400 -18.843  -0.789  0.00  0.00     0.239 C 
ATOM     32  O   UNL d   1      22.468 -18.943  -2.014  0.00  0.00    -0.272 OA
ATOM     33  H   UNL d   1      23.379 -18.327   0.999  0.00  0.00     0.187 HD
BRANCH  31  34
ATOM     34  C   UNL d   1      21.222 -19.552  -0.063  0.00  0.00     0.070 C 
ATOM     35  C   UNL d   1      21.029 -18.950   1.350  0.00  0.00     0.019 C 
ATOM     36  C   UNL d   1      19.897 -19.406  -0.807  0.00  0.00     0.019 C 
ENDBRANCH  31  34
ENDBRANCH   1  30
TORSDOF 5
ENDMDL
MODEL 8
REMARK VINA RESULT:    -8.185      4.159      6.765
REMARK INTER + INTRA:         -11.043
REMARK INTER:                  -9.676
REMARK INTRA:                  -1.366
REMARK CONF_INDEPENDENT:        1.492
REMARK UNBOUND:                -1.366
REMARK  5 active torsions:
REMARK  status: ('A' for Active; 'I' for Inactive)
REMARK    1  A    between atoms: C_2  and  C_4 
REMARK       I    between atoms: C_4  and  N_6 
REMARK    2  A    between atoms: N_6  and  C_7 
REMARK       I    between atoms: N_19  and  C_20 
REMARK    3  A    between atoms: C_20  and  C_22 
REMARK    4  A    between atoms: N_26  and  C_27 
REMARK    5  A    between atoms: C_27  and  C_28 
ROOT
ATOM      1  C   UNL d   1      24.950 -16.062  -1.830  0.00  0.00     0.734 C 
ATOM      2  N   UNL d   1      24.780 -15.543  -3.046  0.00  0.00    -0.019 NA
ATOM      3  C   UNL d   1      25.823 -15.085  -3.791  0.00  0.00     0.314 C 
ATOM      4  O   UNL d   1      25.461 -14.395  -4.795  0.00  0.00    -0.263 OA
ATOM      5  C   UNL d   1      27.135 -15.298  -3.351  0.00  0.00     0.155 C 
ATOM      6  C   UNL d   1      27.228 -15.836  -2.023  0.00  0.00     0.176 C 
ATOM      7  N   UNL d   1      26.156 -16.155  -1.232  0.00  0.00    -0.043 NA
ATOM      8  N   UNL d   1      28.492 -16.074  -1.448  0.00  0.00    -0.366 N 
ATOM      9  C   UNL d   1      29.623 -16.138  -2.350  0.00  0.00     0.102 C 
ATOM     10  C   UNL d   1      29.611 -17.424  -3.196  0.00  0.00     0.034 C 
ATOM     11  C   UNL d   1      29.578 -14.851  -3.218  0.00  0.00     0.112 C 
ATOM     12  C   UNL d   1      30.965 -14.616  -3.802  0.00  0.00     0.035 C 
ATOM     13  N   UNL d   1      28.380 -14.931  -4.135  0.00  0.00    -0.299 N 
ATOM     14  C   UNL d   1      28.355 -14.796  -5.548  0.00  0.00     0.260 C 
ATOM     15  O   UNL d   1      27.532 -15.203  -6.378  0.00  0.00    -0.267 OA
ATOM     16  H   UNL d   1      28.507 -16.483  -0.525  0.00  0.00     0.161 HD
ENDROOT
BRANCH  14  17
ATOM     17  C   UNL d   1      29.523 -14.325  -6.305  0.00  0.00     0.048 C 
ATOM     18  C   UNL d   1      29.830 -12.993  -6.517  0.00  0.00     0.020 C 
ATOM     19  C   UNL d   1      30.985 -12.675  -7.234  0.00  0.00     0.018 C 
ATOM     20  C   UNL d   1      31.820 -13.694  -7.700  0.00  0.00     0.090 C 
ATOM     21  N   UNL d   1      31.468 -14.994  -7.543  0.00  0.00    -0.361 N 
ATOM     22  C   UNL d   1      30.275 -15.283  -6.958  0.00  0.00     0.107 C 
BRANCH  21  23
ATOM     23  C   UNL d   1      32.454 -16.051  -7.965  0.00  0.00     0.166 C 
BRANCH  23  24
ATOM     24  C   UNL d   1      32.047 -17.476  -7.680  0.00  0.00    -0.040 A 
ATOM     25  C   UNL d   1      31.819 -17.940  -6.374  0.00  0.00     0.009 A 
ATOM     26  C   UNL d   1      31.406 -19.260  -6.167  0.00  0.00     0.001 A 
ATOM     27  C   UNL d   1      31.177 -20.106  -7.252  0.00  0.00     0.000 A 
ATOM     28  C   UNL d   1      31.390 -19.652  -8.548  0.00  0.00     0.001 A 
ATOM     29  C   UNL d   1      31.880 -18.368  -8.753  0.00  0.00     0.009 A 
ENDBRANCH  23  24
ENDBRANCH  21  23
ENDBRANCH  14  17
BRANCH   1  30
ATOM     30  N   UNL d   1      23.783 -16.431  -1.108  0.00  0.00    -0.155 N 
ATOM     31  C   UNL d   1      23.161 -17.660  -1.289  0.00  0.00     0.239 C 
ATOM     32  O   UNL d   1      23.604 -18.570  -1.991  0.00  0.00    -0.272 OA
ATOM     33  H   UNL d   1      23.516 -15.803  -0.371  0.00  0.00     0.187 HD
BRANCH  31  34
ATOM     34  C   UNL d   1      21.862 -17.932  -0.478  0.00  0.00     0.070 C 
ATOM     35  C   UNL d   1      20.937 -18.892  -1.263  0.00  0.00     0.019 C 
ATOM     36  C   UNL d   1      22.137 -18.571   0.881  0.00  0.00     0.019 C 
ENDBRANCH  31  34
ENDBRANCH   1  30
TORSDOF 5
ENDMDL
MODEL 9
REMARK VINA RESULT:    -8.095      2.251      3.593
REMARK INTER + INTRA:         -11.121
REMARK INTER:                  -9.587
REMARK INTRA:                  -1.534
REMARK CONF_INDEPENDENT:        1.492
REMARK UNBOUND:                -1.534
REMARK  5 active torsions:
REMARK  status: ('A' for Active; 'I' for Inactive)
REMARK    1  A    between atoms: C_2  and  C_4 
REMARK       I    between atoms: C_4  and  N_6 
REMARK    2  A    between atoms: N_6  and  C_7 
REMARK       I    between atoms: N_19  and  C_20 
REMARK    3  A    between atoms: C_20  and  C_22 
REMARK    4  A    between atoms: N_26  and  C_27 
REMARK    5  A    between atoms: C_27  and  C_28 
ROOT
ATOM      1  C   UNL d   1      23.869 -18.520  -0.336  0.00  0.00     0.734 C 
ATOM      2  N   UNL d   1      24.798 -18.461   0.619  0.00  0.00    -0.019 NA
ATOM      3  C   UNL d   1      25.962 -17.777   0.457  0.00  0.00     0.314 C 
ATOM      4  O   UNL d   1      26.830 -18.040   1.347  0.00  0.00    -0.263 OA
ATOM      5  C   UNL d   1      26.144 -16.978  -0.678  0.00  0.00     0.155 C 
ATOM      6  C   UNL d   1      25.112 -17.119  -1.666  0.00  0.00     0.176 C 
ATOM      7  N   UNL d   1      24.016 -17.930  -1.541  0.00  0.00    -0.043 NA
ATOM      8  N   UNL d   1      25.186 -16.389  -2.869  0.00  0.00    -0.366 N 
ATOM      9  C   UNL d   1      26.077 -15.248  -2.892  0.00  0.00     0.102 C 
ATOM     10  C   UNL d   1      25.532 -14.078  -2.053  0.00  0.00     0.034 C 
ATOM     11  C   UNL d   1      27.460 -15.747  -2.392  0.00  0.00     0.112 C 
ATOM     12  C   UNL d   1      28.524 -14.765  -2.863  0.00  0.00     0.035 C 
ATOM     13  N   UNL d   1      27.348 -16.088  -0.925  0.00  0.00    -0.299 N 
ATOM     14  C   UNL d   1      28.148 -15.608   0.144  0.00  0.00     0.260 C 
ATOM     15  O   UNL d   1      27.907 -15.533   1.356  0.00  0.00    -0.267 OA
ATOM     16  H   UNL d   1      24.422 -16.498  -3.519  0.00  0.00     0.161 HD
ENDROOT
BRANCH  14  17
ATOM     17  C   UNL d   1      29.383 -14.847  -0.090  0.00  0.00     0.048 C 
ATOM     18  C   UNL d   1      30.655 -15.389  -0.040  0.00  0.00     0.020 C 
ATOM     19  C   UNL d   1      31.748 -14.563  -0.307  0.00  0.00     0.018 C 
ATOM     20  C   UNL d   1      31.545 -13.222  -0.643  0.00  0.00     0.090 C 
ATOM     21  N   UNL d   1      30.297 -12.692  -0.620  0.00  0.00    -0.361 N 
ATOM     22  C   UNL d   1      29.259 -13.478  -0.230  0.00  0.00     0.107 C 
BRANCH  21  23
ATOM     23  C   UNL d   1      30.121 -11.274  -1.096  0.00  0.00     0.166 C 
BRANCH  23  24
ATOM     24  C   UNL d   1      28.921 -11.024  -1.977  0.00  0.00    -0.040 A 
ATOM     25  C   UNL d   1      27.802 -10.306  -1.526  0.00  0.00     0.009 A 
ATOM     26  C   UNL d   1      26.731 -10.069  -2.395  0.00  0.00     0.001 A 
ATOM     27  C   UNL d   1      26.789 -10.505  -3.719  0.00  0.00     0.000 A 
ATOM     28  C   UNL d   1      27.897 -11.207  -4.176  0.00  0.00     0.001 A 
ATOM     29  C   UNL d   1      28.924 -11.516  -3.294  0.00  0.00     0.009 A 
ENDBRANCH  23  24
ENDBRANCH  21  23
ENDBRANCH  14  17
BRANCH   1  30
ATOM     30  N   UNL d   1      22.729 -19.332  -0.090  0.00  0.00    -0.155 N 
ATOM     31  C   UNL d   1      21.441 -18.907  -0.394  0.00  0.00     0.239 C 
ATOM     32  O   UNL d   1      21.173 -17.862  -0.988  0.00  0.00    -0.272 OA
ATOM     33  H   UNL d   1      22.925 -20.276   0.193  0.00  0.00     0.187 HD
BRANCH  31  34
ATOM     34  C   UNL d   1      20.268 -19.864  -0.035  0.00  0.00     0.070 C 
ATOM     35  C   UNL d   1      19.854 -19.664   1.442  0.00  0.00     0.019 C 
ATOM     36  C   UNL d   1      19.028 -19.625  -0.893  0.00  0.00     0.019 C 
ENDBRANCH  31  34
ENDBRANCH   1  30
TORSDOF 5
ENDMDL
