MODEL 1
REMARK VINA RESULT:   -28.930      0.000      0.000
REMARK INTER + INTRA:         -33.279
REMARK INTER:                 -31.018
REMARK INTRA:                  -2.262
REMARK CONF_INDEPENDENT:        2.088
REMARK UNBOUND:                -2.262
REMARK  7 active torsions:
REMARK  status: ('A' for Active; 'I' for Inactive)
REMARK    1  A    between atoms: C_3  and  C_4 
REMARK       I    between atoms: C_4  and  N_6 
REMARK    2  A    between atoms: N_6  and  N_7 
REMARK    3  A    between atoms: N_13  and  C_14 
REMARK    4  A    between atoms: C_14  and  C_15 
REMARK    5  A    between atoms: N_24  and  C_25 
REMARK    6  A    between atoms: C_25  and  C_26 
REMARK       I    between atoms: C_26  and  N_28 
REMARK    7  A    between atoms: N_28  and  C_29 
ROOT
ATOM      1  C   UNL d   1      25.201 -18.575   1.336  0.00  0.00     0.051 C 
ATOM      2  C   UNL d   1      24.801 -17.609   0.229  0.00  0.00    -0.021 A 
ATOM      3  C   UNL d   1      23.584 -17.667  -0.512  0.00  0.00     0.083 A 
ATOM      4  S   UNL d   1      23.513 -16.387  -1.643  0.00  0.00    -0.065 SA
ATOM      5  C   UNL d   1      24.987 -15.756  -1.213  0.00  0.00     0.098 A 
ATOM      6  C   UNL d   1      25.650 -16.441  -0.226  0.00  0.00     0.074 A 
ATOM      7  C   UNL d   1      26.989 -15.886   0.158  0.00  0.00     0.265 C 
ATOM      8  O   UNL d   1      27.693 -16.409   1.018  0.00  0.00    -0.267 OA
ATOM      9  N   UNL d   1      27.399 -14.749  -0.593  0.00  0.00    -0.261 N 
ATOM     10  C   UNL d   1      26.815 -14.480  -1.824  0.00  0.00     0.333 C 
ATOM     11  O   UNL d   1      27.480 -14.137  -2.810  0.00  0.00    -0.246 OA
ATOM     12  N   UNL d   1      25.448 -14.664  -1.933  0.00  0.00    -0.283 N 
ENDROOT
BRANCH  12  13
ATOM     13  C   UNL d   1      24.699 -14.053  -3.077  0.00  0.00     0.237 C 
BRANCH  13  14
ATOM     14  C   UNL d   1      25.474 -13.757  -4.379  0.00  0.00     0.240 C 
ATOM     15  O   UNL d   1      25.550 -14.581  -5.285  0.00  0.00    -0.271 OA
ATOM     16  N   UNL d   1      26.209 -12.575  -4.464  0.00  0.00    -0.326 N 
ATOM     17  H   UNL d   1      26.701 -12.280  -3.629  0.00  0.00     0.169 HD
BRANCH  16  18
ATOM     18  C   UNL d   1      26.831 -12.316  -5.722  0.00  0.00     0.034 A 
ATOM     19  C   UNL d   1      27.857 -13.129  -6.204  0.00  0.00     0.029 A 
ATOM     20  C   UNL d   1      28.390 -12.890  -7.480  0.00  0.00     0.002 A 
ATOM     21  C   UNL d   1      27.917 -11.836  -8.266  0.00  0.00     0.000 A 
ATOM     22  C   UNL d   1      26.885 -11.033  -7.795  0.00  0.00     0.002 A 
ATOM     23  C   UNL d   1      26.342 -11.279  -6.535  0.00  0.00     0.029 A 
ENDBRANCH  16  18
ENDBRANCH  13  14
ENDBRANCH  12  13
BRANCH   9  24
ATOM     24  C   UNL d   1      28.720 -14.092  -0.334  0.00  0.00     0.177 C 
BRANCH  24  25
ATOM     25  C   UNL d   1      29.186 -13.989   1.138  0.00  0.00    -0.018 A 
ATOM     26  C   UNL d   1      30.523 -14.316   1.477  0.00  0.00     0.010 A 
ATOM     27  C   UNL d   1      31.053 -14.024   2.745  0.00  0.00     0.001 A 
ATOM     28  C   UNL d   1      30.268 -13.389   3.701  0.00  0.00     0.002 A 
ATOM     29  C   UNL d   1      28.941 -13.083   3.402  0.00  0.00     0.024 A 
ATOM     30  C   UNL d   1      28.393 -13.406   2.147  0.00  0.00     0.042 A 
ATOM     31 CL   UNL d   1      26.753 -12.931   1.849  0.00  0.00    -0.084 Cl
ENDBRANCH  24  25
ENDBRANCH   9  24
BRANCH   3  32
ATOM     32  C   UNL d   1      22.378 -18.550  -0.531  0.00  0.00     0.273 C 
ATOM     33  O   UNL d   1      22.378 -19.741  -0.221  0.00  0.00    -0.266 OA
ATOM     34  N   UNL d   1      21.165 -17.924  -0.954  0.00  0.00    -0.289 N 
ATOM     35  H   UNL d   1      21.163 -16.918  -1.128  0.00  0.00     0.183 HD
BRANCH  34  36
ATOM     36  N   UNL d   1      19.905 -18.575  -0.917  0.00  0.00    -0.247 NA
ATOM     37  H   UNL d   1      20.044 -19.542  -1.232  0.00  0.00     0.143 HD
ATOM     38  H   UNL d   1      19.285 -18.152  -1.615  0.00  0.00     0.143 HD
ENDBRANCH  34  36
ENDBRANCH   3  32
TORSDOF 7
ENDMDL
MODEL 2
REMARK VINA RESULT:   -28.862      3.001      4.152
REMARK INTER + INTRA:         -33.090
REMARK INTER:                 -30.950
REMARK INTRA:                  -2.140
REMARK CONF_INDEPENDENT:        2.088
REMARK UNBOUND:                -2.140
REMARK  7 active torsions:
REMARK  status: ('A' for Active; 'I' for Inactive)
REMARK    1  A    between atoms: C_3  and  C_4 
REMARK       I    between atoms: C_4  and  N_6 
REMARK    2  A    between atoms: N_6  and  N_7 
REMARK    3  A    between atoms: N_13  and  C_14 
REMARK    4  A    between atoms: C_14  and  C_15 
REMARK    5  A    between atoms: N_24  and  C_25 
REMARK    6  A    between atoms: C_25  and  C_26 
REMARK       I    between atoms: C_26  and  N_28 
REMARK    7  A    between atoms: N_28  and  C_29 
ROOT
ATOM      1  C   UNL d   1      25.375 -19.011   0.218  0.00  0.00     0.051 C 
ATOM      2  C   UNL d   1      24.883 -17.792  -0.551  0.00  0.00    -0.021 A 
ATOM      3  C   UNL d   1      23.519 -17.395  -0.675  0.00  0.00     0.083 A 
ATOM      4  S   UNL d   1      23.397 -15.960  -1.597  0.00  0.00    -0.065 SA
ATOM      5  C   UNL d   1      25.034 -15.826  -1.838  0.00  0.00     0.098 A 
ATOM      6  C   UNL d   1      25.791 -16.826  -1.282  0.00  0.00     0.074 A 
ATOM      7  C   UNL d   1      27.269 -16.720  -1.509  0.00  0.00     0.265 C 
ATOM      8  O   UNL d   1      28.060 -17.554  -1.077  0.00  0.00    -0.267 OA
ATOM      9  N   UNL d   1      27.670 -15.615  -2.311  0.00  0.00    -0.261 N 
ATOM     10  C   UNL d   1      26.750 -14.986  -3.140  0.00  0.00     0.333 C 
ATOM     11  O   UNL d   1      27.023 -14.659  -4.302  0.00  0.00    -0.246 OA
ATOM     12  N   UNL d   1      25.477 -14.782  -2.638  0.00  0.00    -0.283 N 
ENDROOT
BRANCH  12  13
ATOM     13  C   UNL d   1      24.559 -13.802  -3.301  0.00  0.00     0.237 C 
BRANCH  13  14
ATOM     14  C   UNL d   1      25.171 -12.511  -3.884  0.00  0.00     0.240 C 
ATOM     15  O   UNL d   1      25.529 -11.584  -3.163  0.00  0.00    -0.271 OA
ATOM     16  N   UNL d   1      25.193 -12.349  -5.268  0.00  0.00    -0.326 N 
ATOM     17  H   UNL d   1      24.382 -12.676  -5.781  0.00  0.00     0.169 HD
BRANCH  16  18
ATOM     18  C   UNL d   1      25.849 -11.177  -5.750  0.00  0.00     0.034 A 
ATOM     19  C   UNL d   1      25.446  -9.904  -5.347  0.00  0.00     0.029 A 
ATOM     20  C   UNL d   1      26.165  -8.779  -5.779  0.00  0.00     0.002 A 
ATOM     21  C   UNL d   1      27.270  -8.919  -6.624  0.00  0.00     0.000 A 
ATOM     22  C   UNL d   1      27.683 -10.186  -7.016  0.00  0.00     0.002 A 
ATOM     23  C   UNL d   1      26.980 -11.307  -6.574  0.00  0.00     0.029 A 
ENDBRANCH  16  18
ENDBRANCH  13  14
ENDBRANCH  12  13
BRANCH   9  24
ATOM     24  C   UNL d   1      29.113 -15.385  -2.637  0.00  0.00     0.177 C 
BRANCH  24  25
ATOM     25  C   UNL d   1      29.763 -16.319  -3.687  0.00  0.00    -0.018 A 
ATOM     26  C   UNL d   1      30.080 -17.656  -3.338  0.00  0.00     0.010 A 
ATOM     27  C   UNL d   1      30.455 -18.601  -4.309  0.00  0.00     0.001 A 
ATOM     28  C   UNL d   1      30.510 -18.239  -5.650  0.00  0.00     0.002 A 
ATOM     29  C   UNL d   1      30.230 -16.923  -6.015  0.00  0.00     0.024 A 
ATOM     30  C   UNL d   1      29.890 -15.963  -5.044  0.00  0.00     0.042 A 
ATOM     31 CL   UNL d   1      29.502 -14.369  -5.603  0.00  0.00    -0.084 Cl
ENDBRANCH  24  25
ENDBRANCH   9  24
BRANCH   3  32
ATOM     32  C   UNL d   1      22.201 -17.912  -0.196  0.00  0.00     0.273 C 
ATOM     33  O   UNL d   1      21.914 -18.106   0.986  0.00  0.00    -0.266 OA
ATOM     34  N   UNL d   1      21.243 -18.195  -1.218  0.00  0.00    -0.289 N 
ATOM     35  H   UNL d   1      21.465 -17.952  -2.183  0.00  0.00     0.183 HD
BRANCH  34  36
ATOM     36  N   UNL d   1      19.905 -18.576  -0.939  0.00  0.00    -0.247 NA
ATOM     37  H   UNL d   1      19.291 -17.818  -1.260  0.00  0.00     0.143 HD
ATOM     38  H   UNL d   1      19.770 -18.619   0.076  0.00  0.00     0.143 HD
ENDBRANCH  34  36
ENDBRANCH   3  32
TORSDOF 7
ENDMDL
MODEL 3
REMARK VINA RESULT:   -28.490      1.549      2.156
REMARK INTER + INTRA:         -32.765
REMARK INTER:                 -30.578
REMARK INTRA:                  -2.187
REMARK CONF_INDEPENDENT:        2.088
REMARK UNBOUND:                -2.187
REMARK  7 active torsions:
REMARK  status: ('A' for Active; 'I' for Inactive)
REMARK    1  A    between atoms: C_3  and  C_4 
REMARK       I    between atoms: C_4  and  N_6 
REMARK    2  A    between atoms: N_6  and  N_7 
REMARK    3  A    between atoms: N_13  and  C_14 
REMARK    4  A    between atoms: C_14  and  C_15 
REMARK    5  A    between atoms: N_24  and  C_25 
REMARK    6  A    between atoms: C_25  and  C_26 
REMARK       I    between atoms: C_26  and  N_28 
REMARK    7  A    between atoms: N_28  and  C_29 
ROOT
ATOM      1  C   UNL d   1      25.308 -18.576   1.189  0.00  0.00     0.051 C 
ATOM      2  C   UNL d   1      24.841 -17.591   0.125  0.00  0.00    -0.021 A 
ATOM      3  C   UNL d   1      23.580 -17.637  -0.540  0.00  0.00     0.083 A 
ATOM      4  S   UNL d   1      23.441 -16.338  -1.643  0.00  0.00    -0.065 SA
ATOM      5  C   UNL d   1      24.940 -15.715  -1.296  0.00  0.00     0.098 A 
ATOM      6  C   UNL d   1      25.662 -16.416  -0.364  0.00  0.00     0.074 A 
ATOM      7  C   UNL d   1      27.023 -15.869  -0.055  0.00  0.00     0.265 C 
ATOM      8  O   UNL d   1      27.779 -16.406   0.750  0.00  0.00    -0.267 OA
ATOM      9  N   UNL d   1      27.388 -14.720  -0.812  0.00  0.00    -0.261 N 
ATOM     10  C   UNL d   1      26.728 -14.430  -2.000  0.00  0.00     0.333 C 
ATOM     11  O   UNL d   1      27.331 -14.072  -3.019  0.00  0.00    -0.246 OA
ATOM     12  N   UNL d   1      25.356 -14.612  -2.026  0.00  0.00    -0.283 N 
ENDROOT
BRANCH  12  13
ATOM     13  C   UNL d   1      24.539 -13.982  -3.111  0.00  0.00     0.237 C 
BRANCH  13  14
ATOM     14  C   UNL d   1      25.257 -13.552  -4.408  0.00  0.00     0.240 C 
ATOM     15  O   UNL d   1      25.340 -14.301  -5.377  0.00  0.00    -0.271 OA
ATOM     16  N   UNL d   1      25.936 -12.336  -4.423  0.00  0.00    -0.326 N 
ATOM     17  H   UNL d   1      26.441 -12.082  -3.582  0.00  0.00     0.169 HD
BRANCH  16  18
ATOM     18  C   UNL d   1      26.505 -11.954  -5.675  0.00  0.00     0.034 A 
ATOM     19  C   UNL d   1      26.084 -10.804  -6.342  0.00  0.00     0.029 A 
ATOM     20  C   UNL d   1      26.723 -10.418  -7.530  0.00  0.00     0.002 A 
ATOM     21  C   UNL d   1      27.764 -11.183  -8.062  0.00  0.00     0.000 A 
ATOM     22  C   UNL d   1      28.197 -12.321  -7.393  0.00  0.00     0.002 A 
ATOM     23  C   UNL d   1      27.575 -12.697  -6.203  0.00  0.00     0.029 A 
ENDBRANCH  16  18
ENDBRANCH  13  14
ENDBRANCH  12  13
BRANCH   9  24
ATOM     24  C   UNL d   1      28.723 -14.068  -0.626  0.00  0.00     0.177 C 
BRANCH  24  25
ATOM     25  C   UNL d   1      29.935 -14.994  -0.361  0.00  0.00    -0.018 A 
ATOM     26  C   UNL d   1      30.777 -14.748   0.753  0.00  0.00     0.010 A 
ATOM     27  C   UNL d   1      31.744 -15.682   1.165  0.00  0.00     0.001 A 
ATOM     28  C   UNL d   1      31.885 -16.886   0.484  0.00  0.00     0.002 A 
ATOM     29  C   UNL d   1      31.088 -17.138  -0.631  0.00  0.00     0.024 A 
ATOM     30  C   UNL d   1      30.144 -16.192  -1.071  0.00  0.00     0.042 A 
ATOM     31 CL   UNL d   1      29.160 -16.623  -2.431  0.00  0.00    -0.084 Cl
ENDBRANCH  24  25
ENDBRANCH   9  24
BRANCH   3  32
ATOM     32  C   UNL d   1      22.374 -18.518  -0.497  0.00  0.00     0.273 C 
ATOM     33  O   UNL d   1      22.370 -19.679  -0.089  0.00  0.00    -0.266 OA
ATOM     34  N   UNL d   1      21.165 -17.930  -0.983  0.00  0.00    -0.289 N 
ATOM     35  H   UNL d   1      21.166 -16.942  -1.240  0.00  0.00     0.183 HD
BRANCH  34  36
ATOM     36  N   UNL d   1      19.905 -18.576  -0.905  0.00  0.00    -0.247 NA
ATOM     37  H   UNL d   1      20.042 -19.560  -1.163  0.00  0.00     0.143 HD
ATOM     38  H   UNL d   1      19.284 -18.194  -1.625  0.00  0.00     0.143 HD
ENDBRANCH  34  36
ENDBRANCH   3  32
TORSDOF 7
ENDMDL
MODEL 4
REMARK VINA RESULT:   -27.464      2.149      2.803
REMARK INTER + INTRA:         -33.259
REMARK INTER:                 -29.552
REMARK INTRA:                  -3.706
REMARK CONF_INDEPENDENT:        2.088
REMARK UNBOUND:                -3.706
REMARK  7 active torsions:
REMARK  status: ('A' for Active; 'I' for Inactive)
REMARK    1  A    between atoms: C_3  and  C_4 
REMARK       I    between atoms: C_4  and  N_6 
REMARK    2  A    between atoms: N_6  and  N_7 
REMARK    3  A    between atoms: N_13  and  C_14 
REMARK    4  A    between atoms: C_14  and  C_15 
REMARK    5  A    between atoms: N_24  and  C_25 
REMARK    6  A    between atoms: C_25  and  C_26 
REMARK       I    between atoms: C_26  and  N_28 
REMARK    7  A    between atoms: N_28  and  C_29 
ROOT
ATOM      1  C   UNL d   1      25.355 -18.575   1.008  0.00  0.00     0.051 C 
ATOM      2  C   UNL d   1      24.852 -17.563  -0.013  0.00  0.00    -0.021 A 
ATOM      3  C   UNL d   1      23.493 -17.412  -0.418  0.00  0.00     0.083 A 
ATOM      4  S   UNL d   1      23.349 -16.149  -1.562  0.00  0.00    -0.065 SA
ATOM      5  C   UNL d   1      24.968 -15.785  -1.552  0.00  0.00     0.098 A 
ATOM      6  C   UNL d   1      25.739 -16.567  -0.730  0.00  0.00     0.074 A 
ATOM      7  C   UNL d   1      27.205 -16.255  -0.728  0.00  0.00     0.265 C 
ATOM      8  O   UNL d   1      28.009 -16.886  -0.047  0.00  0.00    -0.267 OA
ATOM      9  N   UNL d   1      27.592 -15.214  -1.618  0.00  0.00    -0.261 N 
ATOM     10  C   UNL d   1      26.764 -14.857  -2.674  0.00  0.00     0.333 C 
ATOM     11  O   UNL d   1      27.200 -14.645  -3.813  0.00  0.00    -0.246 OA
ATOM     12  N   UNL d   1      25.404 -14.797  -2.424  0.00  0.00    -0.283 N 
ENDROOT
BRANCH  12  13
ATOM     13  C   UNL d   1      24.500 -14.074  -3.373  0.00  0.00     0.237 C 
BRANCH  13  14
ATOM     14  C   UNL d   1      25.091 -12.913  -4.201  0.00  0.00     0.240 C 
ATOM     15  O   UNL d   1      24.789 -12.743  -5.378  0.00  0.00    -0.271 OA
ATOM     16  N   UNL d   1      26.088 -12.126  -3.629  0.00  0.00    -0.326 N 
ATOM     17  H   UNL d   1      26.776 -12.601  -3.057  0.00  0.00     0.169 HD
BRANCH  16  18
ATOM     18  C   UNL d   1      26.533 -11.017  -4.409  0.00  0.00     0.034 A 
ATOM     19  C   UNL d   1      26.291  -9.704  -4.007  0.00  0.00     0.029 A 
ATOM     20  C   UNL d   1      26.813  -8.640  -4.758  0.00  0.00     0.002 A 
ATOM     21  C   UNL d   1      27.556  -8.881  -5.917  0.00  0.00     0.000 A 
ATOM     22  C   UNL d   1      27.812 -10.188  -6.313  0.00  0.00     0.002 A 
ATOM     23  C   UNL d   1      27.309 -11.247  -5.558  0.00  0.00     0.029 A 
ENDBRANCH  16  18
ENDBRANCH  13  14
ENDBRANCH  12  13
BRANCH   9  24
ATOM     24  C   UNL d   1      29.026 -14.798  -1.737  0.00  0.00     0.177 C 
BRANCH  24  25
ATOM     25  C   UNL d   1      29.312 -13.298  -1.989  0.00  0.00    -0.018 A 
ATOM     26  C   UNL d   1      30.047 -12.905  -3.135  0.00  0.00     0.010 A 
ATOM     27  C   UNL d   1      30.137 -11.558  -3.526  0.00  0.00     0.001 A 
ATOM     28  C   UNL d   1      29.485 -10.573  -2.791  0.00  0.00     0.002 A 
ATOM     29  C   UNL d   1      28.779 -10.931  -1.644  0.00  0.00     0.024 A 
ATOM     30  C   UNL d   1      28.717 -12.274  -1.226  0.00  0.00     0.042 A 
ATOM     31 CL   UNL d   1      27.766 -12.626   0.179  0.00  0.00    -0.084 Cl
ENDBRANCH  24  25
ENDBRANCH   9  24
BRANCH   3  32
ATOM     32  C   UNL d   1      22.192 -18.068  -0.084  0.00  0.00     0.273 C 
ATOM     33  O   UNL d   1      21.920 -18.566   1.009  0.00  0.00    -0.266 OA
ATOM     34  N   UNL d   1      21.231 -18.102  -1.141  0.00  0.00    -0.289 N 
ATOM     35  H   UNL d   1      21.439 -17.614  -2.013  0.00  0.00     0.183 HD
BRANCH  34  36
ATOM     36  N   UNL d   1      19.905 -18.575  -0.966  0.00  0.00    -0.247 NA
ATOM     37  H   UNL d   1      19.280 -17.957  -1.496  0.00  0.00     0.143 HD
ATOM     38  H   UNL d   1      19.631 -18.458   0.014  0.00  0.00     0.143 HD
ENDBRANCH  34  36
ENDBRANCH   3  32
TORSDOF 7
ENDMDL
MODEL 5
REMARK VINA RESULT:   -27.098      2.991      6.028
REMARK INTER + INTRA:         -31.803
REMARK INTER:                 -29.186
REMARK INTRA:                  -2.616
REMARK CONF_INDEPENDENT:        2.088
REMARK UNBOUND:                -2.616
REMARK  7 active torsions:
REMARK  status: ('A' for Active; 'I' for Inactive)
REMARK    1  A    between atoms: C_3  and  C_4 
REMARK       I    between atoms: C_4  and  N_6 
REMARK    2  A    between atoms: N_6  and  N_7 
REMARK    3  A    between atoms: N_13  and  C_14 
REMARK    4  A    between atoms: C_14  and  C_15 
REMARK    5  A    between atoms: N_24  and  C_25 
REMARK    6  A    between atoms: C_25  and  C_26 
REMARK       I    between atoms: C_26  and  N_28 
REMARK    7  A    between atoms: N_28  and  C_29 
ROOT
ATOM      1  C   UNL d   1      22.156 -15.199  -1.645  0.00  0.00     0.051 C 
ATOM      2  C   UNL d   1      23.331 -16.056  -1.193  0.00  0.00    -0.021 A 
ATOM      3  C   UNL d   1      23.224 -17.337  -0.576  0.00  0.00     0.083 A 
ATOM      4  S   UNL d   1      24.778 -17.971  -0.247  0.00  0.00    -0.065 SA
ATOM      5  C   UNL d   1      25.584 -16.662  -0.873  0.00  0.00     0.098 A 
ATOM      6  C   UNL d   1      24.783 -15.656  -1.352  0.00  0.00     0.074 A 
ATOM      7  C   UNL d   1      25.504 -14.463  -1.904  0.00  0.00     0.265 C 
ATOM      8  O   UNL d   1      24.908 -13.488  -2.354  0.00  0.00    -0.267 OA
ATOM      9  N   UNL d   1      26.922 -14.530  -1.811  0.00  0.00    -0.261 N 
ATOM     10  C   UNL d   1      27.521 -15.400  -0.909  0.00  0.00     0.333 C 
ATOM     11  O   UNL d   1      28.479 -15.063  -0.203  0.00  0.00    -0.246 OA
ATOM     12  N   UNL d   1      26.968 -16.663  -0.781  0.00  0.00    -0.283 N 
ENDROOT
BRANCH  12  13
ATOM     13  C   UNL d   1      27.753 -17.761  -0.133  0.00  0.00     0.237 C 
BRANCH  13  14
ATOM     14  C   UNL d   1      29.265 -17.851  -0.434  0.00  0.00     0.240 C 
ATOM     15  O   UNL d   1      29.755 -18.832  -0.984  0.00  0.00    -0.271 OA
ATOM     16  N   UNL d   1      30.102 -16.849   0.053  0.00  0.00    -0.326 N 
ATOM     17  H   UNL d   1      29.898 -16.489   0.978  0.00  0.00     0.169 HD
BRANCH  16  18
ATOM     18  C   UNL d   1      31.474 -16.940  -0.330  0.00  0.00     0.034 A 
ATOM     19  C   UNL d   1      32.449 -17.379   0.565  0.00  0.00     0.029 A 
ATOM     20  C   UNL d   1      33.773 -17.533   0.128  0.00  0.00     0.002 A 
ATOM     21  C   UNL d   1      34.131 -17.232  -1.189  0.00  0.00     0.000 A 
ATOM     22  C   UNL d   1      33.160 -16.808  -2.088  0.00  0.00     0.002 A 
ATOM     23  C   UNL d   1      31.839 -16.672  -1.661  0.00  0.00     0.029 A 
ENDBRANCH  16  18
ENDBRANCH  13  14
ENDBRANCH  12  13
BRANCH   9  24
ATOM     24  C   UNL d   1      27.779 -13.407  -2.309  0.00  0.00     0.177 C 
BRANCH  24  25
ATOM     25  C   UNL d   1      28.699 -13.697  -3.519  0.00  0.00    -0.018 A 
ATOM     26  C   UNL d   1      30.102 -13.547  -3.388  0.00  0.00     0.010 A 
ATOM     27  C   UNL d   1      30.987 -14.012  -4.376  0.00  0.00     0.001 A 
ATOM     28  C   UNL d   1      30.495 -14.649  -5.510  0.00  0.00     0.002 A 
ATOM     29  C   UNL d   1      29.118 -14.783  -5.675  0.00  0.00     0.024 A 
ATOM     30  C   UNL d   1      28.224 -14.287  -4.708  0.00  0.00     0.042 A 
ATOM     31 CL   UNL d   1      26.533 -14.555  -4.975  0.00  0.00    -0.084 Cl
ENDBRANCH  24  25
ENDBRANCH   9  24
BRANCH   3  32
ATOM     32  C   UNL d   1      22.109 -18.244  -0.168  0.00  0.00     0.273 C 
ATOM     33  O   UNL d   1      22.027 -18.803   0.926  0.00  0.00    -0.266 OA
ATOM     34  N   UNL d   1      21.094 -18.452  -1.152  0.00  0.00    -0.289 N 
ATOM     35  H   UNL d   1      21.132 -17.917  -2.021  0.00  0.00     0.183 HD
BRANCH  34  36
ATOM     36  N   UNL d   1      19.905 -19.182  -0.895  0.00  0.00    -0.247 NA
ATOM     37  H   UNL d   1      19.118 -18.640  -1.271  0.00  0.00     0.143 HD
ATOM     38  H   UNL d   1      19.745 -19.222   0.116  0.00  0.00     0.143 HD
ENDBRANCH  34  36
ENDBRANCH   3  32
TORSDOF 7
ENDMDL
MODEL 6
REMARK VINA RESULT:   -26.441      3.359      5.699
REMARK INTER + INTRA:         -31.979
REMARK INTER:                 -28.529
REMARK INTRA:                  -3.449
REMARK CONF_INDEPENDENT:        2.088
REMARK UNBOUND:                -3.449
REMARK  7 active torsions:
REMARK  status: ('A' for Active; 'I' for Inactive)
REMARK    1  A    between atoms: C_3  and  C_4 
REMARK       I    between atoms: C_4  and  N_6 
REMARK    2  A    between atoms: N_6  and  N_7 
REMARK    3  A    between atoms: N_13  and  C_14 
REMARK    4  A    between atoms: C_14  and  C_15 
REMARK    5  A    between atoms: N_24  and  C_25 
REMARK    6  A    between atoms: C_25  and  C_26 
REMARK       I    between atoms: C_26  and  N_28 
REMARK    7  A    between atoms: N_28  and  C_29 
ROOT
ATOM      1  C   UNL d   1      22.154 -15.200  -1.645  0.00  0.00     0.051 C 
ATOM      2  C   UNL d   1      23.350 -16.065  -1.268  0.00  0.00    -0.021 A 
ATOM      3  C   UNL d   1      23.272 -17.367  -0.692  0.00  0.00     0.083 A 
ATOM      4  S   UNL d   1      24.840 -18.004  -0.445  0.00  0.00    -0.065 SA
ATOM      5  C   UNL d   1      25.616 -16.669  -1.056  0.00  0.00     0.098 A 
ATOM      6  C   UNL d   1      24.793 -15.652  -1.468  0.00  0.00     0.074 A 
ATOM      7  C   UNL d   1      25.486 -14.437  -2.006  0.00  0.00     0.265 C 
ATOM      8  O   UNL d   1      24.869 -13.449  -2.398  0.00  0.00    -0.267 OA
ATOM      9  N   UNL d   1      26.907 -14.498  -1.969  0.00  0.00    -0.261 N 
ATOM     10  C   UNL d   1      27.544 -15.396  -1.121  0.00  0.00     0.333 C 
ATOM     11  O   UNL d   1      28.527 -15.077  -0.440  0.00  0.00    -0.246 OA
ATOM     12  N   UNL d   1      27.003 -16.665  -1.016  0.00  0.00    -0.283 N 
ENDROOT
BRANCH  12  13
ATOM     13  C   UNL d   1      27.816 -17.780  -0.437  0.00  0.00     0.237 C 
BRANCH  13  14
ATOM     14  C   UNL d   1      29.253 -17.983  -0.964  0.00  0.00     0.240 C 
ATOM     15  O   UNL d   1      29.984 -18.864  -0.521  0.00  0.00    -0.271 OA
ATOM     16  N   UNL d   1      29.768 -17.058  -1.870  0.00  0.00    -0.326 N 
ATOM     17  H   UNL d   1      29.531 -16.085  -1.716  0.00  0.00     0.169 HD
BRANCH  16  18
ATOM     18  C   UNL d   1      31.067 -17.346  -2.386  0.00  0.00     0.034 A 
ATOM     19  C   UNL d   1      31.250 -17.734  -3.713  0.00  0.00     0.029 A 
ATOM     20  C   UNL d   1      32.549 -17.932  -4.206  0.00  0.00     0.002 A 
ATOM     21  C   UNL d   1      33.661 -17.762  -3.377  0.00  0.00     0.000 A 
ATOM     22  C   UNL d   1      33.484 -17.361  -2.058  0.00  0.00     0.002 A 
ATOM     23  C   UNL d   1      32.195 -17.147  -1.571  0.00  0.00     0.029 A 
ENDBRANCH  16  18
ENDBRANCH  13  14
ENDBRANCH  12  13
BRANCH   9  24
ATOM     24  C   UNL d   1      27.740 -13.354  -2.460  0.00  0.00     0.177 C 
BRANCH  24  25
ATOM     25  C   UNL d   1      28.732 -13.640  -3.613  0.00  0.00    -0.018 A 
ATOM     26  C   UNL d   1      30.103 -13.316  -3.457  0.00  0.00     0.010 A 
ATOM     27  C   UNL d   1      31.072 -13.759  -4.373  0.00  0.00     0.001 A 
ATOM     28  C   UNL d   1      30.700 -14.546  -5.458  0.00  0.00     0.002 A 
ATOM     29  C   UNL d   1      29.354 -14.854  -5.648  0.00  0.00     0.024 A 
ATOM     30  C   UNL d   1      28.373 -14.382  -4.756  0.00  0.00     0.042 A 
ATOM     31 CL   UNL d   1      26.735 -14.868  -5.044  0.00  0.00    -0.084 Cl
ENDBRANCH  24  25
ENDBRANCH   9  24
BRANCH   3  32
ATOM     32  C   UNL d   1      22.177 -18.294  -0.273  0.00  0.00     0.273 C 
ATOM     33  O   UNL d   1      22.174 -18.946   0.771  0.00  0.00    -0.266 OA
ATOM     34  N   UNL d   1      21.082 -18.404  -1.185  0.00  0.00    -0.289 N 
ATOM     35  H   UNL d   1      21.059 -17.796  -2.004  0.00  0.00     0.183 HD
BRANCH  34  36
ATOM     36  N   UNL d   1      19.905 -19.141  -0.895  0.00  0.00    -0.247 NA
ATOM     37  H   UNL d   1      19.122 -18.478  -0.859  0.00  0.00     0.143 HD
ATOM     38  H   UNL d   1      19.973 -19.527   0.051  0.00  0.00     0.143 HD
ENDBRANCH  34  36
ENDBRANCH   3  32
TORSDOF 7
ENDMDL
