MODEL 1
REMARK VINA RESULT:    -7.575      0.000      0.000
REMARK INTER + INTRA:         -14.936
REMARK INTER:                 -12.050
REMARK INTRA:                  -2.887
REMARK CONF_INDEPENDENT:        4.474
REMARK UNBOUND:                -2.887
REMARK  15 active torsions:
REMARK  status: ('A' for Active; 'I' for Inactive)
REMARK    1  A    between atoms: C_2  and  C_3 
REMARK    2  A    between atoms: C_4  and  C_5 
REMARK    3  A    between atoms: C_5  and  N_6 
REMARK       I    between atoms: N_6  and  C_7 
REMARK    4  A    between atoms: C_7  and  O_9 
REMARK    5  A    between atoms: O_9  and  C_10 
REMARK    6  A    between atoms: C_14  and  C_15 
REMARK    7  A    between atoms: C_17  and  C_18 
REMARK    8  A    between atoms: C_18  and  N_19 
REMARK       I    between atoms: N_19  and  C_20 
REMARK    9  A    between atoms: C_20  and  O_22 
REMARK   10  A    between atoms: O_22  and  C_23 
REMARK   11  A    between atoms: C_27  and  C_28 
REMARK   12  A    between atoms: C_30  and  C_31 
REMARK   13  A    between atoms: C_31  and  N_32 
REMARK       I    between atoms: N_32  and  C_33 
REMARK   14  A    between atoms: C_33  and  O_35 
REMARK   15  A    between atoms: O_35  and  C_36 
ROOT
ATOM      1  C   UNL d   1      26.819 -15.123  -2.751  0.00  0.00    -0.042 C 
ATOM      2  C   UNL d   1      27.686 -15.950  -2.028  0.00  0.00    -0.027 C 
ATOM      3  C   UNL d   1      29.004 -16.188  -2.567  0.00  0.00    -0.042 C 
ATOM      4  C   UNL d   1      29.293 -15.917  -3.957  0.00  0.00    -0.027 C 
ATOM      5  C   UNL d   1      28.313 -15.212  -4.715  0.00  0.00    -0.042 C 
ATOM      6  C   UNL d   1      27.062 -14.859  -4.124  0.00  0.00    -0.027 C 
ENDROOT
BRANCH   2   7
ATOM      7  C   UNL d   1      27.257 -16.620  -0.704  0.00  0.00     0.164 C 
BRANCH   7   8
ATOM      8  N   UNL d   1      25.863 -17.075  -0.610  0.00  0.00    -0.333 N 
ATOM      9  C   UNL d   1      25.484 -18.089   0.257  0.00  0.00     0.361 C 
ATOM     10  O   UNL d   1      26.276 -18.949   0.615  0.00  0.00    -0.238 OA
ATOM     11  H   UNL d   1      25.145 -16.460  -0.956  0.00  0.00     0.165 HD
BRANCH   9  12
ATOM     12  O   UNL d   1      24.167 -17.986   0.707  0.00  0.00    -0.294 OA
BRANCH  12  13
ATOM     13  C   UNL d   1      23.057 -18.049  -0.257  0.00  0.00     0.061 C 
ATOM     14  C   UNL d   1      22.542 -16.617  -0.300  0.00  0.00     0.046 C 
ATOM     15  C   UNL d   1      23.448 -18.576  -1.648  0.00  0.00     0.046 C 
ATOM     16  C   UNL d   1      21.872 -18.947   0.212  0.00  0.00     0.046 C 
ENDBRANCH  12  13
ENDBRANCH   9  12
ENDBRANCH   7   8
ENDBRANCH   2   7
BRANCH   1  17
ATOM     17  C   UNL d   1      25.597 -14.474  -2.177  0.00  0.00     0.035 C 
ATOM     18  C   UNL d   1      24.165 -14.827  -2.409  0.00  0.00     0.010 C 
ENDBRANCH   1  17
BRANCH   3  19
ATOM     19  C   UNL d   1      30.066 -16.595  -1.530  0.00  0.00     0.035 C 
ATOM     20  C   UNL d   1      30.202 -18.054  -1.147  0.00  0.00     0.010 C 
ENDBRANCH   3  19
BRANCH   6  21
ATOM     21  C   UNL d   1      25.995 -14.236  -5.019  0.00  0.00     0.164 C 
BRANCH  21  22
ATOM     22  N   UNL d   1      25.574 -12.876  -4.948  0.00  0.00    -0.333 N 
ATOM     23  C   UNL d   1      26.320 -11.924  -4.370  0.00  0.00     0.361 C 
ATOM     24  O   UNL d   1      27.455 -12.068  -3.999  0.00  0.00    -0.238 OA
ATOM     25  H   UNL d   1      24.673 -12.498  -5.119  0.00  0.00     0.165 HD
BRANCH  23  26
ATOM     26  O   UNL d   1      25.522 -10.818  -4.317  0.00  0.00    -0.294 OA
BRANCH  26  27
ATOM     27  C   UNL d   1      25.801  -9.775  -5.262  0.00  0.00     0.061 C 
ATOM     28  C   UNL d   1      27.009  -8.969  -4.791  0.00  0.00     0.046 C 
ATOM     29  C   UNL d   1      25.993 -10.405  -6.641  0.00  0.00     0.046 C 
ATOM     30  C   UNL d   1      24.592  -8.824  -5.337  0.00  0.00     0.046 C 
ENDBRANCH  26  27
ENDBRANCH  23  26
ENDBRANCH  21  22
ENDBRANCH   6  21
BRANCH   4  31
ATOM     31  C   UNL d   1      30.592 -16.459  -4.600  0.00  0.00     0.164 C 
BRANCH  31  32
ATOM     32  N   UNL d   1      30.709 -17.768  -5.190  0.00  0.00    -0.333 N 
ATOM     33  C   UNL d   1      30.555 -17.958  -6.516  0.00  0.00     0.361 C 
ATOM     34  O   UNL d   1      30.468 -17.065  -7.339  0.00  0.00    -0.238 OA
ATOM     35  H   UNL d   1      30.348 -18.597  -4.768  0.00  0.00     0.165 HD
BRANCH  33  36
ATOM     36  O   UNL d   1      30.482 -19.303  -6.728  0.00  0.00    -0.294 OA
BRANCH  36  37
ATOM     37  C   UNL d   1      31.375 -19.878  -7.705  0.00  0.00     0.061 C 
ATOM     38  C   UNL d   1      30.779 -19.721  -9.104  0.00  0.00     0.046 C 
ATOM     39  C   UNL d   1      32.756 -19.232  -7.573  0.00  0.00     0.046 C 
ATOM     40  C   UNL d   1      31.533 -21.385  -7.424  0.00  0.00     0.046 C 
ENDBRANCH  36  37
ENDBRANCH  33  36
ENDBRANCH  31  32
ENDBRANCH   4  31
BRANCH   5  41
ATOM     41  C   UNL d   1      28.684 -14.817  -6.131  0.00  0.00     0.035 C 
ATOM     42  C   UNL d   1      29.301 -13.516  -6.547  0.00  0.00     0.010 C 
ENDBRANCH   5  41
TORSDOF 15
ENDMDL
MODEL 2
REMARK VINA RESULT:    -7.466      3.814      6.762
REMARK INTER + INTRA:         -14.695
REMARK INTER:                 -11.941
REMARK INTRA:                  -2.755
REMARK CONF_INDEPENDENT:        4.474
REMARK UNBOUND:                -2.755
REMARK  15 active torsions:
REMARK  status: ('A' for Active; 'I' for Inactive)
REMARK    1  A    between atoms: C_2  and  C_3 
REMARK    2  A    between atoms: C_4  and  C_5 
REMARK    3  A    between atoms: C_5  and  N_6 
REMARK       I    between atoms: N_6  and  C_7 
REMARK    4  A    between atoms: C_7  and  O_9 
REMARK    5  A    between atoms: O_9  and  C_10 
REMARK    6  A    between atoms: C_14  and  C_15 
REMARK    7  A    between atoms: C_17  and  C_18 
REMARK    8  A    between atoms: C_18  and  N_19 
REMARK       I    between atoms: N_19  and  C_20 
REMARK    9  A    between atoms: C_20  and  O_22 
REMARK   10  A    between atoms: O_22  and  C_23 
REMARK   11  A    between atoms: C_27  and  C_28 
REMARK   12  A    between atoms: C_30  and  C_31 
REMARK   13  A    between atoms: C_31  and  N_32 
REMARK       I    between atoms: N_32  and  C_33 
REMARK   14  A    between atoms: C_33  and  O_35 
REMARK   15  A    between atoms: O_35  and  C_36 
ROOT
ATOM      1  C   UNL d   1      26.367 -13.906  -2.991  0.00  0.00    -0.042 C 
ATOM      2  C   UNL d   1      26.643 -14.605  -1.809  0.00  0.00    -0.027 C 
ATOM      3  C   UNL d   1      26.946 -13.840  -0.624  0.00  0.00    -0.042 C 
ATOM      4  C   UNL d   1      27.330 -12.449  -0.720  0.00  0.00    -0.027 C 
ATOM      5  C   UNL d   1      27.189 -11.807  -1.985  0.00  0.00    -0.042 C 
ATOM      6  C   UNL d   1      26.753 -12.548  -3.124  0.00  0.00    -0.027 C 
ENDROOT
BRANCH   2   7
ATOM      7  C   UNL d   1      26.656 -16.149  -1.761  0.00  0.00     0.164 C 
BRANCH   7   8
ATOM      8  N   UNL d   1      25.415 -16.812  -1.336  0.00  0.00    -0.333 N 
ATOM      9  C   UNL d   1      25.415 -17.803  -0.365  0.00  0.00     0.361 C 
ATOM     10  O   UNL d   1      26.402 -18.495  -0.161  0.00  0.00    -0.238 OA
ATOM     11  H   UNL d   1      24.544 -16.350  -1.535  0.00  0.00     0.165 HD
BRANCH   9  12
ATOM     12  O   UNL d   1      24.228 -17.878   0.366  0.00  0.00    -0.294 OA
BRANCH  12  13
ATOM     13  C   UNL d   1      22.938 -17.952  -0.337  0.00  0.00     0.061 C 
ATOM     14  C   UNL d   1      23.264 -18.742  -1.597  0.00  0.00     0.046 C 
ATOM     15  C   UNL d   1      21.801 -18.589   0.479  0.00  0.00     0.046 C 
ATOM     16  C   UNL d   1      22.396 -16.564  -0.797  0.00  0.00     0.046 C 
ENDBRANCH  12  13
ENDBRANCH   9  12
ENDBRANCH   7   8
ENDBRANCH   2   7
BRANCH   1  17
ATOM     17  C   UNL d   1      25.676 -14.500  -4.180  0.00  0.00     0.035 C 
ATOM     18  C   UNL d   1      26.280 -15.238  -5.329  0.00  0.00     0.010 C 
ENDBRANCH   1  17
BRANCH   3  19
ATOM     19  C   UNL d   1      26.685 -14.572   0.705  0.00  0.00     0.035 C 
ATOM     20  C   UNL d   1      27.779 -15.431   1.301  0.00  0.00     0.010 C 
ENDBRANCH   3  19
BRANCH   6  21
ATOM     21  C   UNL d   1      26.760 -11.849  -4.481  0.00  0.00     0.164 C 
BRANCH  21  22
ATOM     22  N   UNL d   1      25.675 -11.086  -5.002  0.00  0.00    -0.333 N 
ATOM     23  C   UNL d   1      25.819 -10.253  -6.042  0.00  0.00     0.361 C 
ATOM     24  O   UNL d   1      26.802 -10.172  -6.729  0.00  0.00    -0.238 OA
ATOM     25  H   UNL d   1      24.785 -10.919  -4.597  0.00  0.00     0.165 HD
BRANCH  23  26
ATOM     26  O   UNL d   1      24.643  -9.566  -6.125  0.00  0.00    -0.294 OA
BRANCH  26  27
ATOM     27  C   UNL d   1      24.637  -8.229  -5.606  0.00  0.00     0.061 C 
ATOM     28  C   UNL d   1      25.171  -8.233  -4.176  0.00  0.00     0.046 C 
ATOM     29  C   UNL d   1      25.442  -7.336  -6.551  0.00  0.00     0.046 C 
ATOM     30  C   UNL d   1      23.189  -7.705  -5.574  0.00  0.00     0.046 C 
ENDBRANCH  26  27
ENDBRANCH  23  26
ENDBRANCH  21  22
ENDBRANCH   6  21
BRANCH   4  31
ATOM     31  C   UNL d   1      27.950 -11.729   0.501  0.00  0.00     0.164 C 
BRANCH  31  32
ATOM     32  N   UNL d   1      28.507 -12.414   1.639  0.00  0.00    -0.333 N 
ATOM     33  C   UNL d   1      28.080 -12.157   2.892  0.00  0.00     0.361 C 
ATOM     34  O   UNL d   1      27.112 -11.474   3.168  0.00  0.00    -0.238 OA
ATOM     35  H   UNL d   1      29.478 -12.622   1.736  0.00  0.00     0.165 HD
BRANCH  33  36
ATOM     36  O   UNL d   1      28.947 -12.768   3.749  0.00  0.00    -0.294 OA
BRANCH  36  37
ATOM     37  C   UNL d   1      28.392 -13.439   4.899  0.00  0.00     0.061 C 
ATOM     38  C   UNL d   1      29.327 -14.565   5.340  0.00  0.00     0.046 C 
ATOM     39  C   UNL d   1      28.131 -12.418   6.008  0.00  0.00     0.046 C 
ATOM     40  C   UNL d   1      27.039 -14.071   4.515  0.00  0.00     0.046 C 
ENDBRANCH  36  37
ENDBRANCH  33  36
ENDBRANCH  31  32
ENDBRANCH   4  31
BRANCH   5  41
ATOM     41  C   UNL d   1      27.467 -10.318  -2.040  0.00  0.00     0.035 C 
ATOM     42  C   UNL d   1      26.647  -9.246  -1.387  0.00  0.00     0.010 C 
ENDBRANCH   5  41
TORSDOF 15
ENDMDL
MODEL 3
REMARK VINA RESULT:    -7.432      0.981      8.276
REMARK INTER + INTRA:         -15.173
REMARK INTER:                 -11.906
REMARK INTRA:                  -3.267
REMARK CONF_INDEPENDENT:        4.474
REMARK UNBOUND:                -3.267
REMARK  15 active torsions:
REMARK  status: ('A' for Active; 'I' for Inactive)
REMARK    1  A    between atoms: C_2  and  C_3 
REMARK    2  A    between atoms: C_4  and  C_5 
REMARK    3  A    between atoms: C_5  and  N_6 
REMARK       I    between atoms: N_6  and  C_7 
REMARK    4  A    between atoms: C_7  and  O_9 
REMARK    5  A    between atoms: O_9  and  C_10 
REMARK    6  A    between atoms: C_14  and  C_15 
REMARK    7  A    between atoms: C_17  and  C_18 
REMARK    8  A    between atoms: C_18  and  N_19 
REMARK       I    between atoms: N_19  and  C_20 
REMARK    9  A    between atoms: C_20  and  O_22 
REMARK   10  A    between atoms: O_22  and  C_23 
REMARK   11  A    between atoms: C_27  and  C_28 
REMARK   12  A    between atoms: C_30  and  C_31 
REMARK   13  A    between atoms: C_31  and  N_32 
REMARK       I    between atoms: N_32  and  C_33 
REMARK   14  A    between atoms: C_33  and  O_35 
REMARK   15  A    between atoms: O_35  and  C_36 
ROOT
ATOM      1  C   UNL d   1      28.280 -15.533  -4.814  0.00  0.00    -0.042 C 
ATOM      2  C   UNL d   1      27.070 -15.200  -4.193  0.00  0.00    -0.027 C 
ATOM      3  C   UNL d   1      27.020 -15.222  -2.750  0.00  0.00    -0.042 C 
ATOM      4  C   UNL d   1      28.030 -15.919  -1.986  0.00  0.00    -0.027 C 
ATOM      5  C   UNL d   1      29.181 -16.392  -2.681  0.00  0.00    -0.042 C 
ATOM      6  C   UNL d   1      29.281 -16.238  -4.097  0.00  0.00    -0.027 C 
ENDROOT
BRANCH   2   7
ATOM      7  C   UNL d   1      25.807 -14.845  -5.008  0.00  0.00     0.164 C 
BRANCH   7   8
ATOM      8  N   UNL d   1      25.322 -13.461  -4.915  0.00  0.00    -0.333 N 
ATOM      9  C   UNL d   1      26.174 -12.378  -5.082  0.00  0.00     0.361 C 
ATOM     10  O   UNL d   1      27.370 -12.466  -4.845  0.00  0.00    -0.238 OA
ATOM     11  H   UNL d   1      24.334 -13.302  -5.019  0.00  0.00     0.165 HD
BRANCH   9  12
ATOM     12  O   UNL d   1      25.547 -11.240  -5.591  0.00  0.00    -0.294 OA
BRANCH  12  13
ATOM     13  C   UNL d   1      25.809  -9.926  -4.983  0.00  0.00     0.061 C 
ATOM     14  C   UNL d   1      24.906  -8.984  -5.767  0.00  0.00     0.046 C 
ATOM     15  C   UNL d   1      25.553  -9.861  -3.468  0.00  0.00     0.046 C 
ATOM     16  C   UNL d   1      27.273  -9.426  -5.181  0.00  0.00     0.046 C 
ENDBRANCH  12  13
ENDBRANCH   9  12
ENDBRANCH   7   8
ENDBRANCH   2   7
BRANCH   1  17
ATOM     17  C   UNL d   1      28.618 -15.200  -6.235  0.00  0.00     0.035 C 
ATOM     18  C   UNL d   1      29.733 -14.349  -6.747  0.00  0.00     0.010 C 
ENDBRANCH   1  17
BRANCH   3  19
ATOM     19  C   UNL d   1      25.921 -14.343  -2.126  0.00  0.00     0.035 C 
ATOM     20  C   UNL d   1      26.274 -12.952  -1.645  0.00  0.00     0.010 C 
ENDBRANCH   3  19
BRANCH   6  21
ATOM     21  C   UNL d   1      30.463 -16.890  -4.808  0.00  0.00     0.164 C 
BRANCH  21  22
ATOM     22  N   UNL d   1      30.352 -17.748  -5.940  0.00  0.00    -0.333 N 
ATOM     23  C   UNL d   1      30.405 -19.084  -5.834  0.00  0.00     0.361 C 
ATOM     24  O   UNL d   1      30.394 -19.694  -4.799  0.00  0.00    -0.238 OA
ATOM     25  H   UNL d   1      30.412 -17.515  -6.903  0.00  0.00     0.165 HD
BRANCH  23  26
ATOM     26  O   UNL d   1      30.463 -19.549  -7.116  0.00  0.00    -0.294 OA
BRANCH  26  27
ATOM     27  C   UNL d   1      31.752 -19.548  -7.745  0.00  0.00     0.061 C 
ATOM     28  C   UNL d   1      31.914 -18.279  -8.578  0.00  0.00     0.046 C 
ATOM     29  C   UNL d   1      32.822 -19.705  -6.665  0.00  0.00     0.046 C 
ATOM     30  C   UNL d   1      31.853 -20.758  -8.694  0.00  0.00     0.046 C 
ENDBRANCH  26  27
ENDBRANCH  23  26
ENDBRANCH  21  22
ENDBRANCH   6  21
BRANCH   4  31
ATOM     31  C   UNL d   1      27.806 -16.206  -0.482  0.00  0.00     0.164 C 
BRANCH  31  32
ATOM     32  N   UNL d   1      26.521 -16.515   0.093  0.00  0.00    -0.333 N 
ATOM     33  C   UNL d   1      26.071 -17.783   0.166  0.00  0.00     0.361 C 
ATOM     34  O   UNL d   1      26.738 -18.771  -0.083  0.00  0.00    -0.238 OA
ATOM     35  H   UNL d   1      25.705 -15.960  -0.052  0.00  0.00     0.165 HD
BRANCH  33  36
ATOM     36  O   UNL d   1      24.757 -17.728   0.526  0.00  0.00    -0.294 OA
BRANCH  36  37
ATOM     37  C   UNL d   1      23.771 -17.778  -0.526  0.00  0.00     0.061 C 
ATOM     38  C   UNL d   1      24.428 -17.449  -1.866  0.00  0.00     0.046 C 
ATOM     39  C   UNL d   1      23.090 -19.149  -0.520  0.00  0.00     0.046 C 
ATOM     40  C   UNL d   1      22.687 -16.715  -0.257  0.00  0.00     0.046 C 
ENDBRANCH  36  37
ENDBRANCH  33  36
ENDBRANCH  31  32
ENDBRANCH   4  31
BRANCH   5  41
ATOM     41  C   UNL d   1      30.291 -17.000  -1.848  0.00  0.00     0.035 C 
ATOM     42  C   UNL d   1      30.780 -18.415  -1.935  0.00  0.00     0.010 C 
ENDBRANCH   5  41
TORSDOF 15
ENDMDL
MODEL 4
REMARK VINA RESULT:    -7.324      0.901      6.855
REMARK INTER + INTRA:         -14.827
REMARK INTER:                 -11.798
REMARK INTRA:                  -3.028
REMARK CONF_INDEPENDENT:        4.474
REMARK UNBOUND:                -3.028
REMARK  15 active torsions:
REMARK  status: ('A' for Active; 'I' for Inactive)
REMARK    1  A    between atoms: C_2  and  C_3 
REMARK    2  A    between atoms: C_4  and  C_5 
REMARK    3  A    between atoms: C_5  and  N_6 
REMARK       I    between atoms: N_6  and  C_7 
REMARK    4  A    between atoms: C_7  and  O_9 
REMARK    5  A    between atoms: O_9  and  C_10 
REMARK    6  A    between atoms: C_14  and  C_15 
REMARK    7  A    between atoms: C_17  and  C_18 
REMARK    8  A    between atoms: C_18  and  N_19 
REMARK       I    between atoms: N_19  and  C_20 
REMARK    9  A    between atoms: C_20  and  O_22 
REMARK   10  A    between atoms: O_22  and  C_23 
REMARK   11  A    between atoms: C_27  and  C_28 
REMARK   12  A    between atoms: C_30  and  C_31 
REMARK   13  A    between atoms: C_31  and  N_32 
REMARK       I    between atoms: N_32  and  C_33 
REMARK   14  A    between atoms: C_33  and  O_35 
REMARK   15  A    between atoms: O_35  and  C_36 
ROOT
ATOM      1  C   UNL d   1      28.184 -15.234  -4.537  0.00  0.00    -0.042 C 
ATOM      2  C   UNL d   1      29.156 -15.823  -3.719  0.00  0.00    -0.027 C 
ATOM      3  C   UNL d   1      28.754 -16.280  -2.410  0.00  0.00    -0.042 C 
ATOM      4  C   UNL d   1      27.523 -15.815  -1.811  0.00  0.00    -0.027 C 
ATOM      5  C   UNL d   1      26.623 -15.073  -2.631  0.00  0.00    -0.042 C 
ATOM      6  C   UNL d   1      26.977 -14.746  -3.975  0.00  0.00    -0.027 C 
ENDROOT
BRANCH   2   7
ATOM      7  C   UNL d   1      30.626 -15.963  -4.172  0.00  0.00     0.164 C 
BRANCH   7   8
ATOM      8  N   UNL d   1      30.881 -16.802  -5.352  0.00  0.00    -0.333 N 
ATOM      9  C   UNL d   1      30.405 -18.103  -5.437  0.00  0.00     0.361 C 
ATOM     10  O   UNL d   1      30.186 -18.768  -4.434  0.00  0.00    -0.238 OA
ATOM     11  H   UNL d   1      31.147 -16.342  -6.206  0.00  0.00     0.165 HD
BRANCH   9  12
ATOM     12  O   UNL d   1      30.154 -18.528  -6.742  0.00  0.00    -0.294 OA
BRANCH  12  13
ATOM     13  C   UNL d   1      31.111 -19.417  -7.419  0.00  0.00     0.061 C 
ATOM     14  C   UNL d   1      32.420 -18.643  -7.359  0.00  0.00     0.046 C 
ATOM     15  C   UNL d   1      31.227 -20.820  -6.801  0.00  0.00     0.046 C 
ATOM     16  C   UNL d   1      30.787 -19.651  -8.927  0.00  0.00     0.046 C 
ENDBRANCH  12  13
ENDBRANCH   9  12
ENDBRANCH   7   8
ENDBRANCH   2   7
BRANCH   1  17
ATOM     17  C   UNL d   1      28.322 -15.060  -6.019  0.00  0.00     0.035 C 
ATOM     18  C   UNL d   1      29.135 -14.051  -6.761  0.00  0.00     0.010 C 
ENDBRANCH   1  17
BRANCH   3  19
ATOM     19  C   UNL d   1      29.646 -17.378  -1.804  0.00  0.00     0.035 C 
ATOM     20  C   UNL d   1      30.752 -16.986  -0.848  0.00  0.00     0.010 C 
ENDBRANCH   3  19
BRANCH   6  21
ATOM     21  C   UNL d   1      26.044 -13.829  -4.760  0.00  0.00     0.164 C 
BRANCH  21  22
ATOM     22  N   UNL d   1      25.685 -12.509  -4.361  0.00  0.00    -0.333 N 
ATOM     23  C   UNL d   1      26.324 -11.858  -3.379  0.00  0.00     0.361 C 
ATOM     24  O   UNL d   1      27.335 -12.233  -2.848  0.00  0.00    -0.238 OA
ATOM     25  H   UNL d   1      24.867 -11.995  -4.587  0.00  0.00     0.165 HD
BRANCH  23  26
ATOM     26  O   UNL d   1      25.591 -10.729  -3.153  0.00  0.00    -0.294 OA
BRANCH  26  27
ATOM     27  C   UNL d   1      26.003  -9.541  -3.842  0.00  0.00     0.061 C 
ATOM     28  C   UNL d   1      25.158  -9.361  -5.101  0.00  0.00     0.046 C 
ATOM     29  C   UNL d   1      25.911  -8.360  -2.876  0.00  0.00     0.046 C 
ATOM     30  C   UNL d   1      27.475  -9.691  -4.273  0.00  0.00     0.046 C 
ENDBRANCH  26  27
ENDBRANCH  23  26
ENDBRANCH  21  22
ENDBRANCH   6  21
BRANCH   4  31
ATOM     31  C   UNL d   1      27.254 -16.053  -0.306  0.00  0.00     0.164 C 
BRANCH  31  32
ATOM     32  N   UNL d   1      25.988 -16.490   0.224  0.00  0.00    -0.333 N 
ATOM     33  C   UNL d   1      25.640 -17.793   0.228  0.00  0.00     0.361 C 
ATOM     34  O   UNL d   1      26.390 -18.712  -0.050  0.00  0.00    -0.238 OA
ATOM     35  H   UNL d   1      25.132 -15.997   0.085  0.00  0.00     0.165 HD
BRANCH  33  36
ATOM     36  O   UNL d   1      24.319 -17.860   0.558  0.00  0.00    -0.294 OA
BRANCH  36  37
ATOM     37  C   UNL d   1      23.355 -17.756  -0.510  0.00  0.00     0.061 C 
ATOM     38  C   UNL d   1      22.536 -16.476  -0.343  0.00  0.00     0.046 C 
ATOM     39  C   UNL d   1      24.077 -17.825  -1.857  0.00  0.00     0.046 C 
ATOM     40  C   UNL d   1      22.384 -18.952  -0.437  0.00  0.00     0.046 C 
ENDBRANCH  36  37
ENDBRANCH  33  36
ENDBRANCH  31  32
ENDBRANCH   4  31
BRANCH   5  41
ATOM     41  C   UNL d   1      25.280 -14.708  -2.031  0.00  0.00     0.035 C 
ATOM     42  C   UNL d   1      24.017 -14.450  -2.796  0.00  0.00     0.010 C 
ENDBRANCH   5  41
TORSDOF 15
ENDMDL
MODEL 5
REMARK VINA RESULT:    -7.158      2.511      7.523
REMARK INTER + INTRA:         -14.791
REMARK INTER:                 -11.633
REMARK INTRA:                  -3.158
REMARK CONF_INDEPENDENT:        4.474
REMARK UNBOUND:                -3.158
REMARK  15 active torsions:
REMARK  status: ('A' for Active; 'I' for Inactive)
REMARK    1  A    between atoms: C_2  and  C_3 
REMARK    2  A    between atoms: C_4  and  C_5 
REMARK    3  A    between atoms: C_5  and  N_6 
REMARK       I    between atoms: N_6  and  C_7 
REMARK    4  A    between atoms: C_7  and  O_9 
REMARK    5  A    between atoms: O_9  and  C_10 
REMARK    6  A    between atoms: C_14  and  C_15 
REMARK    7  A    between atoms: C_17  and  C_18 
REMARK    8  A    between atoms: C_18  and  N_19 
REMARK       I    between atoms: N_19  and  C_20 
REMARK    9  A    between atoms: C_20  and  O_22 
REMARK   10  A    between atoms: O_22  and  C_23 
REMARK   11  A    between atoms: C_27  and  C_28 
REMARK   12  A    between atoms: C_30  and  C_31 
REMARK   13  A    between atoms: C_31  and  N_32 
REMARK       I    between atoms: N_32  and  C_33 
REMARK   14  A    between atoms: C_33  and  O_35 
REMARK   15  A    between atoms: O_35  and  C_36 
ROOT
ATOM      1  C   UNL d   1      28.356 -16.534  -1.867  0.00  0.00    -0.042 C 
ATOM      2  C   UNL d   1      27.219 -16.366  -1.068  0.00  0.00    -0.027 C 
ATOM      3  C   UNL d   1      26.014 -15.881  -1.698  0.00  0.00    -0.042 C 
ATOM      4  C   UNL d   1      26.064 -15.233  -2.989  0.00  0.00    -0.027 C 
ATOM      5  C   UNL d   1      27.292 -15.282  -3.711  0.00  0.00    -0.042 C 
ATOM      6  C   UNL d   1      28.445 -15.891  -3.129  0.00  0.00    -0.027 C 
ENDROOT
BRANCH   2   7
ATOM      7  C   UNL d   1      27.240 -16.657   0.449  0.00  0.00     0.164 C 
BRANCH   7   8
ATOM      8  N   UNL d   1      27.725 -15.581   1.326  0.00  0.00    -0.333 N 
ATOM      9  C   UNL d   1      27.203 -14.298   1.261  0.00  0.00     0.361 C 
ATOM     10  O   UNL d   1      26.700 -13.865   0.234  0.00  0.00    -0.238 OA
ATOM     11  H   UNL d   1      28.223 -15.845   2.159  0.00  0.00     0.165 HD
BRANCH   9  12
ATOM     12  O   UNL d   1      27.257 -13.605   2.472  0.00  0.00    -0.294 OA
BRANCH  12  13
ATOM     13  C   UNL d   1      28.459 -13.696   3.314  0.00  0.00     0.061 C 
ATOM     14  C   UNL d   1      28.554 -12.316   3.950  0.00  0.00     0.046 C 
ATOM     15  C   UNL d   1      28.424 -14.824   4.358  0.00  0.00     0.046 C 
ATOM     16  C   UNL d   1      29.774 -13.916   2.505  0.00  0.00     0.046 C 
ENDBRANCH  12  13
ENDBRANCH   9  12
ENDBRANCH   7   8
ENDBRANCH   2   7
BRANCH   1  17
ATOM     17  C   UNL d   1      29.542 -17.365  -1.483  0.00  0.00     0.035 C 
ATOM     18  C   UNL d   1      30.665 -17.007  -0.566  0.00  0.00     0.010 C 
ENDBRANCH   1  17
BRANCH   3  19
ATOM     19  C   UNL d   1      24.709 -16.241  -0.964  0.00  0.00     0.035 C 
ATOM     20  C   UNL d   1      24.244 -17.681  -0.949  0.00  0.00     0.010 C 
ENDBRANCH   3  19
BRANCH   6  21
ATOM     21  C   UNL d   1      29.768 -15.788  -3.881  0.00  0.00     0.164 C 
BRANCH  21  22
ATOM     22  N   UNL d   1      29.993 -16.294  -5.195  0.00  0.00    -0.333 N 
ATOM     23  C   UNL d   1      30.183 -17.599  -5.437  0.00  0.00     0.361 C 
ATOM     24  O   UNL d   1      30.037 -18.478  -4.630  0.00  0.00    -0.238 OA
ATOM     25  H   UNL d   1      30.217 -15.793  -6.021  0.00  0.00     0.165 HD
BRANCH  23  26
ATOM     26  O   UNL d   1      30.555 -17.675  -6.748  0.00  0.00    -0.294 OA
BRANCH  26  27
ATOM     27  C   UNL d   1      31.301 -18.836  -7.141  0.00  0.00     0.061 C 
ATOM     28  C   UNL d   1      30.418 -20.076  -7.017  0.00  0.00     0.046 C 
ATOM     29  C   UNL d   1      31.839 -18.613  -8.555  0.00  0.00     0.046 C 
ATOM     30  C   UNL d   1      32.503 -19.010  -6.195  0.00  0.00     0.046 C 
ENDBRANCH  26  27
ENDBRANCH  23  26
ENDBRANCH  21  22
ENDBRANCH   6  21
BRANCH   4  31
ATOM     31  C   UNL d   1      24.838 -14.446  -3.510  0.00  0.00     0.164 C 
BRANCH  31  32
ATOM     32  N   UNL d   1      24.880 -13.058  -3.895  0.00  0.00    -0.333 N 
ATOM     33  C   UNL d   1      25.567 -12.149  -3.174  0.00  0.00     0.361 C 
ATOM     34  O   UNL d   1      26.323 -12.418  -2.259  0.00  0.00    -0.238 OA
ATOM     35  H   UNL d   1      24.092 -12.561  -4.251  0.00  0.00     0.165 HD
BRANCH  33  36
ATOM     36  O   UNL d   1      25.222 -10.916  -3.641  0.00  0.00    -0.294 OA
BRANCH  36  37
ATOM     37  C   UNL d   1      26.084 -10.305  -4.624  0.00  0.00     0.061 C 
ATOM     38  C   UNL d   1      25.914 -11.011  -5.969  0.00  0.00     0.046 C 
ATOM     39  C   UNL d   1      25.787  -8.806  -4.701  0.00  0.00     0.046 C 
ATOM     40  C   UNL d   1      27.553 -10.470  -4.185  0.00  0.00     0.046 C 
ENDBRANCH  36  37
ENDBRANCH  33  36
ENDBRANCH  31  32
ENDBRANCH   4  31
BRANCH   5  41
ATOM     41  C   UNL d   1      27.292 -14.717  -5.117  0.00  0.00     0.035 C 
ATOM     42  C   UNL d   1      28.157 -13.598  -5.614  0.00  0.00     0.010 C 
ENDBRANCH   5  41
TORSDOF 15
ENDMDL
MODEL 6
REMARK VINA RESULT:    -7.126      2.487      6.322
REMARK INTER + INTRA:         -14.769
REMARK INTER:                 -11.601
REMARK INTRA:                  -3.169
REMARK CONF_INDEPENDENT:        4.474
REMARK UNBOUND:                -3.169
REMARK  15 active torsions:
REMARK  status: ('A' for Active; 'I' for Inactive)
REMARK    1  A    between atoms: C_2  and  C_3 
REMARK    2  A    between atoms: C_4  and  C_5 
REMARK    3  A    between atoms: C_5  and  N_6 
REMARK       I    between atoms: N_6  and  C_7 
REMARK    4  A    between atoms: C_7  and  O_9 
REMARK    5  A    between atoms: O_9  and  C_10 
REMARK    6  A    between atoms: C_14  and  C_15 
REMARK    7  A    between atoms: C_17  and  C_18 
REMARK    8  A    between atoms: C_18  and  N_19 
REMARK       I    between atoms: N_19  and  C_20 
REMARK    9  A    between atoms: C_20  and  O_22 
REMARK   10  A    between atoms: O_22  and  C_23 
REMARK   11  A    between atoms: C_27  and  C_28 
REMARK   12  A    between atoms: C_30  and  C_31 
REMARK   13  A    between atoms: C_31  and  N_32 
REMARK       I    between atoms: N_32  and  C_33 
REMARK   14  A    between atoms: C_33  and  O_35 
REMARK   15  A    between atoms: O_35  and  C_36 
ROOT
ATOM      1  C   UNL d   1      25.853 -15.699  -1.844  0.00  0.00    -0.042 C 
ATOM      2  C   UNL d   1      25.901 -15.035  -3.075  0.00  0.00    -0.027 C 
ATOM      3  C   UNL d   1      27.082 -15.201  -3.890  0.00  0.00    -0.042 C 
ATOM      4  C   UNL d   1      28.311 -15.701  -3.315  0.00  0.00    -0.027 C 
ATOM      5  C   UNL d   1      28.261 -16.225  -1.991  0.00  0.00    -0.042 C 
ATOM      6  C   UNL d   1      27.045 -16.180  -1.244  0.00  0.00    -0.027 C 
ENDROOT
BRANCH   2   7
ATOM      7  C   UNL d   1      24.750 -14.124  -3.555  0.00  0.00     0.164 C 
BRANCH   7   8
ATOM      8  N   UNL d   1      25.120 -12.796  -4.066  0.00  0.00    -0.333 N 
ATOM      9  C   UNL d   1      26.195 -12.090  -3.545  0.00  0.00     0.361 C 
ATOM     10  O   UNL d   1      26.578 -12.267  -2.397  0.00  0.00    -0.238 OA
ATOM     11  H   UNL d   1      24.781 -12.532  -4.975  0.00  0.00     0.165 HD
BRANCH   9  12
ATOM     12  O   UNL d   1      26.805 -11.232  -4.462  0.00  0.00    -0.294 OA
BRANCH  12  13
ATOM     13  C   UNL d   1      26.170  -9.949  -4.799  0.00  0.00     0.061 C 
ATOM     14  C   UNL d   1      25.528 -10.215  -6.154  0.00  0.00     0.046 C 
ATOM     15  C   UNL d   1      25.158  -9.443  -3.757  0.00  0.00     0.046 C 
ATOM     16  C   UNL d   1      27.186  -8.782  -4.996  0.00  0.00     0.046 C 
ENDBRANCH  12  13
ENDBRANCH   9  12
ENDBRANCH   7   8
ENDBRANCH   2   7
BRANCH   1  17
ATOM     17  C   UNL d   1      24.596 -15.948  -1.069  0.00  0.00     0.035 C 
ATOM     18  C   UNL d   1      23.919 -17.250  -0.795  0.00  0.00     0.010 C 
ENDBRANCH   1  17
BRANCH   3  19
ATOM     19  C   UNL d   1      26.873 -14.949  -5.394  0.00  0.00     0.035 C 
ATOM     20  C   UNL d   1      27.737 -13.925  -6.097  0.00  0.00     0.010 C 
ENDBRANCH   3  19
BRANCH   6  21
ATOM     21  C   UNL d   1      27.083 -16.619   0.217  0.00  0.00     0.164 C 
BRANCH  21  22
ATOM     22  N   UNL d   1      27.796 -15.940   1.247  0.00  0.00    -0.333 N 
ATOM     23  C   UNL d   1      28.017 -14.618   1.214  0.00  0.00     0.361 C 
ATOM     24  O   UNL d   1      27.526 -13.857   0.424  0.00  0.00    -0.238 OA
ATOM     25  H   UNL d   1      28.353 -16.325   1.972  0.00  0.00     0.165 HD
BRANCH  23  26
ATOM     26  O   UNL d   1      28.881 -14.367   2.240  0.00  0.00    -0.294 OA
BRANCH  26  27
ATOM     27  C   UNL d   1      28.328 -13.762   3.417  0.00  0.00     0.061 C 
ATOM     28  C   UNL d   1      27.030 -13.042   3.058  0.00  0.00     0.046 C 
ATOM     29  C   UNL d   1      28.148 -14.843   4.482  0.00  0.00     0.046 C 
ATOM     30  C   UNL d   1      29.319 -12.716   3.962  0.00  0.00     0.046 C 
ENDBRANCH  26  27
ENDBRANCH  23  26
ENDBRANCH  21  22
ENDBRANCH   6  21
BRANCH   4  31
ATOM     31  C   UNL d   1      29.639 -15.582  -4.100  0.00  0.00     0.164 C 
BRANCH  31  32
ATOM     32  N   UNL d   1      29.854 -16.152  -5.406  0.00  0.00    -0.333 N 
ATOM     33  C   UNL d   1      30.101 -17.468  -5.566  0.00  0.00     0.361 C 
ATOM     34  O   UNL d   1      30.010 -18.303  -4.684  0.00  0.00    -0.238 OA
ATOM     35  H   UNL d   1      30.381 -15.703  -6.123  0.00  0.00     0.165 HD
BRANCH  33  36
ATOM     36  O   UNL d   1      30.494 -17.653  -6.858  0.00  0.00    -0.294 OA
BRANCH  36  37
ATOM     37  C   UNL d   1      31.354 -18.775  -7.143  0.00  0.00     0.061 C 
ATOM     38  C   UNL d   1      30.552 -20.074  -7.065  0.00  0.00     0.046 C 
ATOM     39  C   UNL d   1      32.021 -18.572  -8.506  0.00  0.00     0.046 C 
ATOM     40  C   UNL d   1      32.470 -18.844  -6.081  0.00  0.00     0.046 C 
ENDBRANCH  36  37
ENDBRANCH  33  36
ENDBRANCH  31  32
ENDBRANCH   4  31
BRANCH   5  41
ATOM     41  C   UNL d   1      29.524 -16.867  -1.452  0.00  0.00     0.035 C 
ATOM     42  C   UNL d   1      30.563 -16.191  -0.610  0.00  0.00     0.010 C 
ENDBRANCH   5  41
TORSDOF 15
ENDMDL
MODEL 7
REMARK VINA RESULT:    -7.056      2.393      7.263
REMARK INTER + INTRA:         -14.920
REMARK INTER:                 -11.531
REMARK INTRA:                  -3.389
REMARK CONF_INDEPENDENT:        4.474
REMARK UNBOUND:                -3.389
REMARK  15 active torsions:
REMARK  status: ('A' for Active; 'I' for Inactive)
REMARK    1  A    between atoms: C_2  and  C_3 
REMARK    2  A    between atoms: C_4  and  C_5 
REMARK    3  A    between atoms: C_5  and  N_6 
REMARK       I    between atoms: N_6  and  C_7 
REMARK    4  A    between atoms: C_7  and  O_9 
REMARK    5  A    between atoms: O_9  and  C_10 
REMARK    6  A    between atoms: C_14  and  C_15 
REMARK    7  A    between atoms: C_17  and  C_18 
REMARK    8  A    between atoms: C_18  and  N_19 
REMARK       I    between atoms: N_19  and  C_20 
REMARK    9  A    between atoms: C_20  and  O_22 
REMARK   10  A    between atoms: O_22  and  C_23 
REMARK   11  A    between atoms: C_27  and  C_28 
REMARK   12  A    between atoms: C_30  and  C_31 
REMARK   13  A    between atoms: C_31  and  N_32 
REMARK       I    between atoms: N_32  and  C_33 
REMARK   14  A    between atoms: C_33  and  O_35 
REMARK   15  A    between atoms: O_35  and  C_36 
ROOT
ATOM      1  C   UNL d   1      27.732 -15.246  -4.244  0.00  0.00    -0.042 C 
ATOM      2  C   UNL d   1      28.835 -15.637  -3.477  0.00  0.00    -0.027 C 
ATOM      3  C   UNL d   1      28.587 -16.310  -2.224  0.00  0.00    -0.042 C 
ATOM      4  C   UNL d   1      27.286 -16.245  -1.597  0.00  0.00    -0.027 C 
ATOM      5  C   UNL d   1      26.211 -15.689  -2.350  0.00  0.00    -0.042 C 
ATOM      6  C   UNL d   1      26.447 -15.150  -3.650  0.00  0.00    -0.027 C 
ENDROOT
BRANCH   2   7
ATOM      7  C   UNL d   1      30.284 -15.341  -3.925  0.00  0.00     0.164 C 
BRANCH   7   8
ATOM      8  N   UNL d   1      30.782 -16.077  -5.095  0.00  0.00    -0.333 N 
ATOM      9  C   UNL d   1      30.400 -17.387  -5.348  0.00  0.00     0.361 C 
ATOM     10  O   UNL d   1      30.051 -18.134  -4.445  0.00  0.00    -0.238 OA
ATOM     11  H   UNL d   1      31.162 -15.543  -5.858  0.00  0.00     0.165 HD
BRANCH   9  12
ATOM     12  O   UNL d   1      30.398 -17.723  -6.703  0.00  0.00    -0.294 OA
BRANCH  12  13
ATOM     13  C   UNL d   1      31.205 -18.858  -7.176  0.00  0.00     0.061 C 
ATOM     14  C   UNL d   1      30.405 -20.074  -6.732  0.00  0.00     0.046 C 
ATOM     15  C   UNL d   1      31.484 -18.857  -8.689  0.00  0.00     0.046 C 
ATOM     16  C   UNL d   1      32.604 -18.957  -6.494  0.00  0.00     0.046 C 
ENDBRANCH  12  13
ENDBRANCH   9  12
ENDBRANCH   7   8
ENDBRANCH   2   7
BRANCH   1  17
ATOM     17  C   UNL d   1      27.797 -14.897  -5.699  0.00  0.00     0.035 C 
ATOM     18  C   UNL d   1      28.170 -13.593  -6.323  0.00  0.00     0.010 C 
ENDBRANCH   1  17
BRANCH   3  19
ATOM     19  C   UNL d   1      29.744 -17.189  -1.719  0.00  0.00     0.035 C 
ATOM     20  C   UNL d   1      30.637 -16.671  -0.612  0.00  0.00     0.010 C 
ENDBRANCH   3  19
BRANCH   6  21
ATOM     21  C   UNL d   1      25.294 -14.437  -4.352  0.00  0.00     0.164 C 
BRANCH  21  22
ATOM     22  N   UNL d   1      25.151 -13.021  -4.436  0.00  0.00    -0.333 N 
ATOM     23  C   UNL d   1      25.650 -12.194  -3.506  0.00  0.00     0.361 C 
ATOM     24  O   UNL d   1      26.382 -12.524  -2.612  0.00  0.00    -0.238 OA
ATOM     25  H   UNL d   1      24.554 -12.494  -5.026  0.00  0.00     0.165 HD
BRANCH  23  26
ATOM     26  O   UNL d   1      25.155 -10.960  -3.814  0.00  0.00    -0.294 OA
BRANCH  26  27
ATOM     27  C   UNL d   1      25.941 -10.151  -4.700  0.00  0.00     0.061 C 
ATOM     28  C   UNL d   1      25.530 -10.429  -6.144  0.00  0.00     0.046 C 
ATOM     29  C   UNL d   1      25.780  -8.686  -4.295  0.00  0.00     0.046 C 
ATOM     30  C   UNL d   1      27.427 -10.528  -4.546  0.00  0.00     0.046 C 
ENDBRANCH  26  27
ENDBRANCH  23  26
ENDBRANCH  21  22
ENDBRANCH   6  21
BRANCH   4  31
ATOM     31  C   UNL d   1      27.111 -16.692  -0.126  0.00  0.00     0.164 C 
BRANCH  31  32
ATOM     32  N   UNL d   1      27.784 -16.073   0.987  0.00  0.00    -0.333 N 
ATOM     33  C   UNL d   1      28.044 -14.750   1.003  0.00  0.00     0.361 C 
ATOM     34  O   UNL d   1      27.614 -13.949   0.193  0.00  0.00    -0.238 OA
ATOM     35  H   UNL d   1      28.549 -16.491   1.470  0.00  0.00     0.165 HD
BRANCH  33  36
ATOM     36  O   UNL d   1      28.886 -14.514   2.049  0.00  0.00    -0.294 OA
BRANCH  36  37
ATOM     37  C   UNL d   1      28.349 -13.832   3.201  0.00  0.00     0.061 C 
ATOM     38  C   UNL d   1      28.154 -14.826   4.346  0.00  0.00     0.046 C 
ATOM     39  C   UNL d   1      29.269 -12.668   3.578  0.00  0.00     0.046 C 
ATOM     40  C   UNL d   1      26.969 -13.243   2.846  0.00  0.00     0.046 C 
ENDBRANCH  36  37
ENDBRANCH  33  36
ENDBRANCH  31  32
ENDBRANCH   4  31
BRANCH   5  41
ATOM     41  C   UNL d   1      24.828 -15.750  -1.732  0.00  0.00     0.035 C 
ATOM     42  C   UNL d   1      24.115 -16.995  -1.298  0.00  0.00     0.010 C 
ENDBRANCH   5  41
TORSDOF 15
ENDMDL
MODEL 8
REMARK VINA RESULT:    -6.453      5.282      9.756
REMARK INTER + INTRA:         -14.777
REMARK INTER:                 -10.927
REMARK INTRA:                  -3.850
REMARK CONF_INDEPENDENT:        4.474
REMARK UNBOUND:                -3.850
REMARK  15 active torsions:
REMARK  status: ('A' for Active; 'I' for Inactive)
REMARK    1  A    between atoms: C_2  and  C_3 
REMARK    2  A    between atoms: C_4  and  C_5 
REMARK    3  A    between atoms: C_5  and  N_6 
REMARK       I    between atoms: N_6  and  C_7 
REMARK    4  A    between atoms: C_7  and  O_9 
REMARK    5  A    between atoms: O_9  and  C_10 
REMARK    6  A    between atoms: C_14  and  C_15 
REMARK    7  A    between atoms: C_17  and  C_18 
REMARK    8  A    between atoms: C_18  and  N_19 
REMARK       I    between atoms: N_19  and  C_20 
REMARK    9  A    between atoms: C_20  and  O_22 
REMARK   10  A    between atoms: O_22  and  C_23 
REMARK   11  A    between atoms: C_27  and  C_28 
REMARK   12  A    between atoms: C_30  and  C_31 
REMARK   13  A    between atoms: C_31  and  N_32 
REMARK       I    between atoms: N_32  and  C_33 
REMARK   14  A    between atoms: C_33  and  O_35 
REMARK   15  A    between atoms: O_35  and  C_36 
ROOT
ATOM      1  C   UNL d   1      27.719 -14.584  -0.330  0.00  0.00    -0.042 C 
ATOM      2  C   UNL d   1      26.777 -13.963  -1.160  0.00  0.00    -0.027 C 
ATOM      3  C   UNL d   1      26.819 -12.525  -1.276  0.00  0.00    -0.042 C 
ATOM      4  C   UNL d   1      27.528 -11.726  -0.303  0.00  0.00    -0.027 C 
ATOM      5  C   UNL d   1      28.356 -12.403   0.638  0.00  0.00    -0.042 C 
ATOM      6  C   UNL d   1      28.413 -13.830   0.651  0.00  0.00    -0.027 C 
ENDROOT
BRANCH   2   7
ATOM      7  C   UNL d   1      25.699 -14.772  -1.916  0.00  0.00     0.164 C 
BRANCH   7   8
ATOM      8  N   UNL d   1      26.148 -15.559  -3.073  0.00  0.00    -0.333 N 
ATOM      9  C   UNL d   1      25.904 -15.144  -4.374  0.00  0.00     0.361 C 
ATOM     10  O   UNL d   1      24.956 -14.422  -4.645  0.00  0.00    -0.238 OA
ATOM     11  H   UNL d   1      26.875 -16.238  -2.925  0.00  0.00     0.165 HD
BRANCH   9  12
ATOM     12  O   UNL d   1      26.862 -15.575  -5.293  0.00  0.00    -0.294 OA
BRANCH  12  13
ATOM     13  C   UNL d   1      28.176 -14.915  -5.346  0.00  0.00     0.061 C 
ATOM     14  C   UNL d   1      29.147 -16.024  -4.967  0.00  0.00     0.046 C 
ATOM     15  C   UNL d   1      28.515 -14.274  -6.701  0.00  0.00     0.046 C 
ATOM     16  C   UNL d   1      28.347 -13.779  -4.291  0.00  0.00     0.046 C 
ENDBRANCH  12  13
ENDBRANCH   9  12
ENDBRANCH   7   8
ENDBRANCH   2   7
BRANCH   1  17
ATOM     17  C   UNL d   1      28.064 -16.040  -0.388  0.00  0.00     0.035 C 
ATOM     18  C   UNL d   1      27.205 -17.210  -0.038  0.00  0.00     0.010 C 
ENDBRANCH   1  17
BRANCH   3  19
ATOM     19  C   UNL d   1      26.191 -11.960  -2.563  0.00  0.00     0.035 C 
ATOM     20  C   UNL d   1      26.975 -10.963  -3.390  0.00  0.00     0.010 C 
ENDBRANCH   3  19
BRANCH   6  21
ATOM     21  C   UNL d   1      29.199 -14.507   1.769  0.00  0.00     0.164 C 
BRANCH  21  22
ATOM     22  N   UNL d   1      28.731 -14.666   3.106  0.00  0.00    -0.333 N 
ATOM     23  C   UNL d   1      27.750 -13.908   3.616  0.00  0.00     0.361 C 
ATOM     24  O   UNL d   1      27.069 -13.144   2.984  0.00  0.00    -0.238 OA
ATOM     25  H   UNL d   1      29.146 -15.171   3.852  0.00  0.00     0.165 HD
BRANCH  23  26
ATOM     26  O   UNL d   1      27.713 -14.206   4.947  0.00  0.00    -0.294 OA
BRANCH  26  27
ATOM     27  C   UNL d   1      28.595 -13.463   5.800  0.00  0.00     0.061 C 
ATOM     28  C   UNL d   1      27.780 -12.515   6.676  0.00  0.00     0.046 C 
ATOM     29  C   UNL d   1      29.444 -14.451   6.602  0.00  0.00     0.046 C 
ATOM     30  C   UNL d   1      29.544 -12.615   4.932  0.00  0.00     0.046 C 
ENDBRANCH  26  27
ENDBRANCH  23  26
ENDBRANCH  21  22
ENDBRANCH   6  21
BRANCH   4  31
ATOM     31  C   UNL d   1      27.310 -10.194  -0.250  0.00  0.00     0.164 C 
BRANCH  31  32
ATOM     32  N   UNL d   1      27.360  -9.418   0.963  0.00  0.00    -0.333 N 
ATOM     33  C   UNL d   1      26.493  -9.636   1.972  0.00  0.00     0.361 C 
ATOM     34  O   UNL d   1      25.720 -10.575   2.033  0.00  0.00    -0.238 OA
ATOM     35  H   UNL d   1      27.535  -8.436   0.982  0.00  0.00     0.165 HD
BRANCH  33  36
ATOM     36  O   UNL d   1      26.632  -8.607   2.856  0.00  0.00    -0.294 OA
BRANCH  36  37
ATOM     37  C   UNL d   1      27.676  -8.709   3.846  0.00  0.00     0.061 C 
ATOM     38  C   UNL d   1      27.635 -10.090   4.499  0.00  0.00     0.046 C 
ATOM     39  C   UNL d   1      29.027  -8.402   3.196  0.00  0.00     0.046 C 
ATOM     40  C   UNL d   1      27.437  -7.657   4.948  0.00  0.00     0.046 C 
ENDBRANCH  36  37
ENDBRANCH  33  36
ENDBRANCH  31  32
ENDBRANCH   4  31
BRANCH   5  41
ATOM     41  C   UNL d   1      29.196 -11.547   1.565  0.00  0.00     0.035 C 
ATOM     42  C   UNL d   1      30.580 -11.045   1.283  0.00  0.00     0.010 C 
ENDBRANCH   5  41
TORSDOF 15
ENDMDL
MODEL 9
REMARK VINA RESULT:    -5.903      3.732      7.699
REMARK INTER + INTRA:         -14.761
REMARK INTER:                 -10.377
REMARK INTRA:                  -4.384
REMARK CONF_INDEPENDENT:        4.474
REMARK UNBOUND:                -4.384
REMARK  15 active torsions:
REMARK  status: ('A' for Active; 'I' for Inactive)
REMARK    1  A    between atoms: C_2  and  C_3 
REMARK    2  A    between atoms: C_4  and  C_5 
REMARK    3  A    between atoms: C_5  and  N_6 
REMARK       I    between atoms: N_6  and  C_7 
REMARK    4  A    between atoms: C_7  and  O_9 
REMARK    5  A    between atoms: O_9  and  C_10 
REMARK    6  A    between atoms: C_14  and  C_15 
REMARK    7  A    between atoms: C_17  and  C_18 
REMARK    8  A    between atoms: C_18  and  N_19 
REMARK       I    between atoms: N_19  and  C_20 
REMARK    9  A    between atoms: C_20  and  O_22 
REMARK   10  A    between atoms: O_22  and  C_23 
REMARK   11  A    between atoms: C_27  and  C_28 
REMARK   12  A    between atoms: C_30  and  C_31 
REMARK   13  A    between atoms: C_31  and  N_32 
REMARK       I    between atoms: N_32  and  C_33 
REMARK   14  A    between atoms: C_33  and  O_35 
REMARK   15  A    between atoms: O_35  and  C_36 
ROOT
ATOM      1  C   UNL d   1      25.973 -15.748  -1.541  0.00  0.00    -0.042 C 
ATOM      2  C   UNL d   1      26.860 -15.862  -0.463  0.00  0.00    -0.027 C 
ATOM      3  C   UNL d   1      27.355 -14.648   0.140  0.00  0.00    -0.042 C 
ATOM      4  C   UNL d   1      27.261 -13.385  -0.557  0.00  0.00    -0.027 C 
ATOM      5  C   UNL d   1      26.478 -13.339  -1.748  0.00  0.00    -0.042 C 
ATOM      6  C   UNL d   1      25.877 -14.529  -2.260  0.00  0.00    -0.027 C 
ENDROOT
BRANCH   2   7
ATOM      7  C   UNL d   1      27.330 -17.237   0.061  0.00  0.00     0.164 C 
BRANCH   7   8
ATOM      8  N   UNL d   1      28.733 -17.599  -0.186  0.00  0.00    -0.333 N 
ATOM      9  C   UNL d   1      29.378 -17.252  -1.364  0.00  0.00     0.361 C 
ATOM     10  O   UNL d   1      28.757 -17.075  -2.402  0.00  0.00    -0.238 OA
ATOM     11  H   UNL d   1      29.303 -17.838   0.608  0.00  0.00     0.165 HD
BRANCH   9  12
ATOM     12  O   UNL d   1      30.755 -17.073  -1.223  0.00  0.00    -0.294 OA
BRANCH  12  13
ATOM     13  C   UNL d   1      31.358 -15.765  -1.519  0.00  0.00     0.061 C 
ATOM     14  C   UNL d   1      31.835 -15.276  -0.159  0.00  0.00     0.046 C 
ATOM     15  C   UNL d   1      32.489 -15.804  -2.561  0.00  0.00     0.046 C 
ATOM     16  C   UNL d   1      30.337 -14.713  -2.051  0.00  0.00     0.046 C 
ENDBRANCH  12  13
ENDBRANCH   9  12
ENDBRANCH   7   8
ENDBRANCH   2   7
BRANCH   1  17
ATOM     17  C   UNL d   1      25.087 -16.854  -2.025  0.00  0.00     0.035 C 
ATOM     18  C   UNL d   1      24.114 -17.671  -1.241  0.00  0.00     0.010 C 
ENDBRANCH   1  17
BRANCH   3  19
ATOM     19  C   UNL d   1      27.833 -14.795   1.596  0.00  0.00     0.035 C 
ATOM     20  C   UNL d   1      29.284 -14.517   1.928  0.00  0.00     0.010 C 
ENDBRANCH   3  19
BRANCH   6  21
ATOM     21  C   UNL d   1      25.174 -14.453  -3.612  0.00  0.00     0.164 C 
BRANCH  21  22
ATOM     22  N   UNL d   1      25.837 -14.510  -4.872  0.00  0.00    -0.333 N 
ATOM     23  C   UNL d   1      26.972 -15.199  -5.054  0.00  0.00     0.361 C 
ATOM     24  O   UNL d   1      27.460 -15.948  -4.250  0.00  0.00    -0.238 OA
ATOM     25  H   UNL d   1      25.687 -13.948  -5.676  0.00  0.00     0.165 HD
BRANCH  23  26
ATOM     26  O   UNL d   1      27.405 -14.864  -6.304  0.00  0.00    -0.294 OA
BRANCH  26  27
ATOM     27  C   UNL d   1      28.745 -14.364  -6.412  0.00  0.00     0.061 C 
ATOM     28  C   UNL d   1      29.082 -13.536  -5.174  0.00  0.00     0.046 C 
ATOM     29  C   UNL d   1      29.690 -15.546  -6.627  0.00  0.00     0.046 C 
ATOM     30  C   UNL d   1      28.844 -13.443  -7.643  0.00  0.00     0.046 C 
ENDBRANCH  26  27
ENDBRANCH  23  26
ENDBRANCH  21  22
ENDBRANCH   6  21
BRANCH   4  31
ATOM     31  C   UNL d   1      28.062 -12.160  -0.055  0.00  0.00     0.164 C 
BRANCH  31  32
ATOM     32  N   UNL d   1      28.134 -11.760   1.326  0.00  0.00    -0.333 N 
ATOM     33  C   UNL d   1      27.044 -11.772   2.120  0.00  0.00     0.361 C 
ATOM     34  O   UNL d   1      25.969 -12.256   1.814  0.00  0.00    -0.238 OA
ATOM     35  H   UNL d   1      28.677 -10.988   1.649  0.00  0.00     0.165 HD
BRANCH  33  36
ATOM     36  O   UNL d   1      27.373 -11.124   3.273  0.00  0.00    -0.294 OA
BRANCH  36  37
ATOM     37  C   UNL d   1      27.993 -11.895   4.323  0.00  0.00     0.061 C 
ATOM     38  C   UNL d   1      27.822 -11.175   5.661  0.00  0.00     0.046 C 
ATOM     39  C   UNL d   1      27.405 -13.308   4.331  0.00  0.00     0.046 C 
ATOM     40  C   UNL d   1      29.504 -12.018   4.041  0.00  0.00     0.046 C 
ENDBRANCH  36  37
ENDBRANCH  33  36
ENDBRANCH  31  32
ENDBRANCH   4  31
BRANCH   5  41
ATOM     41  C   UNL d   1      26.279 -11.983  -2.394  0.00  0.00     0.035 C 
ATOM     42  C   UNL d   1      26.794 -11.565  -3.738  0.00  0.00     0.010 C 
ENDBRANCH   5  41
TORSDOF 15
ENDMDL
