MODEL 1
REMARK VINA RESULT:    -9.437      0.000      0.000
REMARK INTER + INTRA:         -12.012
REMARK INTER:                 -11.226
REMARK INTRA:                  -0.786
REMARK CONF_INDEPENDENT:        1.790
REMARK UNBOUND:                -0.786
REMARK  6 active torsions:
REMARK  status: ('A' for Active; 'I' for Inactive)
REMARK    1  A    between atoms: C_2  and  C_20 
REMARK    2  A    between atoms: C_2  and  N_3 
REMARK    3  A    between atoms: N_3  and  C_4 
REMARK    4  A    between atoms: C_7  and  O_8 
REMARK    5  A    between atoms: O_8  and  C_9 
REMARK    6  A    between atoms: C_9  and  C_10 
REMARK       I    between atoms: C_20  and  N_22 
REMARK       I    between atoms: N_22  and  C_23 
REMARK       I    between atoms: C_23  and  N_24 
ROOT
ATOM      1  C   UNL d   1      25.171 -17.149  -0.555  0.00  0.00     0.031 C 
ATOM      2  C   UNL d   1      24.200 -16.152  -0.672  0.00  0.00     0.032 C 
ATOM      3  C   UNL d   1      22.850 -16.408  -0.872  0.00  0.00     0.042 C 
ATOM      4  C   UNL d   1      22.392 -17.705  -0.797  0.00  0.00     0.107 C 
ATOM      5  C   UNL d   1      23.329 -18.727  -0.599  0.00  0.00     0.151 C 
ATOM      6  F   UNL d   1      22.944 -20.006  -0.470  0.00  0.00    -0.203 F 
ATOM      7  C   UNL d   1      24.702 -18.462  -0.520  0.00  0.00     0.074 C 
ENDROOT
BRANCH   1   8
ATOM      8  N   UNL d   1      26.541 -16.886  -0.615  0.00  0.00    -0.377 N 
ATOM      9  H   UNL d   1      27.067 -17.363   0.119  0.00  0.00     0.160 HD
BRANCH   8  10
ATOM     10  C   UNL d   1      27.098 -15.548  -0.963  0.00  0.00     0.170 C 
ATOM     11  C   UNL d   1      28.627 -15.602  -1.086  0.00  0.00     0.042 C 
BRANCH  10  12
ATOM     12  C   UNL d   1      26.338 -14.902  -2.160  0.00  0.00     0.247 C 
ATOM     13  O   UNL d   1      25.608 -13.916  -2.007  0.00  0.00    -0.271 OA
ATOM     14  N   UNL d   1      26.599 -15.425  -3.419  0.00  0.00    -0.278 N 
ATOM     15  C   UNL d   1      26.041 -15.031  -4.613  0.00  0.00     0.320 C 
ATOM     16  H   UNL d   1      27.251 -16.186  -3.538  0.00  0.00     0.173 HD
ATOM     17  N   UNL d   1      25.149 -14.016  -4.557  0.00  0.00    -0.352 N 
ATOM     18  O   UNL d   1      26.330 -15.575  -5.666  0.00  0.00    -0.247 OA
ATOM     19  H   UNL d   1      24.940 -13.572  -3.666  0.00  0.00     0.160 HD
ATOM     20  H   UNL d   1      24.704 -13.673  -5.395  0.00  0.00     0.160 HD
ENDBRANCH  10  12
ENDBRANCH   8  10
ENDBRANCH   1   8
BRANCH   4  21
ATOM     21  O   UNL d   1      21.032 -17.806  -0.889  0.00  0.00    -0.344 OA
BRANCH  21  22
ATOM     22  C   UNL d   1      20.566 -19.090  -1.268  0.00  0.00     0.214 C 
BRANCH  22  23
ATOM     23  C   UNL d   1      19.921 -19.766  -0.093  0.00  0.00    -0.031 A 
ATOM     24  C   UNL d   1      18.709 -20.449  -0.269  0.00  0.00     0.009 A 
ATOM     25  C   UNL d   1      18.027 -20.971   0.828  0.00  0.00     0.004 A 
ATOM     26  C   UNL d   1      18.562 -20.826   2.106  0.00  0.00     0.042 A 
ATOM     27  C   UNL d   1      19.787 -20.190   2.274  0.00  0.00     0.117 A 
ATOM     28  F   UNL d   1      20.296 -20.056   3.507  0.00  0.00    -0.206 F 
ATOM     29  C   UNL d   1      20.478 -19.668   1.188  0.00  0.00     0.051 A 
ENDBRANCH  22  23
ENDBRANCH  21  22
ENDBRANCH   4  21
TORSDOF 6
ENDMDL
MODEL 2
REMARK VINA RESULT:    -8.987      1.531      2.047
REMARK INTER + INTRA:         -11.775
REMARK INTER:                 -10.777
REMARK INTRA:                  -0.999
REMARK CONF_INDEPENDENT:        1.790
REMARK UNBOUND:                -0.999
REMARK  6 active torsions:
REMARK  status: ('A' for Active; 'I' for Inactive)
REMARK    1  A    between atoms: C_2  and  C_20 
REMARK    2  A    between atoms: C_2  and  N_3 
REMARK    3  A    between atoms: N_3  and  C_4 
REMARK    4  A    between atoms: C_7  and  O_8 
REMARK    5  A    between atoms: O_8  and  C_9 
REMARK    6  A    between atoms: C_9  and  C_10 
REMARK       I    between atoms: C_20  and  N_22 
REMARK       I    between atoms: N_22  and  C_23 
REMARK       I    between atoms: C_23  and  N_24 
ROOT
ATOM      1  C   UNL d   1      25.647 -16.664  -0.242  0.00  0.00     0.031 C 
ATOM      2  C   UNL d   1      25.675 -18.059  -0.190  0.00  0.00     0.032 C 
ATOM      3  C   UNL d   1      24.548 -18.860  -0.321  0.00  0.00     0.042 C 
ATOM      4  C   UNL d   1      23.350 -18.283  -0.681  0.00  0.00     0.107 C 
ATOM      5  C   UNL d   1      23.302 -16.891  -0.822  0.00  0.00     0.151 C 
ATOM      6  F   UNL d   1      22.180 -16.271  -1.216  0.00  0.00    -0.203 F 
ATOM      7  C   UNL d   1      24.420 -16.086  -0.567  0.00  0.00     0.074 C 
ENDROOT
BRANCH   1   8
ATOM      8  N   UNL d   1      26.726 -15.867   0.147  0.00  0.00    -0.377 N 
ATOM      9  H   UNL d   1      26.556 -15.376   1.026  0.00  0.00     0.160 HD
BRANCH   8  10
ATOM     10  C   UNL d   1      27.545 -15.080  -0.818  0.00  0.00     0.170 C 
ATOM     11  C   UNL d   1      28.583 -15.971  -1.515  0.00  0.00     0.042 C 
BRANCH  10  12
ATOM     12  C   UNL d   1      26.653 -14.211  -1.754  0.00  0.00     0.247 C 
ATOM     13  O   UNL d   1      26.386 -13.034  -1.485  0.00  0.00    -0.271 OA
ATOM     14  N   UNL d   1      26.256 -14.789  -2.952  0.00  0.00    -0.278 N 
ATOM     15  C   UNL d   1      25.461 -14.226  -3.922  0.00  0.00     0.320 C 
ATOM     16  H   UNL d   1      26.539 -15.728  -3.192  0.00  0.00     0.173 HD
ATOM     17  N   UNL d   1      25.027 -12.966  -3.691  0.00  0.00    -0.352 N 
ATOM     18  O   UNL d   1      25.156 -14.834  -4.936  0.00  0.00    -0.247 OA
ATOM     19  H   UNL d   1      25.310 -12.478  -2.844  0.00  0.00     0.160 HD
ATOM     20  H   UNL d   1      24.443 -12.490  -4.362  0.00  0.00     0.160 HD
ENDBRANCH  10  12
ENDBRANCH   8  10
ENDBRANCH   1   8
BRANCH   4  21
ATOM     21  O   UNL d   1      22.354 -19.193  -0.897  0.00  0.00    -0.344 OA
BRANCH  21  22
ATOM     22  C   UNL d   1      21.055 -18.631  -0.966  0.00  0.00     0.214 C 
BRANCH  22  23
ATOM     23  C   UNL d   1      20.138 -19.344  -0.014  0.00  0.00    -0.031 A 
ATOM     24  C   UNL d   1      20.423 -19.332   1.358  0.00  0.00     0.009 A 
ATOM     25  C   UNL d   1      19.664 -20.094   2.243  0.00  0.00     0.004 A 
ATOM     26  C   UNL d   1      18.604 -20.859   1.762  0.00  0.00     0.042 A 
ATOM     27  C   UNL d   1      18.293 -20.833   0.407  0.00  0.00     0.117 A 
ATOM     28  F   UNL d   1      17.270 -21.570  -0.049  0.00  0.00    -0.206 F 
ATOM     29  C   UNL d   1      19.041 -20.075  -0.485  0.00  0.00     0.051 A 
ENDBRANCH  22  23
ENDBRANCH  21  22
ENDBRANCH   4  21
TORSDOF 6
ENDMDL
MODEL 3
REMARK VINA RESULT:    -8.754      1.921      2.463
REMARK INTER + INTRA:         -11.292
REMARK INTER:                 -10.544
REMARK INTRA:                  -0.749
REMARK CONF_INDEPENDENT:        1.790
REMARK UNBOUND:                -0.749
REMARK  6 active torsions:
REMARK  status: ('A' for Active; 'I' for Inactive)
REMARK    1  A    between atoms: C_2  and  C_20 
REMARK    2  A    between atoms: C_2  and  N_3 
REMARK    3  A    between atoms: N_3  and  C_4 
REMARK    4  A    between atoms: C_7  and  O_8 
REMARK    5  A    between atoms: O_8  and  C_9 
REMARK    6  A    between atoms: C_9  and  C_10 
REMARK       I    between atoms: C_20  and  N_22 
REMARK       I    between atoms: N_22  and  C_23 
REMARK       I    between atoms: C_23  and  N_24 
ROOT
ATOM      1  C   UNL d   1      25.779 -16.050  -1.751  0.00  0.00     0.031 C 
ATOM      2  C   UNL d   1      24.408 -15.806  -1.845  0.00  0.00     0.032 C 
ATOM      3  C   UNL d   1      23.438 -16.617  -1.270  0.00  0.00     0.042 C 
ATOM      4  C   UNL d   1      23.824 -17.634  -0.425  0.00  0.00     0.107 C 
ATOM      5  C   UNL d   1      25.195 -17.858  -0.242  0.00  0.00     0.151 C 
ATOM      6  F   UNL d   1      25.637 -18.800   0.604  0.00  0.00    -0.203 F 
ATOM      7  C   UNL d   1      26.161 -17.107  -0.925  0.00  0.00     0.074 C 
ENDROOT
BRANCH   1   8
ATOM      8  N   UNL d   1      26.725 -15.389  -2.539  0.00  0.00    -0.377 N 
ATOM      9  H   UNL d   1      27.599 -15.214  -2.041  0.00  0.00     0.160 HD
BRANCH   8  10
ATOM     10  C   UNL d   1      26.368 -14.308  -3.500  0.00  0.00     0.170 C 
ATOM     11  C   UNL d   1      26.466 -12.927  -2.838  0.00  0.00     0.042 C 
BRANCH  10  12
ATOM     12  C   UNL d   1      27.121 -14.471  -4.855  0.00  0.00     0.247 C 
ATOM     13  O   UNL d   1      27.246 -15.575  -5.397  0.00  0.00    -0.271 OA
ATOM     14  N   UNL d   1      27.556 -13.305  -5.471  0.00  0.00    -0.278 N 
ATOM     15  C   UNL d   1      28.251 -13.202  -6.653  0.00  0.00     0.320 C 
ATOM     16  H   UNL d   1      27.386 -12.404  -5.050  0.00  0.00     0.173 HD
ATOM     17  N   UNL d   1      28.530 -14.359  -7.293  0.00  0.00    -0.352 N 
ATOM     18  O   UNL d   1      28.603 -12.121  -7.097  0.00  0.00    -0.247 OA
ATOM     19  H   UNL d   1      28.211 -15.244  -6.906  0.00  0.00     0.160 HD
ATOM     20  H   UNL d   1      29.033 -14.357  -8.168  0.00  0.00     0.160 HD
ENDBRANCH  10  12
ENDBRANCH   8  10
ENDBRANCH   1   8
BRANCH   4  21
ATOM     21  O   UNL d   1      22.773 -18.275   0.169  0.00  0.00    -0.344 OA
BRANCH  21  22
ATOM     22  C   UNL d   1      21.604 -18.341  -0.629  0.00  0.00     0.214 C 
BRANCH  22  23
ATOM     23  C   UNL d   1      20.587 -19.230   0.028  0.00  0.00    -0.031 A 
ATOM     24  C   UNL d   1      19.519 -19.734  -0.728  0.00  0.00     0.009 A 
ATOM     25  C   UNL d   1      18.495 -20.450  -0.113  0.00  0.00     0.004 A 
ATOM     26  C   UNL d   1      18.542 -20.681   1.260  0.00  0.00     0.042 A 
ATOM     27  C   UNL d   1      19.626 -20.222   2.001  0.00  0.00     0.117 A 
ATOM     28  F   UNL d   1      19.666 -20.450   3.321  0.00  0.00    -0.206 F 
ATOM     29  C   UNL d   1      20.655 -19.508   1.398  0.00  0.00     0.051 A 
ENDBRANCH  22  23
ENDBRANCH  21  22
ENDBRANCH   4  21
TORSDOF 6
ENDMDL
MODEL 4
REMARK VINA RESULT:    -8.733      1.434      1.795
REMARK INTER + INTRA:         -11.496
REMARK INTER:                 -10.523
REMARK INTRA:                  -0.973
REMARK CONF_INDEPENDENT:        1.790
REMARK UNBOUND:                -0.973
REMARK  6 active torsions:
REMARK  status: ('A' for Active; 'I' for Inactive)
REMARK    1  A    between atoms: C_2  and  C_20 
REMARK    2  A    between atoms: C_2  and  N_3 
REMARK    3  A    between atoms: N_3  and  C_4 
REMARK    4  A    between atoms: C_7  and  O_8 
REMARK    5  A    between atoms: O_8  and  C_9 
REMARK    6  A    between atoms: C_9  and  C_10 
REMARK       I    between atoms: C_20  and  N_22 
REMARK       I    between atoms: N_22  and  C_23 
REMARK       I    between atoms: C_23  and  N_24 
ROOT
ATOM      1  C   UNL d   1      25.902 -16.927  -0.410  0.00  0.00     0.031 C 
ATOM      2  C   UNL d   1      24.936 -15.945  -0.640  0.00  0.00     0.032 C 
ATOM      3  C   UNL d   1      23.591 -16.220  -0.854  0.00  0.00     0.042 C 
ATOM      4  C   UNL d   1      23.131 -17.507  -0.681  0.00  0.00     0.107 C 
ATOM      5  C   UNL d   1      24.061 -18.507  -0.370  0.00  0.00     0.151 C 
ATOM      6  F   UNL d   1      23.673 -19.770  -0.143  0.00  0.00    -0.203 F 
ATOM      7  C   UNL d   1      25.432 -18.233  -0.276  0.00  0.00     0.074 C 
ENDROOT
BRANCH   1   8
ATOM      8  N   UNL d   1      27.274 -16.668  -0.455  0.00  0.00    -0.377 N 
ATOM      9  H   UNL d   1      27.749 -16.906   0.417  0.00  0.00     0.160 HD
BRANCH   8  10
ATOM     10  C   UNL d   1      27.854 -15.474  -1.134  0.00  0.00     0.170 C 
ATOM     11  C   UNL d   1      29.322 -15.272  -0.735  0.00  0.00     0.042 C 
BRANCH  10  12
ATOM     12  C   UNL d   1      27.556 -15.481  -2.663  0.00  0.00     0.247 C 
ATOM     13  O   UNL d   1      28.340 -15.988  -3.473  0.00  0.00    -0.271 OA
ATOM     14  N   UNL d   1      26.323 -14.980  -3.060  0.00  0.00    -0.278 N 
ATOM     15  C   UNL d   1      25.848 -14.870  -4.346  0.00  0.00     0.320 C 
ATOM     16  H   UNL d   1      25.663 -14.632  -2.381  0.00  0.00     0.173 HD
ATOM     17  N   UNL d   1      26.664 -15.309  -5.331  0.00  0.00    -0.352 N 
ATOM     18  O   UNL d   1      24.750 -14.395  -4.586  0.00  0.00    -0.247 OA
ATOM     19  H   UNL d   1      27.568 -15.714  -5.100  0.00  0.00     0.160 HD
ATOM     20  H   UNL d   1      26.378 -15.262  -6.298  0.00  0.00     0.160 HD
ENDBRANCH  10  12
ENDBRANCH   8  10
ENDBRANCH   1   8
BRANCH   4  21
ATOM     21  O   UNL d   1      21.774 -17.618  -0.801  0.00  0.00    -0.344 OA
BRANCH  21  22
ATOM     22  C   UNL d   1      21.324 -18.910  -1.171  0.00  0.00     0.214 C 
BRANCH  22  23
ATOM     23  C   UNL d   1      20.365 -19.431  -0.141  0.00  0.00    -0.031 A 
ATOM     24  C   UNL d   1      20.685 -19.320   1.220  0.00  0.00     0.009 A 
ATOM     25  C   UNL d   1      19.875 -19.912   2.186  0.00  0.00     0.004 A 
ATOM     26  C   UNL d   1      18.729 -20.604   1.798  0.00  0.00     0.042 A 
ATOM     27  C   UNL d   1      18.388 -20.673   0.452  0.00  0.00     0.117 A 
ATOM     28  F   UNL d   1      17.284 -21.338   0.085  0.00  0.00    -0.206 F 
ATOM     29  C   UNL d   1      19.186 -20.084  -0.522  0.00  0.00     0.051 A 
ENDBRANCH  22  23
ENDBRANCH  21  22
ENDBRANCH   4  21
TORSDOF 6
ENDMDL
MODEL 5
REMARK VINA RESULT:    -8.674      2.656      3.864
REMARK INTER + INTRA:         -11.275
REMARK INTER:                 -10.463
REMARK INTRA:                  -0.811
REMARK CONF_INDEPENDENT:        1.790
REMARK UNBOUND:                -0.811
REMARK  6 active torsions:
REMARK  status: ('A' for Active; 'I' for Inactive)
REMARK    1  A    between atoms: C_2  and  C_20 
REMARK    2  A    between atoms: C_2  and  N_3 
REMARK    3  A    between atoms: N_3  and  C_4 
REMARK    4  A    between atoms: C_7  and  O_8 
REMARK    5  A    between atoms: O_8  and  C_9 
REMARK    6  A    between atoms: C_9  and  C_10 
REMARK       I    between atoms: C_20  and  N_22 
REMARK       I    between atoms: N_22  and  C_23 
REMARK       I    between atoms: C_23  and  N_24 
ROOT
ATOM      1  C   UNL d   1      25.866 -17.491  -0.269  0.00  0.00     0.031 C 
ATOM      2  C   UNL d   1      25.038 -18.568   0.056  0.00  0.00     0.032 C 
ATOM      3  C   UNL d   1      23.655 -18.545  -0.073  0.00  0.00     0.042 C 
ATOM      4  C   UNL d   1      23.054 -17.476  -0.700  0.00  0.00     0.107 C 
ATOM      5  C   UNL d   1      23.864 -16.411  -1.114  0.00  0.00     0.151 C 
ATOM      6  F   UNL d   1      23.349 -15.362  -1.772  0.00  0.00    -0.203 F 
ATOM      7  C   UNL d   1      25.243 -16.395  -0.867  0.00  0.00     0.074 C 
ENDROOT
BRANCH   1   8
ATOM      8  N   UNL d   1      27.210 -17.426   0.104  0.00  0.00    -0.377 N 
ATOM      9  H   UNL d   1      27.398 -17.905   0.986  0.00  0.00     0.160 HD
BRANCH   8  10
ATOM     10  C   UNL d   1      28.052 -16.214  -0.099  0.00  0.00     0.170 C 
ATOM     11  C   UNL d   1      28.206 -15.892  -1.592  0.00  0.00     0.042 C 
BRANCH  10  12
ATOM     12  C   UNL d   1      27.591 -15.035   0.810  0.00  0.00     0.247 C 
ATOM     13  O   UNL d   1      26.653 -14.296   0.486  0.00  0.00    -0.271 OA
ATOM     14  N   UNL d   1      28.215 -14.917   2.044  0.00  0.00    -0.278 N 
ATOM     15  C   UNL d   1      27.988 -13.955   3.000  0.00  0.00     0.320 C 
ATOM     16  H   UNL d   1      28.932 -15.570   2.325  0.00  0.00     0.173 HD
ATOM     17  N   UNL d   1      27.044 -13.030   2.714  0.00  0.00    -0.352 N 
ATOM     18  O   UNL d   1      28.611 -13.934   4.049  0.00  0.00    -0.247 OA
ATOM     19  H   UNL d   1      26.531 -13.082   1.837  0.00  0.00     0.160 HD
ATOM     20  H   UNL d   1      26.823 -12.298   3.372  0.00  0.00     0.160 HD
ENDBRANCH  10  12
ENDBRANCH   8  10
ENDBRANCH   1   8
BRANCH   4  21
ATOM     21  O   UNL d   1      21.708 -17.635  -0.872  0.00  0.00    -0.344 OA
BRANCH  21  22
ATOM     22  C   UNL d   1      21.310 -18.960  -1.176  0.00  0.00     0.214 C 
BRANCH  22  23
ATOM     23  C   UNL d   1      20.337 -19.452  -0.144  0.00  0.00    -0.031 A 
ATOM     24  C   UNL d   1      20.649 -19.319   1.217  0.00  0.00     0.009 A 
ATOM     25  C   UNL d   1      19.825 -19.884   2.188  0.00  0.00     0.004 A 
ATOM     26  C   UNL d   1      18.676 -20.571   1.804  0.00  0.00     0.042 A 
ATOM     27  C   UNL d   1      18.343 -20.662   0.457  0.00  0.00     0.117 A 
ATOM     28  F   UNL d   1      17.235 -21.323   0.095  0.00  0.00    -0.206 F 
ATOM     29  C   UNL d   1      19.155 -20.100  -0.521  0.00  0.00     0.051 A 
ENDBRANCH  22  23
ENDBRANCH  21  22
ENDBRANCH   4  21
TORSDOF 6
ENDMDL
MODEL 6
REMARK VINA RESULT:    -8.386      2.200      2.853
REMARK INTER + INTRA:         -10.967
REMARK INTER:                 -10.176
REMARK INTRA:                  -0.791
REMARK CONF_INDEPENDENT:        1.790
REMARK UNBOUND:                -0.791
REMARK  6 active torsions:
REMARK  status: ('A' for Active; 'I' for Inactive)
REMARK    1  A    between atoms: C_2  and  C_20 
REMARK    2  A    between atoms: C_2  and  N_3 
REMARK    3  A    between atoms: N_3  and  C_4 
REMARK    4  A    between atoms: C_7  and  O_8 
REMARK    5  A    between atoms: O_8  and  C_9 
REMARK    6  A    between atoms: C_9  and  C_10 
REMARK       I    between atoms: C_20  and  N_22 
REMARK       I    between atoms: N_22  and  C_23 
REMARK       I    between atoms: C_23  and  N_24 
ROOT
ATOM      1  C   UNL d   1      25.662 -16.305  -1.781  0.00  0.00     0.031 C 
ATOM      2  C   UNL d   1      25.786 -17.527  -1.117  0.00  0.00     0.032 C 
ATOM      3  C   UNL d   1      24.764 -18.114  -0.382  0.00  0.00     0.042 C 
ATOM      4  C   UNL d   1      23.502 -17.563  -0.424  0.00  0.00     0.107 C 
ATOM      5  C   UNL d   1      23.321 -16.379  -1.149  0.00  0.00     0.151 C 
ATOM      6  F   UNL d   1      22.109 -15.817  -1.268  0.00  0.00    -0.203 F 
ATOM      7  C   UNL d   1      24.389 -15.733  -1.784  0.00  0.00     0.074 C 
ENDROOT
BRANCH   1   8
ATOM      8  N   UNL d   1      26.756 -15.603  -2.292  0.00  0.00    -0.377 N 
ATOM      9  H   UNL d   1      27.520 -15.521  -1.620  0.00  0.00     0.160 HD
BRANCH   8  10
ATOM     10  C   UNL d   1      26.616 -14.408  -3.172  0.00  0.00     0.170 C 
ATOM     11  C   UNL d   1      27.050 -13.130  -2.442  0.00  0.00     0.042 C 
BRANCH  10  12
ATOM     12  C   UNL d   1      27.257 -14.647  -4.572  0.00  0.00     0.247 C 
ATOM     13  O   UNL d   1      26.688 -15.320  -5.439  0.00  0.00    -0.271 OA
ATOM     14  N   UNL d   1      28.448 -13.984  -4.833  0.00  0.00    -0.278 N 
ATOM     15  C   UNL d   1      29.200 -14.051  -5.983  0.00  0.00     0.320 C 
ATOM     16  H   UNL d   1      28.867 -13.381  -4.141  0.00  0.00     0.173 HD
ATOM     17  N   UNL d   1      28.722 -14.839  -6.972  0.00  0.00    -0.352 N 
ATOM     18  O   UNL d   1      30.249 -13.438  -6.100  0.00  0.00    -0.247 OA
ATOM     19  H   UNL d   1      27.837 -15.327  -6.851  0.00  0.00     0.160 HD
ATOM     20  H   UNL d   1      29.220 -14.932  -7.845  0.00  0.00     0.160 HD
ENDBRANCH  10  12
ENDBRANCH   8  10
ENDBRANCH   1   8
BRANCH   4  21
ATOM     21  O   UNL d   1      22.565 -18.304   0.240  0.00  0.00    -0.344 OA
BRANCH  21  22
ATOM     22  C   UNL d   1      21.453 -18.685  -0.552  0.00  0.00     0.214 C 
BRANCH  22  23
ATOM     23  C   UNL d   1      20.425 -19.366   0.304  0.00  0.00    -0.031 A 
ATOM     24  C   UNL d   1      20.556 -19.331   1.699  0.00  0.00     0.009 A 
ATOM     25  C   UNL d   1      19.690 -20.064   2.508  0.00  0.00     0.004 A 
ATOM     26  C   UNL d   1      18.678 -20.824   1.925  0.00  0.00     0.042 A 
ATOM     27  C   UNL d   1      18.521 -20.820   0.543  0.00  0.00     0.117 A 
ATOM     28  F   UNL d   1      17.544 -21.552  -0.010  0.00  0.00    -0.206 F 
ATOM     29  C   UNL d   1      19.376 -20.091  -0.274  0.00  0.00     0.051 A 
ENDBRANCH  22  23
ENDBRANCH  21  22
ENDBRANCH   4  21
TORSDOF 6
ENDMDL
MODEL 7
REMARK VINA RESULT:    -8.006      2.753      3.747
REMARK INTER + INTRA:         -11.145
REMARK INTER:                  -9.795
REMARK INTRA:                  -1.350
REMARK CONF_INDEPENDENT:        1.790
REMARK UNBOUND:                -1.350
REMARK  6 active torsions:
REMARK  status: ('A' for Active; 'I' for Inactive)
REMARK    1  A    between atoms: C_2  and  C_20 
REMARK    2  A    between atoms: C_2  and  N_3 
REMARK    3  A    between atoms: N_3  and  C_4 
REMARK    4  A    between atoms: C_7  and  O_8 
REMARK    5  A    between atoms: O_8  and  C_9 
REMARK    6  A    between atoms: C_9  and  C_10 
REMARK       I    between atoms: C_20  and  N_22 
REMARK       I    between atoms: N_22  and  C_23 
REMARK       I    between atoms: C_23  and  N_24 
ROOT
ATOM      1  C   UNL d   1      25.563 -16.919  -1.132  0.00  0.00     0.031 C 
ATOM      2  C   UNL d   1      24.586 -15.933  -1.285  0.00  0.00     0.032 C 
ATOM      3  C   UNL d   1      23.221 -16.181  -1.215  0.00  0.00     0.042 C 
ATOM      4  C   UNL d   1      22.782 -17.424  -0.818  0.00  0.00     0.107 C 
ATOM      5  C   UNL d   1      23.739 -18.419  -0.577  0.00  0.00     0.151 C 
ATOM      6  F   UNL d   1      23.380 -19.636  -0.143  0.00  0.00    -0.203 F 
ATOM      7  C   UNL d   1      25.106 -18.186  -0.770  0.00  0.00     0.074 C 
ENDROOT
BRANCH   1   8
ATOM      8  N   UNL d   1      26.906 -16.715  -1.459  0.00  0.00    -0.377 N 
ATOM      9  H   UNL d   1      27.254 -17.398  -2.134  0.00  0.00     0.160 HD
BRANCH   8  10
ATOM     10  C   UNL d   1      27.931 -16.298  -0.461  0.00  0.00     0.170 C 
ATOM     11  C   UNL d   1      27.404 -16.460   0.971  0.00  0.00     0.042 C 
BRANCH  10  12
ATOM     12  C   UNL d   1      29.318 -16.943  -0.756  0.00  0.00     0.247 C 
ATOM     13  O   UNL d   1      29.573 -17.456  -1.852  0.00  0.00    -0.271 OA
ATOM     14  N   UNL d   1      30.284 -16.825   0.233  0.00  0.00    -0.278 N 
ATOM     15  C   UNL d   1      31.565 -17.325   0.205  0.00  0.00     0.320 C 
ATOM     16  H   UNL d   1      30.083 -16.343   1.097  0.00  0.00     0.173 HD
ATOM     17  N   UNL d   1      31.929 -17.993  -0.913  0.00  0.00    -0.352 N 
ATOM     18  O   UNL d   1      32.331 -17.179   1.144  0.00  0.00    -0.247 OA
ATOM     19  H   UNL d   1      31.274 -18.085  -1.685  0.00  0.00     0.160 HD
ATOM     20  H   UNL d   1      32.855 -18.382  -1.003  0.00  0.00     0.160 HD
ENDBRANCH  10  12
ENDBRANCH   8  10
ENDBRANCH   1   8
BRANCH   4  21
ATOM     21  O   UNL d   1      21.425 -17.499  -0.671  0.00  0.00    -0.344 OA
BRANCH  21  22
ATOM     22  C   UNL d   1      20.843 -18.672  -1.213  0.00  0.00     0.214 C 
BRANCH  22  23
ATOM     23  C   UNL d   1      20.017 -19.362  -0.166  0.00  0.00    -0.031 A 
ATOM     24  C   UNL d   1      20.429 -19.326   1.174  0.00  0.00     0.009 A 
ATOM     25  C   UNL d   1      19.754 -20.067   2.140  0.00  0.00     0.004 A 
ATOM     26  C   UNL d   1      18.651 -20.836   1.775  0.00  0.00     0.042 A 
ATOM     27  C   UNL d   1      18.214 -20.834   0.455  0.00  0.00     0.117 A 
ATOM     28  F   UNL d   1      17.151 -21.574   0.111  0.00  0.00    -0.206 F 
ATOM     29  C   UNL d   1      18.878 -20.097  -0.518  0.00  0.00     0.051 A 
ENDBRANCH  22  23
ENDBRANCH  21  22
ENDBRANCH   4  21
TORSDOF 6
ENDMDL
MODEL 8
REMARK VINA RESULT:    -7.847      4.037      8.203
REMARK INTER + INTRA:         -10.795
REMARK INTER:                  -9.637
REMARK INTRA:                  -1.158
REMARK CONF_INDEPENDENT:        1.790
REMARK UNBOUND:                -1.158
REMARK  6 active torsions:
REMARK  status: ('A' for Active; 'I' for Inactive)
REMARK    1  A    between atoms: C_2  and  C_20 
REMARK    2  A    between atoms: C_2  and  N_3 
REMARK    3  A    between atoms: N_3  and  C_4 
REMARK    4  A    between atoms: C_7  and  O_8 
REMARK    5  A    between atoms: O_8  and  C_9 
REMARK    6  A    between atoms: C_9  and  C_10 
REMARK       I    between atoms: C_20  and  N_22 
REMARK       I    between atoms: N_22  and  C_23 
REMARK       I    between atoms: C_23  and  N_24 
ROOT
ATOM      1  C   UNL d   1      24.165 -17.602   0.097  0.00  0.00     0.031 C 
ATOM      2  C   UNL d   1      25.353 -18.136   0.599  0.00  0.00     0.032 C 
ATOM      3  C   UNL d   1      26.615 -17.661   0.265  0.00  0.00     0.042 C 
ATOM      4  C   UNL d   1      26.725 -16.504  -0.474  0.00  0.00     0.107 C 
ATOM      5  C   UNL d   1      25.549 -15.894  -0.929  0.00  0.00     0.151 C 
ATOM      6  F   UNL d   1      25.585 -14.741  -1.613  0.00  0.00    -0.203 F 
ATOM      7  C   UNL d   1      24.288 -16.453  -0.685  0.00  0.00     0.074 C 
ENDROOT
BRANCH   1   8
ATOM      8  N   UNL d   1      22.929 -18.241   0.229  0.00  0.00    -0.377 N 
ATOM      9  H   UNL d   1      22.926 -18.942   0.971  0.00  0.00     0.160 HD
BRANCH   8  10
ATOM     10  C   UNL d   1      22.079 -18.613  -0.937  0.00  0.00     0.170 C 
ATOM     11  C   UNL d   1      22.905 -19.324  -2.018  0.00  0.00     0.042 C 
BRANCH  10  12
ATOM     12  C   UNL d   1      20.773 -19.336  -0.489  0.00  0.00     0.247 C 
ATOM     13  O   UNL d   1      19.924 -19.705  -1.308  0.00  0.00    -0.271 OA
ATOM     14  N   UNL d   1      20.658 -19.636   0.862  0.00  0.00    -0.278 N 
ATOM     15  C   UNL d   1      19.599 -20.251   1.487  0.00  0.00     0.320 C 
ATOM     16  H   UNL d   1      21.392 -19.391   1.510  0.00  0.00     0.173 HD
ATOM     17  N   UNL d   1      18.562 -20.617   0.701  0.00  0.00    -0.352 N 
ATOM     18  O   UNL d   1      19.594 -20.451   2.691  0.00  0.00    -0.247 OA
ATOM     19  H   UNL d   1      18.602 -20.451  -0.302  0.00  0.00     0.160 HD
ATOM     20  H   UNL d   1      17.754 -21.076   1.092  0.00  0.00     0.160 HD
ENDBRANCH  10  12
ENDBRANCH   8  10
ENDBRANCH   1   8
BRANCH   4  21
ATOM     21  O   UNL d   1      28.015 -16.080  -0.628  0.00  0.00    -0.344 OA
BRANCH  21  22
ATOM     22  C   UNL d   1      28.688 -15.802   0.588  0.00  0.00     0.214 C 
BRANCH  22  23
ATOM     23  C   UNL d   1      28.031 -14.643   1.281  0.00  0.00    -0.031 A 
ATOM     24  C   UNL d   1      27.609 -13.537   0.529  0.00  0.00     0.009 A 
ATOM     25  C   UNL d   1      27.119 -12.398   1.163  0.00  0.00     0.004 A 
ATOM     26  C   UNL d   1      27.033 -12.365   2.554  0.00  0.00     0.042 A 
ATOM     27  C   UNL d   1      27.408 -13.479   3.296  0.00  0.00     0.117 A 
ATOM     28  F   UNL d   1      27.320 -13.441   4.632  0.00  0.00    -0.206 F 
ATOM     29  C   UNL d   1      27.896 -14.623   2.675  0.00  0.00     0.051 A 
ENDBRANCH  22  23
ENDBRANCH  21  22
ENDBRANCH   4  21
TORSDOF 6
ENDMDL
MODEL 9
REMARK VINA RESULT:    -7.749      3.900      8.827
REMARK INTER + INTRA:         -10.549
REMARK INTER:                  -9.539
REMARK INTRA:                  -1.011
REMARK CONF_INDEPENDENT:        1.790
REMARK UNBOUND:                -1.011
REMARK  6 active torsions:
REMARK  status: ('A' for Active; 'I' for Inactive)
REMARK    1  A    between atoms: C_2  and  C_20 
REMARK    2  A    between atoms: C_2  and  N_3 
REMARK    3  A    between atoms: N_3  and  C_4 
REMARK    4  A    between atoms: C_7  and  O_8 
REMARK    5  A    between atoms: O_8  and  C_9 
REMARK    6  A    between atoms: C_9  and  C_10 
REMARK       I    between atoms: C_20  and  N_22 
REMARK       I    between atoms: N_22  and  C_23 
REMARK       I    between atoms: C_23  and  N_24 
ROOT
ATOM      1  C   UNL d   1      24.191 -17.645   0.114  0.00  0.00     0.031 C 
ATOM      2  C   UNL d   1      25.375 -18.200   0.603  0.00  0.00     0.032 C 
ATOM      3  C   UNL d   1      26.641 -17.735   0.270  0.00  0.00     0.042 C 
ATOM      4  C   UNL d   1      26.762 -16.569  -0.453  0.00  0.00     0.107 C 
ATOM      5  C   UNL d   1      25.591 -15.939  -0.893  0.00  0.00     0.151 C 
ATOM      6  F   UNL d   1      25.638 -14.776  -1.560  0.00  0.00    -0.203 F 
ATOM      7  C   UNL d   1      24.325 -16.487  -0.651  0.00  0.00     0.074 C 
ENDROOT
BRANCH   1   8
ATOM      8  N   UNL d   1      22.948 -18.271   0.242  0.00  0.00    -0.377 N 
ATOM      9  H   UNL d   1      22.939 -18.981   0.976  0.00  0.00     0.160 HD
BRANCH   8  10
ATOM     10  C   UNL d   1      22.090 -18.618  -0.925  0.00  0.00     0.170 C 
ATOM     11  C   UNL d   1      22.905 -19.321  -2.020  0.00  0.00     0.042 C 
BRANCH  10  12
ATOM     12  C   UNL d   1      20.780 -19.336  -0.482  0.00  0.00     0.247 C 
ATOM     13  O   UNL d   1      19.931 -19.700  -1.305  0.00  0.00    -0.271 OA
ATOM     14  N   UNL d   1      20.659 -19.638   0.868  0.00  0.00    -0.278 N 
ATOM     15  C   UNL d   1      19.596 -20.249   1.489  0.00  0.00     0.320 C 
ATOM     16  H   UNL d   1      21.392 -19.396   1.518  0.00  0.00     0.173 HD
ATOM     17  N   UNL d   1      18.559 -20.609   0.699  0.00  0.00    -0.352 N 
ATOM     18  O   UNL d   1      19.586 -20.450   2.693  0.00  0.00    -0.247 OA
ATOM     19  H   UNL d   1      18.603 -20.442  -0.304  0.00  0.00     0.160 HD
ATOM     20  H   UNL d   1      17.748 -21.066   1.088  0.00  0.00     0.160 HD
ENDBRANCH  10  12
ENDBRANCH   8  10
ENDBRANCH   1   8
BRANCH   4  21
ATOM     21  O   UNL d   1      28.056 -16.158  -0.606  0.00  0.00    -0.344 OA
BRANCH  21  22
ATOM     22  C   UNL d   1      28.852 -17.017  -1.404  0.00  0.00     0.214 C 
BRANCH  22  23
ATOM     23  C   UNL d   1      28.967 -16.462  -2.794  0.00  0.00    -0.031 A 
ATOM     24  C   UNL d   1      28.085 -15.454  -3.211  0.00  0.00     0.009 A 
ATOM     25  C   UNL d   1      28.087 -15.018  -4.533  0.00  0.00     0.004 A 
ATOM     26  C   UNL d   1      28.982 -15.575  -5.444  0.00  0.00     0.042 A 
ATOM     27  C   UNL d   1      29.888 -16.540  -5.018  0.00  0.00     0.117 A 
ATOM     28  F   UNL d   1      30.748 -17.071  -5.899  0.00  0.00    -0.206 F 
ATOM     29  C   UNL d   1      29.898 -16.983  -3.701  0.00  0.00     0.051 A 
ENDBRANCH  22  23
ENDBRANCH  21  22
ENDBRANCH   4  21
TORSDOF 6
ENDMDL
