MODEL 1
REMARK VINA RESULT:    -9.218      0.000      0.000
REMARK INTER + INTRA:         -12.277
REMARK INTER:                 -10.710
REMARK INTRA:                  -1.567
REMARK CONF_INDEPENDENT:        1.492
REMARK UNBOUND:                -1.567
REMARK  5 active torsions:
REMARK  status: ('A' for Active; 'I' for Inactive)
REMARK    1  A    between atoms: C_3  and  C_2 
REMARK    2  A    between atoms: C_3  and  C_18 
REMARK    3  A    between atoms: C_3  and  N_4 
REMARK       I    between atoms: N_4  and  C_5 
REMARK    4  A    between atoms: C_5  and  C_7 
REMARK    5  A    between atoms: C_12  and  N_13 
REMARK       I    between atoms: N_13  and  C_14 
ROOT
ATOM      1  N   UNL d   1      26.223 -17.062  -1.442  0.00  0.00    -0.345 N 
ATOM      2  C   UNL d   1      25.867 -15.693  -1.365  0.00  0.00     0.252 C 
ATOM      3  O   UNL d   1      25.335 -15.205  -0.353  0.00  0.00    -0.268 OA
ATOM      4  H   UNL d   1      26.709 -17.434  -2.242  0.00  0.00     0.163 HD
ENDROOT
BRANCH   1   5
ATOM      5  C   UNL d   1      25.689 -18.154  -0.557  0.00  0.00     0.154 C 
BRANCH   5   6
ATOM      6  C   UNL d   1      24.147 -18.156  -0.598  0.00  0.00     0.127 A 
ATOM      7  N   UNL d   1      23.339 -19.103  -0.146  0.00  0.00    -0.231 NA
ATOM      8  C   UNL d   1      22.054 -18.638  -0.332  0.00  0.00     0.084 A 
ATOM      9  C   UNL d   1      20.847 -19.329   0.058  0.00  0.00    -0.006 A 
ATOM     10  C   UNL d   1      22.063 -17.381  -0.885  0.00  0.00     0.122 A 
ATOM     11  C   UNL d   1      19.838 -19.580  -0.881  0.00  0.00     0.014 A 
ATOM     12  C   UNL d   1      20.647 -19.679   1.397  0.00  0.00     0.014 A 
ATOM     13  C   UNL d   1      18.621 -20.127  -0.474  0.00  0.00     0.001 A 
ATOM     14  C   UNL d   1      18.432 -20.487   0.860  0.00  0.00     0.000 A 
ATOM     15  C   UNL d   1      19.443 -20.264   1.794  0.00  0.00     0.001 A 
ATOM     16  N   UNL d   1      23.384 -17.094  -1.065  0.00  0.00    -0.350 N 
ATOM     17  H   UNL d   1      23.726 -16.216  -1.429  0.00  0.00     0.166 HD
ENDBRANCH   5   6
BRANCH   5  18
ATOM     18  C   UNL d   1      26.169 -18.021   0.921  0.00  0.00     0.028 C 
ATOM     19  C   UNL d   1      27.369 -17.093   0.983  0.00  0.00     0.007 C 
ENDBRANCH   5  18
ENDBRANCH   1   5
BRANCH   2  20
ATOM     20  C   UNL d   1      26.002 -14.784  -2.582  0.00  0.00     0.034 C 
ATOM     21  C   UNL d   1      25.397 -13.543  -2.740  0.00  0.00     0.017 C 
ATOM     22  C   UNL d   1      25.706 -12.747  -3.867  0.00  0.00     0.010 C 
ATOM     23  C   UNL d   1      26.626 -13.179  -4.858  0.00  0.00    -0.035 C 
ATOM     24  C   UNL d   1      26.972 -12.243  -5.987  0.00  0.00     0.050 C 
ATOM     25  C   UNL d   1      27.161 -14.470  -4.747  0.00  0.00     0.041 C 
ATOM     26  C   UNL d   1      26.751 -15.222  -3.655  0.00  0.00     0.047 C 
BRANCH  25  27
ATOM     27  N   UNL d   1      28.087 -15.000  -5.680  0.00  0.00    -0.327 N 
ATOM     28  C   UNL d   1      29.224 -15.757  -5.558  0.00  0.00     0.218 C 
ATOM     29  C   UNL d   1      29.802 -16.319  -4.275  0.00  0.00     0.117 C 
ATOM     30  O   UNL d   1      29.833 -16.020  -6.606  0.00  0.00    -0.274 OA
ATOM     31  H   UNL d   1      27.945 -14.742  -6.652  0.00  0.00     0.169 HD
ENDBRANCH  25  27
ENDBRANCH   2  20
TORSDOF 5
ENDMDL
MODEL 2
REMARK VINA RESULT:    -8.849      1.957      3.015
REMARK INTER + INTRA:         -11.776
REMARK INTER:                 -10.340
REMARK INTRA:                  -1.436
REMARK CONF_INDEPENDENT:        1.492
REMARK UNBOUND:                -1.436
REMARK  5 active torsions:
REMARK  status: ('A' for Active; 'I' for Inactive)
REMARK    1  A    between atoms: C_3  and  C_2 
REMARK    2  A    between atoms: C_3  and  C_18 
REMARK    3  A    between atoms: C_3  and  N_4 
REMARK       I    between atoms: N_4  and  C_5 
REMARK    4  A    between atoms: C_5  and  C_7 
REMARK    5  A    between atoms: C_12  and  N_13 
REMARK       I    between atoms: N_13  and  C_14 
ROOT
ATOM      1  N   UNL d   1      26.576 -16.734  -1.507  0.00  0.00    -0.345 N 
ATOM      2  C   UNL d   1      26.174 -15.376  -1.478  0.00  0.00     0.252 C 
ATOM      3  O   UNL d   1      25.580 -14.885  -0.503  0.00  0.00    -0.268 OA
ATOM      4  H   UNL d   1      27.112 -17.106  -2.275  0.00  0.00     0.163 HD
ENDROOT
BRANCH   1   5
ATOM      5  C   UNL d   1      26.035 -17.824  -0.625  0.00  0.00     0.154 C 
BRANCH   5   6
ATOM      6  C   UNL d   1      24.493 -17.803  -0.651  0.00  0.00     0.127 A 
ATOM      7  N   UNL d   1      23.675 -18.749  -0.214  0.00  0.00    -0.231 NA
ATOM      8  C   UNL d   1      22.396 -18.261  -0.375  0.00  0.00     0.084 A 
ATOM      9  C   UNL d   1      21.182 -18.944   0.010  0.00  0.00    -0.006 A 
ATOM     10  C   UNL d   1      22.418 -16.991  -0.896  0.00  0.00     0.122 A 
ATOM     11  C   UNL d   1      20.161 -19.156  -0.925  0.00  0.00     0.014 A 
ATOM     12  C   UNL d   1      20.991 -19.325   1.341  0.00  0.00     0.014 A 
ATOM     13  C   UNL d   1      18.940 -19.696  -0.520  0.00  0.00     0.001 A 
ATOM     14  C   UNL d   1      18.759 -20.087   0.806  0.00  0.00     0.000 A 
ATOM     15  C   UNL d   1      19.782 -19.902   1.736  0.00  0.00     0.001 A 
ATOM     16  N   UNL d   1      23.741 -16.718  -1.082  0.00  0.00    -0.350 N 
ATOM     17  H   UNL d   1      24.092 -15.837  -1.427  0.00  0.00     0.166 HD
ENDBRANCH   5   6
BRANCH   5  18
ATOM     18  C   UNL d   1      26.532 -17.709   0.849  0.00  0.00     0.028 C 
ATOM     19  C   UNL d   1      27.567 -16.604   0.950  0.00  0.00     0.007 C 
ENDBRANCH   5  18
ENDBRANCH   1   5
BRANCH   2  20
ATOM     20  C   UNL d   1      26.340 -14.489  -2.706  0.00  0.00     0.034 C 
ATOM     21  C   UNL d   1      26.829 -14.896  -3.942  0.00  0.00     0.017 C 
ATOM     22  C   UNL d   1      26.815 -13.999  -5.036  0.00  0.00     0.010 C 
ATOM     23  C   UNL d   1      26.312 -12.678  -4.913  0.00  0.00    -0.035 C 
ATOM     24  C   UNL d   1      26.248 -11.807  -6.141  0.00  0.00     0.050 C 
ATOM     25  C   UNL d   1      25.909 -12.238  -3.644  0.00  0.00     0.041 C 
ATOM     26  C   UNL d   1      26.025 -13.149  -2.604  0.00  0.00     0.047 C 
BRANCH  25  27
ATOM     27  N   UNL d   1      25.392 -10.940  -3.411  0.00  0.00    -0.327 N 
ATOM     28  C   UNL d   1      25.919  -9.795  -2.869  0.00  0.00     0.218 C 
ATOM     29  C   UNL d   1      27.342  -9.596  -2.388  0.00  0.00     0.117 C 
ATOM     30  O   UNL d   1      25.157  -8.821  -2.777  0.00  0.00    -0.274 OA
ATOM     31  H   UNL d   1      24.409 -10.800  -3.627  0.00  0.00     0.169 HD
ENDBRANCH  25  27
ENDBRANCH   2  20
TORSDOF 5
ENDMDL
MODEL 3
REMARK VINA RESULT:    -8.724      2.403      3.293
REMARK INTER + INTRA:         -11.766
REMARK INTER:                 -10.216
REMARK INTRA:                  -1.551
REMARK CONF_INDEPENDENT:        1.492
REMARK UNBOUND:                -1.551
REMARK  5 active torsions:
REMARK  status: ('A' for Active; 'I' for Inactive)
REMARK    1  A    between atoms: C_3  and  C_2 
REMARK    2  A    between atoms: C_3  and  C_18 
REMARK    3  A    between atoms: C_3  and  N_4 
REMARK       I    between atoms: N_4  and  C_5 
REMARK    4  A    between atoms: C_5  and  C_7 
REMARK    5  A    between atoms: C_12  and  N_13 
REMARK       I    between atoms: N_13  and  C_14 
ROOT
ATOM      1  N   UNL d   1      25.604 -16.099  -0.785  0.00  0.00    -0.345 N 
ATOM      2  C   UNL d   1      25.463 -15.326  -1.965  0.00  0.00     0.252 C 
ATOM      3  O   UNL d   1      24.763 -15.704  -2.921  0.00  0.00    -0.268 OA
ATOM      4  H   UNL d   1      26.122 -15.756   0.007  0.00  0.00     0.163 HD
ENDROOT
BRANCH   1   5
ATOM      5  C   UNL d   1      25.300 -17.566  -0.661  0.00  0.00     0.154 C 
BRANCH   5   6
ATOM      6  C   UNL d   1      23.773 -17.785  -0.630  0.00  0.00     0.127 A 
ATOM      7  N   UNL d   1      23.122 -18.781  -0.049  0.00  0.00    -0.231 NA
ATOM      8  C   UNL d   1      21.779 -18.519  -0.220  0.00  0.00     0.084 A 
ATOM      9  C   UNL d   1      20.695 -19.325   0.293  0.00  0.00    -0.006 A 
ATOM     10  C   UNL d   1      21.592 -17.338  -0.895  0.00  0.00     0.122 A 
ATOM     11  C   UNL d   1      19.702 -19.809  -0.568  0.00  0.00     0.014 A 
ATOM     12  C   UNL d   1      20.590 -19.556   1.668  0.00  0.00     0.014 A 
ATOM     13  C   UNL d   1      18.588 -20.473  -0.052  0.00  0.00     0.001 A 
ATOM     14  C   UNL d   1      18.496 -20.713   1.318  0.00  0.00     0.000 A 
ATOM     15  C   UNL d   1      19.495 -20.256   2.178  0.00  0.00     0.001 A 
ATOM     16  N   UNL d   1      22.853 -16.893  -1.164  0.00  0.00    -0.350 N 
ATOM     17  H   UNL d   1      23.055 -16.020  -1.629  0.00  0.00     0.166 HD
ENDBRANCH   5   6
BRANCH   5  18
ATOM     18  C   UNL d   1      25.943 -18.210   0.605  0.00  0.00     0.028 C 
ATOM     19  C   UNL d   1      27.414 -18.481   0.344  0.00  0.00     0.007 C 
ENDBRANCH   5  18
ENDBRANCH   1   5
BRANCH   2  20
ATOM     20  C   UNL d   1      26.276 -14.052  -2.162  0.00  0.00     0.034 C 
ATOM     21  C   UNL d   1      27.572 -13.838  -1.710  0.00  0.00     0.017 C 
ATOM     22  C   UNL d   1      28.258 -12.654  -2.069  0.00  0.00     0.010 C 
ATOM     23  C   UNL d   1      27.657 -11.662  -2.886  0.00  0.00    -0.035 C 
ATOM     24  C   UNL d   1      28.477 -10.467  -3.300  0.00  0.00     0.050 C 
ATOM     25  C   UNL d   1      26.317 -11.835  -3.262  0.00  0.00     0.041 C 
ATOM     26  C   UNL d   1      25.687 -12.984  -2.806  0.00  0.00     0.047 C 
BRANCH  25  27
ATOM     27  N   UNL d   1      25.623 -10.906  -4.076  0.00  0.00    -0.327 N 
ATOM     28  C   UNL d   1      25.367  -9.562  -3.970  0.00  0.00     0.218 C 
ATOM     29  C   UNL d   1      25.856  -8.633  -2.878  0.00  0.00     0.117 C 
ATOM     30  O   UNL d   1      24.676  -9.055  -4.867  0.00  0.00    -0.274 OA
ATOM     31  H   UNL d   1      25.155 -11.284  -4.894  0.00  0.00     0.169 HD
ENDBRANCH  25  27
ENDBRANCH   2  20
TORSDOF 5
ENDMDL
MODEL 4
REMARK VINA RESULT:    -8.635      1.693      3.393
REMARK INTER + INTRA:         -11.066
REMARK INTER:                 -10.126
REMARK INTRA:                  -0.940
REMARK CONF_INDEPENDENT:        1.492
REMARK UNBOUND:                -0.940
REMARK  5 active torsions:
REMARK  status: ('A' for Active; 'I' for Inactive)
REMARK    1  A    between atoms: C_3  and  C_2 
REMARK    2  A    between atoms: C_3  and  C_18 
REMARK    3  A    between atoms: C_3  and  N_4 
REMARK       I    between atoms: N_4  and  C_5 
REMARK    4  A    between atoms: C_5  and  C_7 
REMARK    5  A    between atoms: C_12  and  N_13 
REMARK       I    between atoms: N_13  and  C_14 
ROOT
ATOM      1  N   UNL d   1      26.401 -16.244  -2.146  0.00  0.00    -0.345 N 
ATOM      2  C   UNL d   1      27.560 -15.475  -2.419  0.00  0.00     0.252 C 
ATOM      3  O   UNL d   1      27.785 -14.395  -1.845  0.00  0.00    -0.268 OA
ATOM      4  H   UNL d   1      26.259 -17.146  -2.570  0.00  0.00     0.163 HD
ENDROOT
BRANCH   1   5
ATOM      5  C   UNL d   1      25.151 -15.733  -1.487  0.00  0.00     0.154 C 
BRANCH   5   6
ATOM      6  C   UNL d   1      24.331 -16.916  -0.930  0.00  0.00     0.127 A 
ATOM      7  N   UNL d   1      23.011 -17.016  -0.877  0.00  0.00    -0.231 NA
ATOM      8  C   UNL d   1      22.737 -18.269  -0.372  0.00  0.00     0.084 A 
ATOM      9  C   UNL d   1      21.418 -18.827  -0.181  0.00  0.00    -0.006 A 
ATOM     10  C   UNL d   1      23.897 -18.963  -0.129  0.00  0.00     0.122 A 
ATOM     11  C   UNL d   1      21.030 -19.317   1.073  0.00  0.00     0.014 A 
ATOM     12  C   UNL d   1      20.552 -18.953  -1.270  0.00  0.00     0.014 A 
ATOM     13  C   UNL d   1      19.809 -19.974   1.223  0.00  0.00     0.001 A 
ATOM     14  C   UNL d   1      18.942 -20.084   0.136  0.00  0.00     0.000 A 
ATOM     15  C   UNL d   1      19.312 -19.575  -1.109  0.00  0.00     0.001 A 
ATOM     16  N   UNL d   1      24.894 -18.097  -0.467  0.00  0.00    -0.350 N 
ATOM     17  H   UNL d   1      25.877 -18.326  -0.431  0.00  0.00     0.166 HD
ENDBRANCH   5   6
BRANCH   5  18
ATOM     18  C   UNL d   1      24.260 -14.892  -2.453  0.00  0.00     0.028 C 
ATOM     19  C   UNL d   1      25.080 -13.755  -3.036  0.00  0.00     0.007 C 
ENDBRANCH   5  18
ENDBRANCH   1   5
BRANCH   2  20
ATOM     20  C   UNL d   1      28.520 -15.881  -3.531  0.00  0.00     0.034 C 
ATOM     21  C   UNL d   1      29.426 -16.933  -3.478  0.00  0.00     0.017 C 
ATOM     22  C   UNL d   1      30.172 -17.280  -4.629  0.00  0.00     0.010 C 
ATOM     23  C   UNL d   1      30.025 -16.579  -5.854  0.00  0.00    -0.035 C 
ATOM     24  C   UNL d   1      30.788 -17.058  -7.062  0.00  0.00     0.050 C 
ATOM     25  C   UNL d   1      29.183 -15.458  -5.879  0.00  0.00     0.041 C 
ATOM     26  C   UNL d   1      28.545 -15.133  -4.690  0.00  0.00     0.047 C 
BRANCH  25  27
ATOM     27  N   UNL d   1      28.966 -14.688  -7.048  0.00  0.00    -0.327 N 
ATOM     28  C   UNL d   1      28.714 -13.358  -7.271  0.00  0.00     0.218 C 
ATOM     29  C   UNL d   1      28.653 -12.262  -6.226  0.00  0.00     0.117 C 
ATOM     30  O   UNL d   1      28.531 -13.016  -8.449  0.00  0.00    -0.274 OA
ATOM     31  H   UNL d   1      28.927 -15.199  -7.925  0.00  0.00     0.169 HD
ENDBRANCH  25  27
ENDBRANCH   2  20
TORSDOF 5
ENDMDL
MODEL 5
REMARK VINA RESULT:    -8.624      3.196      5.215
REMARK INTER + INTRA:         -11.146
REMARK INTER:                 -10.116
REMARK INTRA:                  -1.031
REMARK CONF_INDEPENDENT:        1.492
REMARK UNBOUND:                -1.031
REMARK  5 active torsions:
REMARK  status: ('A' for Active; 'I' for Inactive)
REMARK    1  A    between atoms: C_3  and  C_2 
REMARK    2  A    between atoms: C_3  and  C_18 
REMARK    3  A    between atoms: C_3  and  N_4 
REMARK       I    between atoms: N_4  and  C_5 
REMARK    4  A    between atoms: C_5  and  C_7 
REMARK    5  A    between atoms: C_12  and  N_13 
REMARK       I    between atoms: N_13  and  C_14 
ROOT
ATOM      1  N   UNL d   1      25.806 -16.125  -0.278  0.00  0.00    -0.345 N 
ATOM      2  C   UNL d   1      26.886 -15.328  -0.731  0.00  0.00     0.252 C 
ATOM      3  O   UNL d   1      27.393 -15.482  -1.856  0.00  0.00    -0.268 OA
ATOM      4  H   UNL d   1      25.362 -15.951   0.609  0.00  0.00     0.163 HD
ENDROOT
BRANCH   1   5
ATOM      5  C   UNL d   1      25.397 -17.451  -0.856  0.00  0.00     0.154 C 
BRANCH   5   6
ATOM      6  C   UNL d   1      23.862 -17.595  -0.804  0.00  0.00     0.127 A 
ATOM      7  N   UNL d   1      23.174 -18.647  -0.389  0.00  0.00    -0.231 NA
ATOM      8  C   UNL d   1      21.843 -18.292  -0.455  0.00  0.00     0.084 A 
ATOM      9  C   UNL d   1      20.731 -19.123  -0.055  0.00  0.00    -0.006 A 
ATOM     10  C   UNL d   1      21.703 -16.999  -0.895  0.00  0.00     0.122 A 
ATOM     11  C   UNL d   1      19.687 -19.390  -0.949  0.00  0.00     0.014 A 
ATOM     12  C   UNL d   1      20.655 -19.598   1.257  0.00  0.00     0.014 A 
ATOM     13  C   UNL d   1      18.553 -20.080  -0.520  0.00  0.00     0.001 A 
ATOM     14  C   UNL d   1      18.489 -20.565   0.786  0.00  0.00     0.000 A 
ATOM     15  C   UNL d   1      19.538 -20.325   1.674  0.00  0.00     0.001 A 
ATOM     16  N   UNL d   1      22.978 -16.575  -1.128  0.00  0.00    -0.350 N 
ATOM     17  H   UNL d   1      23.215 -15.642  -1.434  0.00  0.00     0.166 HD
ENDBRANCH   5   6
BRANCH   5  18
ATOM     18  C   UNL d   1      26.058 -18.659  -0.122  0.00  0.00     0.028 C 
ATOM     19  C   UNL d   1      26.978 -18.146   0.970  0.00  0.00     0.007 C 
ENDBRANCH   5  18
ENDBRANCH   1   5
BRANCH   2  20
ATOM     20  C   UNL d   1      27.560 -14.328   0.201  0.00  0.00     0.034 C 
ATOM     21  C   UNL d   1      27.722 -12.970  -0.045  0.00  0.00     0.017 C 
ATOM     22  C   UNL d   1      28.256 -12.129   0.960  0.00  0.00     0.010 C 
ATOM     23  C   UNL d   1      28.639 -12.634   2.229  0.00  0.00    -0.035 C 
ATOM     24  C   UNL d   1      29.120 -11.667   3.281  0.00  0.00     0.050 C 
ATOM     25  C   UNL d   1      28.565 -14.018   2.442  0.00  0.00     0.041 C 
ATOM     26  C   UNL d   1      28.105 -14.786   1.383  0.00  0.00     0.047 C 
BRANCH  25  27
ATOM     27  N   UNL d   1      28.923 -14.625   3.671  0.00  0.00    -0.327 N 
ATOM     28  C   UNL d   1      28.502 -14.458   4.967  0.00  0.00     0.218 C 
ATOM     29  C   UNL d   1      27.404 -13.531   5.447  0.00  0.00     0.117 C 
ATOM     30  O   UNL d   1      29.069 -15.145   5.829  0.00  0.00    -0.274 OA
ATOM     31  H   UNL d   1      29.687 -15.294   3.639  0.00  0.00     0.169 HD
ENDBRANCH  25  27
ENDBRANCH   2  20
TORSDOF 5
ENDMDL
MODEL 6
REMARK VINA RESULT:    -8.623      3.453      5.777
REMARK INTER + INTRA:         -11.526
REMARK INTER:                 -10.115
REMARK INTRA:                  -1.411
REMARK CONF_INDEPENDENT:        1.492
REMARK UNBOUND:                -1.411
REMARK  5 active torsions:
REMARK  status: ('A' for Active; 'I' for Inactive)
REMARK    1  A    between atoms: C_3  and  C_2 
REMARK    2  A    between atoms: C_3  and  C_18 
REMARK    3  A    between atoms: C_3  and  N_4 
REMARK       I    between atoms: N_4  and  C_5 
REMARK    4  A    between atoms: C_5  and  C_7 
REMARK    5  A    between atoms: C_12  and  N_13 
REMARK       I    between atoms: N_13  and  C_14 
ROOT
ATOM      1  N   UNL d   1      25.743 -14.518  -1.308  0.00  0.00    -0.345 N 
ATOM      2  C   UNL d   1      26.626 -14.993  -0.306  0.00  0.00     0.252 C 
ATOM      3  O   UNL d   1      27.081 -16.149  -0.322  0.00  0.00    -0.268 OA
ATOM      4  H   UNL d   1      25.430 -13.561  -1.320  0.00  0.00     0.163 HD
ENDROOT
BRANCH   1   5
ATOM      5  C   UNL d   1      24.946 -15.378  -2.247  0.00  0.00     0.154 C 
BRANCH   5   6
ATOM      6  C   UNL d   1      24.296 -16.542  -1.470  0.00  0.00     0.127 A 
ATOM      7  N   UNL d   1      23.002 -16.768  -1.307  0.00  0.00    -0.231 NA
ATOM      8  C   UNL d   1      22.899 -17.953  -0.610  0.00  0.00     0.084 A 
ATOM      9  C   UNL d   1      21.664 -18.609  -0.247  0.00  0.00    -0.006 A 
ATOM     10  C   UNL d   1      24.141 -18.481  -0.356  0.00  0.00     0.122 A 
ATOM     11  C   UNL d   1      21.405 -18.943   1.089  0.00  0.00     0.014 A 
ATOM     12  C   UNL d   1      20.757 -18.985  -1.241  0.00  0.00     0.014 A 
ATOM     13  C   UNL d   1      20.275 -19.693   1.419  0.00  0.00     0.001 A 
ATOM     14  C   UNL d   1      19.367 -20.053   0.424  0.00  0.00     0.000 A 
ATOM     15  C   UNL d   1      19.606 -19.700  -0.904  0.00  0.00     0.001 A 
ATOM     16  N   UNL d   1      25.014 -17.577  -0.885  0.00  0.00    -0.350 N 
ATOM     17  H   UNL d   1      26.017 -17.696  -0.888  0.00  0.00     0.166 HD
ENDBRANCH   5   6
BRANCH   5  18
ATOM     18  C   UNL d   1      25.804 -15.949  -3.418  0.00  0.00     0.028 C 
ATOM     19  C   UNL d   1      26.273 -14.810  -4.305  0.00  0.00     0.007 C 
ENDBRANCH   5  18
ENDBRANCH   1   5
BRANCH   2  20
ATOM     20  C   UNL d   1      26.951 -14.137   0.913  0.00  0.00     0.034 C 
ATOM     21  C   UNL d   1      26.471 -12.856   1.157  0.00  0.00     0.017 C 
ATOM     22  C   UNL d   1      26.753 -12.221   2.390  0.00  0.00     0.010 C 
ATOM     23  C   UNL d   1      27.521 -12.856   3.400  0.00  0.00    -0.035 C 
ATOM     24  C   UNL d   1      27.708 -12.155   4.720  0.00  0.00     0.050 C 
ATOM     25  C   UNL d   1      28.084 -14.109   3.114  0.00  0.00     0.041 C 
ATOM     26  C   UNL d   1      27.828 -14.633   1.856  0.00  0.00     0.047 C 
BRANCH  25  27
ATOM     27  N   UNL d   1      28.866 -14.829   4.051  0.00  0.00    -0.327 N 
ATOM     28  C   UNL d   1      29.915 -14.490   4.866  0.00  0.00     0.218 C 
ATOM     29  C   UNL d   1      30.526 -13.112   5.027  0.00  0.00     0.117 C 
ATOM     30  O   UNL d   1      30.405 -15.400   5.551  0.00  0.00    -0.274 OA
ATOM     31  H   UNL d   1      28.677 -15.824   4.125  0.00  0.00     0.169 HD
ENDBRANCH  25  27
ENDBRANCH   2  20
TORSDOF 5
ENDMDL
MODEL 7
REMARK VINA RESULT:    -8.614      5.626      8.764
REMARK INTER + INTRA:         -11.193
REMARK INTER:                 -10.105
REMARK INTRA:                  -1.088
REMARK CONF_INDEPENDENT:        1.492
REMARK UNBOUND:                -1.088
REMARK  5 active torsions:
REMARK  status: ('A' for Active; 'I' for Inactive)
REMARK    1  A    between atoms: C_3  and  C_2 
REMARK    2  A    between atoms: C_3  and  C_18 
REMARK    3  A    between atoms: C_3  and  N_4 
REMARK       I    between atoms: N_4  and  C_5 
REMARK    4  A    between atoms: C_5  and  C_7 
REMARK    5  A    between atoms: C_12  and  N_13 
REMARK       I    between atoms: N_13  and  C_14 
ROOT
ATOM      1  N   UNL d   1      29.680 -14.825   1.733  0.00  0.00    -0.345 N 
ATOM      2  C   UNL d   1      28.543 -14.381   1.013  0.00  0.00     0.252 C 
ATOM      3  O   UNL d   1      28.234 -13.179   0.945  0.00  0.00    -0.268 OA
ATOM      4  H   UNL d   1      29.957 -15.794   1.730  0.00  0.00     0.163 HD
ENDROOT
BRANCH   1   5
ATOM      5  C   UNL d   1      30.405 -14.041   2.790  0.00  0.00     0.154 C 
BRANCH   5   6
ATOM      6  C   UNL d   1      29.701 -14.219   4.151  0.00  0.00     0.127 A 
ATOM      7  N   UNL d   1      29.971 -13.579   5.278  0.00  0.00    -0.231 NA
ATOM      8  C   UNL d   1      29.045 -14.011   6.203  0.00  0.00     0.084 A 
ATOM      9  C   UNL d   1      28.935 -13.542   7.565  0.00  0.00    -0.006 A 
ATOM     10  C   UNL d   1      28.176 -14.914   5.640  0.00  0.00     0.122 A 
ATOM     11  C   UNL d   1      28.962 -14.450   8.632  0.00  0.00     0.014 A 
ATOM     12  C   UNL d   1      28.721 -12.185   7.818  0.00  0.00     0.014 A 
ATOM     13  C   UNL d   1      28.724 -14.010   9.934  0.00  0.00     0.001 A 
ATOM     14  C   UNL d   1      28.525 -12.652  10.183  0.00  0.00     0.000 A 
ATOM     15  C   UNL d   1      28.523 -11.740   9.127  0.00  0.00     0.001 A 
ATOM     16  N   UNL d   1      28.608 -15.051   4.354  0.00  0.00    -0.350 N 
ATOM     17  H   UNL d   1      28.151 -15.629   3.664  0.00  0.00     0.166 HD
ENDBRANCH   5   6
BRANCH   5  18
ATOM     18  C   UNL d   1      30.505 -12.521   2.452  0.00  0.00     0.028 C 
ATOM     19  C   UNL d   1      31.620 -11.893   3.267  0.00  0.00     0.007 C 
ENDBRANCH   5  18
ENDBRANCH   1   5
BRANCH   2  20
ATOM     20  C   UNL d   1      27.572 -15.382   0.396  0.00  0.00     0.034 C 
ATOM     21  C   UNL d   1      27.360 -16.683   0.836  0.00  0.00     0.017 C 
ATOM     22  C   UNL d   1      26.338 -17.467   0.250  0.00  0.00     0.010 C 
ATOM     23  C   UNL d   1      25.511 -16.963  -0.787  0.00  0.00    -0.035 C 
ATOM     24  C   UNL d   1      24.387 -17.823  -1.304  0.00  0.00     0.050 C 
ATOM     25  C   UNL d   1      25.789 -15.686  -1.294  0.00  0.00     0.041 C 
ATOM     26  C   UNL d   1      26.856 -15.008  -0.722  0.00  0.00     0.047 C 
BRANCH  25  27
ATOM     27  N   UNL d   1      25.026 -15.088  -2.328  0.00  0.00    -0.327 N 
ATOM     28  C   UNL d   1      25.327 -14.648  -3.592  0.00  0.00     0.218 C 
ATOM     29  C   UNL d   1      26.669 -14.749  -4.288  0.00  0.00     0.117 C 
ATOM     30  O   UNL d   1      24.403 -14.126  -4.234  0.00  0.00    -0.274 OA
ATOM     31  H   UNL d   1      24.058 -14.874  -2.108  0.00  0.00     0.169 HD
ENDBRANCH  25  27
ENDBRANCH   2  20
TORSDOF 5
ENDMDL
MODEL 8
REMARK VINA RESULT:    -8.607      2.223      2.546
REMARK INTER + INTRA:         -11.728
REMARK INTER:                 -10.099
REMARK INTRA:                  -1.629
REMARK CONF_INDEPENDENT:        1.492
REMARK UNBOUND:                -1.629
REMARK  5 active torsions:
REMARK  status: ('A' for Active; 'I' for Inactive)
REMARK    1  A    between atoms: C_3  and  C_2 
REMARK    2  A    between atoms: C_3  and  C_18 
REMARK    3  A    between atoms: C_3  and  N_4 
REMARK       I    between atoms: N_4  and  C_5 
REMARK    4  A    between atoms: C_5  and  C_7 
REMARK    5  A    between atoms: C_12  and  N_13 
REMARK       I    between atoms: N_13  and  C_14 
ROOT
ATOM      1  N   UNL d   1      25.427 -16.067  -0.739  0.00  0.00    -0.345 N 
ATOM      2  C   UNL d   1      25.163 -15.271  -1.882  0.00  0.00     0.252 C 
ATOM      3  O   UNL d   1      24.419 -15.661  -2.798  0.00  0.00    -0.268 OA
ATOM      4  H   UNL d   1      25.981 -15.717   0.027  0.00  0.00     0.163 HD
ENDROOT
BRANCH   1   5
ATOM      5  C   UNL d   1      25.211 -17.551  -0.639  0.00  0.00     0.154 C 
BRANCH   5   6
ATOM      6  C   UNL d   1      23.700 -17.858  -0.579  0.00  0.00     0.127 A 
ATOM      7  N   UNL d   1      23.108 -18.811   0.124  0.00  0.00    -0.231 NA
ATOM      8  C   UNL d   1      21.753 -18.657  -0.077  0.00  0.00     0.084 A 
ATOM      9  C   UNL d   1      20.717 -19.457   0.534  0.00  0.00    -0.006 A 
ATOM     10  C   UNL d   1      21.498 -17.584  -0.895  0.00  0.00     0.122 A 
ATOM     11  C   UNL d   1      19.761 -20.107  -0.258  0.00  0.00     0.014 A 
ATOM     12  C   UNL d   1      20.617 -19.520   1.927  0.00  0.00     0.014 A 
ATOM     13  C   UNL d   1      18.687 -20.768   0.338  0.00  0.00     0.001 A 
ATOM     14  C   UNL d   1      18.601 -20.840   1.728  0.00  0.00     0.000 A 
ATOM     15  C   UNL d   1      19.563 -20.217   2.522  0.00  0.00     0.001 A 
ATOM     16  N   UNL d   1      22.730 -17.098  -1.220  0.00  0.00    -0.350 N 
ATOM     17  H   UNL d   1      22.881 -16.280  -1.791  0.00  0.00     0.166 HD
ENDBRANCH   5   6
BRANCH   5  18
ATOM     18  C   UNL d   1      25.919 -18.182   0.599  0.00  0.00     0.028 C 
ATOM     19  C   UNL d   1      27.378 -17.762   0.616  0.00  0.00     0.007 C 
ENDBRANCH   5  18
ENDBRANCH   1   5
BRANCH   2  20
ATOM     20  C   UNL d   1      25.892 -13.950  -2.095  0.00  0.00     0.034 C 
ATOM     21  C   UNL d   1      26.883 -13.427  -1.273  0.00  0.00     0.017 C 
ATOM     22  C   UNL d   1      27.565 -12.248  -1.654  0.00  0.00     0.010 C 
ATOM     23  C   UNL d   1      27.267 -11.570  -2.865  0.00  0.00    -0.035 C 
ATOM     24  C   UNL d   1      28.093 -10.369  -3.248  0.00  0.00     0.050 C 
ATOM     25  C   UNL d   1      26.203 -12.044  -3.645  0.00  0.00     0.041 C 
ATOM     26  C   UNL d   1      25.530 -13.159  -3.167  0.00  0.00     0.047 C 
BRANCH  25  27
ATOM     27  N   UNL d   1      25.822 -11.442  -4.869  0.00  0.00    -0.327 N 
ATOM     28  C   UNL d   1      26.383 -11.408  -6.121  0.00  0.00     0.218 C 
ATOM     29  C   UNL d   1      27.644 -12.121  -6.565  0.00  0.00     0.117 C 
ATOM     30  O   UNL d   1      25.789 -10.738  -6.979  0.00  0.00    -0.274 OA
ATOM     31  H   UNL d   1      24.991 -10.858  -4.847  0.00  0.00     0.169 HD
ENDBRANCH  25  27
ENDBRANCH   2  20
TORSDOF 5
ENDMDL
MODEL 9
REMARK VINA RESULT:    -8.090      3.771      5.839
REMARK INTER + INTRA:         -11.312
REMARK INTER:                  -9.581
REMARK INTRA:                  -1.730
REMARK CONF_INDEPENDENT:        1.492
REMARK UNBOUND:                -1.730
REMARK  5 active torsions:
REMARK  status: ('A' for Active; 'I' for Inactive)
REMARK    1  A    between atoms: C_3  and  C_2 
REMARK    2  A    between atoms: C_3  and  C_18 
REMARK    3  A    between atoms: C_3  and  N_4 
REMARK       I    between atoms: N_4  and  C_5 
REMARK    4  A    between atoms: C_5  and  C_7 
REMARK    5  A    between atoms: C_12  and  N_13 
REMARK       I    between atoms: N_13  and  C_14 
ROOT
ATOM      1  N   UNL d   1      26.146 -14.084  -0.998  0.00  0.00    -0.345 N 
ATOM      2  C   UNL d   1      27.080 -14.439   0.008  0.00  0.00     0.252 C 
ATOM      3  O   UNL d   1      27.741 -15.491  -0.048  0.00  0.00    -0.268 OA
ATOM      4  H   UNL d   1      25.662 -13.202  -0.975  0.00  0.00     0.163 HD
ENDROOT
BRANCH   1   5
ATOM      5  C   UNL d   1      25.540 -15.028  -1.998  0.00  0.00     0.154 C 
BRANCH   5   6
ATOM      6  C   UNL d   1      24.845 -16.195  -1.265  0.00  0.00     0.127 A 
ATOM      7  N   UNL d   1      23.553 -16.485  -1.274  0.00  0.00    -0.231 NA
ATOM      8  C   UNL d   1      23.411 -17.645  -0.543  0.00  0.00     0.084 A 
ATOM      9  C   UNL d   1      22.170 -18.353  -0.325  0.00  0.00    -0.006 A 
ATOM     10  C   UNL d   1      24.629 -18.094  -0.094  0.00  0.00     0.122 A 
ATOM     11  C   UNL d   1      21.742 -18.649   0.975  0.00  0.00     0.014 A 
ATOM     12  C   UNL d   1      21.432 -18.817  -1.418  0.00  0.00     0.014 A 
ATOM     13  C   UNL d   1      20.615 -19.445   1.179  0.00  0.00     0.001 A 
ATOM     14  C   UNL d   1      19.874 -19.894   0.086  0.00  0.00     0.000 A 
ATOM     15  C   UNL d   1      20.282 -19.581  -1.211  0.00  0.00     0.001 A 
ATOM     16  N   UNL d   1      25.522 -17.165  -0.538  0.00  0.00    -0.350 N 
ATOM     17  H   UNL d   1      26.520 -17.228  -0.396  0.00  0.00     0.166 HD
ENDBRANCH   5   6
BRANCH   5  18
ATOM     18  C   UNL d   1      26.588 -15.597  -3.003  0.00  0.00     0.028 C 
ATOM     19  C   UNL d   1      26.861 -14.568  -4.086  0.00  0.00     0.007 C 
ENDBRANCH   5  18
ENDBRANCH   1   5
BRANCH   2  20
ATOM     20  C   UNL d   1      27.218 -13.601   1.273  0.00  0.00     0.034 C 
ATOM     21  C   UNL d   1      27.943 -13.952   2.405  0.00  0.00     0.017 C 
ATOM     22  C   UNL d   1      28.090 -13.027   3.464  0.00  0.00     0.010 C 
ATOM     23  C   UNL d   1      27.511 -11.732   3.411  0.00  0.00    -0.035 C 
ATOM     24  C   UNL d   1      27.781 -10.768   4.537  0.00  0.00     0.050 C 
ATOM     25  C   UNL d   1      26.700 -11.414   2.312  0.00  0.00     0.041 C 
ATOM     26  C   UNL d   1      26.540 -12.402   1.351  0.00  0.00     0.047 C 
BRANCH  25  27
ATOM     27  N   UNL d   1      26.076 -10.152   2.159  0.00  0.00    -0.327 N 
ATOM     28  C   UNL d   1      26.233  -9.120   1.269  0.00  0.00     0.218 C 
ATOM     29  C   UNL d   1      27.167  -9.091   0.076  0.00  0.00     0.117 C 
ATOM     30  O   UNL d   1      25.530  -8.114   1.452  0.00  0.00    -0.274 OA
ATOM     31  H   UNL d   1      25.399  -9.894   2.872  0.00  0.00     0.169 HD
ENDBRANCH  25  27
ENDBRANCH   2  20
TORSDOF 5
ENDMDL
