MODEL 1
REMARK VINA RESULT:   -28.267      0.000      0.000
REMARK INTER + INTRA:         -32.737
REMARK INTER:                 -30.952
REMARK INTRA:                  -1.786
REMARK CONF_INDEPENDENT:        2.685
REMARK UNBOUND:                -1.786
REMARK  9 active torsions:
REMARK  status: ('A' for Active; 'I' for Inactive)
REMARK    1  A    between atoms: C_2  and  O_3 
REMARK    2  A    between atoms: O_3  and  C_4 
REMARK    3  A    between atoms: C_7  and  C_8 
REMARK    4  A    between atoms: C_8  and  C_9 
REMARK    5  A    between atoms: C_9  and  N_10 
REMARK       I    between atoms: N_10  and  C_11 
REMARK    6  A    between atoms: C_11  and  C_13 
REMARK    7  A    between atoms: C_17  and  N_16 
REMARK    8  A    between atoms: C_30  and  O_31 
REMARK    9  A    between atoms: O_31  and  C_32 
ROOT
ATOM      1  C   UNL d   1      25.094 -17.330  -0.657  0.00  0.00     0.081 C 
ATOM      2  C   UNL d   1      24.140 -15.982  -0.881  0.00  0.00     0.033 C 
ATOM      3  C   UNL d   1      22.960 -16.081   0.055  0.00  0.00     0.121 C 
ATOM      4  N   UNL d   1      22.420 -17.626  -0.062  0.00  0.00    -0.373 N 
ATOM      5  C   UNL d   1      23.375 -18.424   0.805  0.00  0.00     0.121 C 
ATOM      6  C   UNL d   1      24.480 -18.729  -0.147  0.00  0.00     0.033 C 
ENDROOT
BRANCH   1   7
ATOM      7  C   UNL d   1      26.292 -16.990   0.111  0.00  0.00     0.221 C 
ATOM      8  N   UNL d   1      26.418 -15.649   0.330  0.00  0.00    -0.360 N 
ATOM      9  H   UNL d   1      25.850 -14.935  -0.116  0.00  0.00     0.162 HD
ATOM     10  O   UNL d   1      27.126 -17.845   0.417  0.00  0.00    -0.273 OA
BRANCH   8  11
ATOM     11  C   UNL d   1      27.609 -15.286   0.993  0.00  0.00     0.127 C 
BRANCH  11  12
ATOM     12  C   UNL d   1      28.819 -15.161   0.099  0.00  0.00     0.058 C 
BRANCH  12  13
ATOM     13  C   UNL d   1      28.395 -15.134  -1.344  0.00  0.00    -0.054 A 
ATOM     14  C   UNL d   1      28.710 -16.187  -2.188  0.00  0.00     0.010 A 
ATOM     15  C   UNL d   1      28.429 -16.085  -3.560  0.00  0.00     0.040 A 
ATOM     16  C   UNL d   1      27.748 -14.974  -4.117  0.00  0.00     0.102 A 
ATOM     17  C   UNL d   1      27.359 -13.938  -3.230  0.00  0.00     0.102 A 
ATOM     18  C   UNL d   1      27.709 -14.041  -1.885  0.00  0.00     0.046 A 
BRANCH  16  19
ATOM     19  O   UNL d   1      27.382 -15.200  -5.437  0.00  0.00    -0.349 OA
BRANCH  19  20
ATOM     20  C   UNL d   1      28.261 -14.827  -6.497  0.00  0.00     0.171 C 
ATOM     21  C   UNL d   1      28.264 -13.370  -6.894  0.00  0.00     0.034 C 
ENDBRANCH  19  20
ENDBRANCH  16  19
BRANCH  17  22
ATOM     22  O   UNL d   1      26.616 -12.766  -3.366  0.00  0.00    -0.349 OA
BRANCH  22  23
ATOM     23  C   UNL d   1      25.478 -13.001  -4.116  0.00  0.00     0.171 C 
ATOM     24  C   UNL d   1      24.425 -14.024  -3.812  0.00  0.00     0.034 C 
ENDBRANCH  22  23
ENDBRANCH  17  22
ENDBRANCH  12  13
ENDBRANCH  11  12
ENDBRANCH   8  11
ENDBRANCH   1   7
BRANCH   4  25
ATOM     25  C   UNL d   1      21.280 -18.218  -1.160  0.00  0.00     0.401 C 
ATOM     26  N   UNL d   1      19.530 -18.592  -1.092  0.00  0.00    -0.247 NA
ATOM     27  C   UNL d   1      19.345 -19.737  -0.498  0.00  0.00     0.035 C 
ATOM     28  H   UNL d   1      19.046 -18.576  -2.019  0.00  0.00     0.131 HD
ATOM     29  C   UNL d   1      18.332 -20.539   0.355  0.00  0.00     0.024 C 
ATOM     30  C   UNL d   1      20.718 -20.101  -0.197  0.00  0.00     0.262 C 
ATOM     31  C   UNL d   1      18.661 -20.792   1.656  0.00  0.00     0.025 C 
ATOM     32  C   UNL d   1      19.879 -20.270   2.174  0.00  0.00     0.033 C 
ATOM     33 CL   UNL d   1      20.273 -20.385   3.849  0.00  0.00    -0.085 Cl
ATOM     34  C   UNL d   1      20.702 -19.859   1.261  0.00  0.00     0.047 C 
ATOM     35  N   UNL d   1      21.560 -19.668  -1.047  0.00  0.00     0.143 N 
ATOM     36  H   UNL d   1      21.522 -19.921  -2.047  0.00  0.00     0.322 HD
ENDBRANCH   4  25
TORSDOF 9
ENDMDL
MODEL 2
REMARK VINA RESULT:   -28.246      1.387      1.886
REMARK INTER + INTRA:         -32.540
REMARK INTER:                 -30.931
REMARK INTRA:                  -1.609
REMARK CONF_INDEPENDENT:        2.685
REMARK UNBOUND:                -1.609
REMARK  9 active torsions:
REMARK  status: ('A' for Active; 'I' for Inactive)
REMARK    1  A    between atoms: C_2  and  O_3 
REMARK    2  A    between atoms: O_3  and  C_4 
REMARK    3  A    between atoms: C_7  and  C_8 
REMARK    4  A    between atoms: C_8  and  C_9 
REMARK    5  A    between atoms: C_9  and  N_10 
REMARK       I    between atoms: N_10  and  C_11 
REMARK    6  A    between atoms: C_11  and  C_13 
REMARK    7  A    between atoms: C_17  and  N_16 
REMARK    8  A    between atoms: C_30  and  O_31 
REMARK    9  A    between atoms: O_31  and  C_32 
ROOT
ATOM      1  C   UNL d   1      25.102 -17.312  -0.777  0.00  0.00     0.081 C 
ATOM      2  C   UNL d   1      24.127 -15.975  -0.971  0.00  0.00     0.033 C 
ATOM      3  C   UNL d   1      22.972 -16.091  -0.006  0.00  0.00     0.121 C 
ATOM      4  N   UNL d   1      22.447 -17.641  -0.117  0.00  0.00    -0.373 N 
ATOM      5  C   UNL d   1      23.432 -18.432   0.723  0.00  0.00     0.121 C 
ATOM      6  C   UNL d   1      24.516 -18.721  -0.258  0.00  0.00     0.033 C 
ENDROOT
BRANCH   1   7
ATOM      7  C   UNL d   1      26.314 -16.962  -0.037  0.00  0.00     0.221 C 
ATOM      8  N   UNL d   1      26.656 -15.648  -0.171  0.00  0.00    -0.360 N 
ATOM      9  H   UNL d   1      26.228 -15.005  -0.830  0.00  0.00     0.162 HD
ATOM     10  O   UNL d   1      26.984 -17.819   0.545  0.00  0.00    -0.273 OA
BRANCH   8  11
ATOM     11  C   UNL d   1      27.869 -15.304   0.461  0.00  0.00     0.127 C 
BRANCH  11  12
ATOM     12  C   UNL d   1      28.873 -14.612  -0.429  0.00  0.00     0.058 C 
BRANCH  12  13
ATOM     13  C   UNL d   1      29.031 -15.372  -1.717  0.00  0.00    -0.054 A 
ATOM     14  C   UNL d   1      30.002 -16.354  -1.838  0.00  0.00     0.010 A 
ATOM     15  C   UNL d   1      30.229 -16.956  -3.085  0.00  0.00     0.040 A 
ATOM     16  C   UNL d   1      29.440 -16.665  -4.227  0.00  0.00     0.102 A 
ATOM     17  C   UNL d   1      28.396 -15.717  -4.071  0.00  0.00     0.102 A 
ATOM     18  C   UNL d   1      28.239 -15.091  -2.836  0.00  0.00     0.046 A 
BRANCH  16  19
ATOM     19  O   UNL d   1      29.697 -17.542  -5.272  0.00  0.00    -0.349 OA
BRANCH  19  20
ATOM     20  C   UNL d   1      30.701 -18.547  -5.133  0.00  0.00     0.171 C 
ATOM     21  C   UNL d   1      30.469 -19.842  -5.874  0.00  0.00     0.034 C 
ENDBRANCH  19  20
ENDBRANCH  16  19
BRANCH  17  22
ATOM     22  O   UNL d   1      27.377 -15.245  -4.897  0.00  0.00    -0.349 OA
BRANCH  22  23
ATOM     23  C   UNL d   1      26.151 -15.366  -4.267  0.00  0.00     0.171 C 
ATOM     24  C   UNL d   1      25.359 -14.242  -3.671  0.00  0.00     0.034 C 
ENDBRANCH  22  23
ENDBRANCH  17  22
ENDBRANCH  12  13
ENDBRANCH  11  12
ENDBRANCH   8  11
ENDBRANCH   1   7
BRANCH   4  25
ATOM     25  C   UNL d   1      21.286 -18.242  -1.188  0.00  0.00     0.401 C 
ATOM     26  N   UNL d   1      19.530 -18.579  -1.096  0.00  0.00    -0.247 NA
ATOM     27  C   UNL d   1      19.328 -19.703  -0.467  0.00  0.00     0.035 C 
ATOM     28  H   UNL d   1      19.038 -18.580  -2.019  0.00  0.00     0.131 HD
ATOM     29  C   UNL d   1      18.307 -20.460   0.416  0.00  0.00     0.024 C 
ATOM     30  C   UNL d   1      20.696 -20.085  -0.167  0.00  0.00     0.262 C 
ATOM     31  C   UNL d   1      18.642 -20.683   1.720  0.00  0.00     0.025 C 
ATOM     32  C   UNL d   1      19.874 -20.171   2.214  0.00  0.00     0.033 C 
ATOM     33 CL   UNL d   1      20.280 -20.247   3.888  0.00  0.00    -0.085 Cl
ATOM     34  C   UNL d   1      20.698 -19.802   1.283  0.00  0.00     0.047 C 
ATOM     35  N   UNL d   1      21.539 -19.693  -1.036  0.00  0.00     0.143 N 
ATOM     36  H   UNL d   1      21.488 -19.973  -2.029  0.00  0.00     0.322 HD
ENDBRANCH   4  25
TORSDOF 9
ENDMDL
MODEL 3
REMARK VINA RESULT:   -28.117      2.871      4.818
REMARK INTER + INTRA:         -32.068
REMARK INTER:                 -30.802
REMARK INTRA:                  -1.267
REMARK CONF_INDEPENDENT:        2.685
REMARK UNBOUND:                -1.267
REMARK  9 active torsions:
REMARK  status: ('A' for Active; 'I' for Inactive)
REMARK    1  A    between atoms: C_2  and  O_3 
REMARK    2  A    between atoms: O_3  and  C_4 
REMARK    3  A    between atoms: C_7  and  C_8 
REMARK    4  A    between atoms: C_8  and  C_9 
REMARK    5  A    between atoms: C_9  and  N_10 
REMARK       I    between atoms: N_10  and  C_11 
REMARK    6  A    between atoms: C_11  and  C_13 
REMARK    7  A    between atoms: C_17  and  N_16 
REMARK    8  A    between atoms: C_30  and  O_31 
REMARK    9  A    between atoms: O_31  and  C_32 
ROOT
ATOM      1  C   UNL d   1      25.134 -17.483  -0.735  0.00  0.00     0.081 C 
ATOM      2  C   UNL d   1      24.230 -16.111  -1.014  0.00  0.00     0.033 C 
ATOM      3  C   UNL d   1      23.051 -16.125  -0.072  0.00  0.00     0.121 C 
ATOM      4  N   UNL d   1      22.454 -17.653  -0.123  0.00  0.00    -0.373 N 
ATOM      5  C   UNL d   1      23.381 -18.449   0.776  0.00  0.00     0.121 C 
ATOM      6  C   UNL d   1      24.470 -18.835  -0.165  0.00  0.00     0.033 C 
ENDROOT
BRANCH   1   7
ATOM      7  C   UNL d   1      26.347 -17.156   0.016  0.00  0.00     0.221 C 
ATOM      8  N   UNL d   1      27.134 -16.242  -0.621  0.00  0.00    -0.360 N 
ATOM      9  H   UNL d   1      26.999 -15.931  -1.578  0.00  0.00     0.162 HD
ATOM     10  O   UNL d   1      26.638 -17.747   1.059  0.00  0.00    -0.273 OA
BRANCH   8  11
ATOM     11  C   UNL d   1      28.352 -15.975   0.039  0.00  0.00     0.127 C 
BRANCH  11  12
ATOM     12  C   UNL d   1      28.915 -14.596  -0.203  0.00  0.00     0.058 C 
BRANCH  12  13
ATOM     13  C   UNL d   1      28.266 -13.603   0.719  0.00  0.00    -0.054 A 
ATOM     14  C   UNL d   1      28.130 -12.276   0.339  0.00  0.00     0.010 A 
ATOM     15  C   UNL d   1      27.648 -11.335   1.263  0.00  0.00     0.040 A 
ATOM     16  C   UNL d   1      27.205 -11.698   2.559  0.00  0.00     0.102 A 
ATOM     17  C   UNL d   1      27.274 -13.071   2.910  0.00  0.00     0.102 A 
ATOM     18  C   UNL d   1      27.816 -13.970   1.992  0.00  0.00     0.046 A 
BRANCH  16  19
ATOM     19  O   UNL d   1      26.564 -10.648   3.201  0.00  0.00    -0.349 OA
BRANCH  19  20
ATOM     20  C   UNL d   1      27.172  -9.358   3.247  0.00  0.00     0.171 C 
ATOM     21  C   UNL d   1      26.853  -8.418   2.108  0.00  0.00     0.034 C 
ENDBRANCH  19  20
ENDBRANCH  16  19
BRANCH  17  22
ATOM     22  O   UNL d   1      26.863 -13.818   4.013  0.00  0.00    -0.349 OA
BRANCH  22  23
ATOM     23  C   UNL d   1      27.913 -14.576   4.500  0.00  0.00     0.171 C 
ATOM     24  C   UNL d   1      28.759 -14.236   5.690  0.00  0.00     0.034 C 
ENDBRANCH  22  23
ENDBRANCH  17  22
ENDBRANCH  12  13
ENDBRANCH  11  12
ENDBRANCH   8  11
ENDBRANCH   1   7
BRANCH   4  25
ATOM     25  C   UNL d   1      21.288 -18.248  -1.191  0.00  0.00     0.401 C 
ATOM     26  N   UNL d   1      19.530 -18.576  -1.097  0.00  0.00    -0.247 NA
ATOM     27  C   UNL d   1      19.323 -19.699  -0.468  0.00  0.00     0.035 C 
ATOM     28  H   UNL d   1      19.037 -18.574  -2.018  0.00  0.00     0.131 HD
ATOM     29  C   UNL d   1      18.300 -20.451   0.417  0.00  0.00     0.024 C 
ATOM     30  C   UNL d   1      20.690 -20.088  -0.170  0.00  0.00     0.262 C 
ATOM     31  C   UNL d   1      18.637 -20.676   1.722  0.00  0.00     0.025 C 
ATOM     32  C   UNL d   1      19.872 -20.169   2.213  0.00  0.00     0.033 C 
ATOM     33 CL   UNL d   1      20.281 -20.247   3.886  0.00  0.00    -0.085 Cl
ATOM     34  C   UNL d   1      20.696 -19.805   1.280  0.00  0.00     0.047 C 
ATOM     35  N   UNL d   1      21.533 -19.700  -1.040  0.00  0.00     0.143 N 
ATOM     36  H   UNL d   1      21.479 -19.980  -2.033  0.00  0.00     0.322 HD
ENDBRANCH   4  25
TORSDOF 9
ENDMDL
MODEL 4
REMARK VINA RESULT:   -28.063      1.008      2.225
REMARK INTER + INTRA:         -32.323
REMARK INTER:                 -30.747
REMARK INTRA:                  -1.576
REMARK CONF_INDEPENDENT:        2.685
REMARK UNBOUND:                -1.576
REMARK  9 active torsions:
REMARK  status: ('A' for Active; 'I' for Inactive)
REMARK    1  A    between atoms: C_2  and  O_3 
REMARK    2  A    between atoms: O_3  and  C_4 
REMARK    3  A    between atoms: C_7  and  C_8 
REMARK    4  A    between atoms: C_8  and  C_9 
REMARK    5  A    between atoms: C_9  and  N_10 
REMARK       I    between atoms: N_10  and  C_11 
REMARK    6  A    between atoms: C_11  and  C_13 
REMARK    7  A    between atoms: C_17  and  N_16 
REMARK    8  A    between atoms: C_30  and  O_31 
REMARK    9  A    between atoms: O_31  and  C_32 
ROOT
ATOM      1  C   UNL d   1      25.126 -17.469  -0.686  0.00  0.00     0.081 C 
ATOM      2  C   UNL d   1      24.215 -16.097  -0.939  0.00  0.00     0.033 C 
ATOM      3  C   UNL d   1      23.031 -16.138  -0.003  0.00  0.00     0.121 C 
ATOM      4  N   UNL d   1      22.444 -17.668  -0.089  0.00  0.00    -0.373 N 
ATOM      5  C   UNL d   1      23.372 -18.478   0.796  0.00  0.00     0.121 C 
ATOM      6  C   UNL d   1      24.467 -18.837  -0.148  0.00  0.00     0.033 C 
ENDROOT
BRANCH   1   7
ATOM      7  C   UNL d   1      26.333 -17.151   0.077  0.00  0.00     0.221 C 
ATOM      8  N   UNL d   1      26.534 -15.809   0.216  0.00  0.00    -0.360 N 
ATOM      9  H   UNL d   1      26.012 -15.093  -0.280  0.00  0.00     0.162 HD
ATOM     10  O   UNL d   1      27.113 -18.033   0.445  0.00  0.00    -0.273 OA
BRANCH   8  11
ATOM     11  C   UNL d   1      27.737 -15.474   0.872  0.00  0.00     0.127 C 
BRANCH  11  12
ATOM     12  C   UNL d   1      28.729 -14.713   0.027  0.00  0.00     0.058 C 
BRANCH  12  13
ATOM     13  C   UNL d   1      28.391 -14.866  -1.430  0.00  0.00    -0.054 A 
ATOM     14  C   UNL d   1      27.419 -14.069  -2.014  0.00  0.00     0.010 A 
ATOM     15  C   UNL d   1      27.019 -14.317  -3.336  0.00  0.00     0.040 A 
ATOM     16  C   UNL d   1      27.634 -15.305  -4.145  0.00  0.00     0.102 A 
ATOM     17  C   UNL d   1      28.683 -16.062  -3.563  0.00  0.00     0.102 A 
ATOM     18  C   UNL d   1      29.013 -15.833  -2.228  0.00  0.00     0.046 A 
BRANCH  16  19
ATOM     19  O   UNL d   1      27.235 -15.211  -5.472  0.00  0.00    -0.349 OA
BRANCH  19  20
ATOM     20  C   UNL d   1      28.154 -14.763  -6.466  0.00  0.00     0.171 C 
ATOM     21  C   UNL d   1      28.294 -13.269  -6.635  0.00  0.00     0.034 C 
ENDBRANCH  19  20
ENDBRANCH  16  19
BRANCH  17  22
ATOM     22  O   UNL d   1      29.570 -17.026  -4.040  0.00  0.00    -0.349 OA
BRANCH  22  23
ATOM     23  C   UNL d   1      30.877 -16.620  -3.840  0.00  0.00     0.171 C 
ATOM     24  C   UNL d   1      32.100 -17.328  -4.341  0.00  0.00     0.034 C 
ENDBRANCH  22  23
ENDBRANCH  17  22
ENDBRANCH  12  13
ENDBRANCH  11  12
ENDBRANCH   8  11
ENDBRANCH   1   7
BRANCH   4  25
ATOM     25  C   UNL d   1      21.286 -18.247  -1.175  0.00  0.00     0.401 C 
ATOM     26  N   UNL d   1      19.530 -18.589  -1.094  0.00  0.00    -0.247 NA
ATOM     27  C   UNL d   1      19.329 -19.728  -0.492  0.00  0.00     0.035 C 
ATOM     28  H   UNL d   1      19.040 -18.571  -2.018  0.00  0.00     0.131 HD
ATOM     29  C   UNL d   1      18.309 -20.507   0.372  0.00  0.00     0.024 C 
ATOM     30  C   UNL d   1      20.698 -20.114  -0.198  0.00  0.00     0.262 C 
ATOM     31  C   UNL d   1      18.642 -20.759   1.672  0.00  0.00     0.025 C 
ATOM     32  C   UNL d   1      19.872 -20.255   2.179  0.00  0.00     0.033 C 
ATOM     33 CL   UNL d   1      20.276 -20.368   3.852  0.00  0.00    -0.085 Cl
ATOM     34  C   UNL d   1      20.696 -19.864   1.258  0.00  0.00     0.047 C 
ATOM     35  N   UNL d   1      21.541 -19.700  -1.057  0.00  0.00     0.143 N 
ATOM     36  H   UNL d   1      21.493 -19.957  -2.055  0.00  0.00     0.322 HD
ENDBRANCH   4  25
TORSDOF 9
ENDMDL
MODEL 5
REMARK VINA RESULT:   -28.058      3.275      5.460
REMARK INTER + INTRA:         -31.912
REMARK INTER:                 -30.743
REMARK INTRA:                  -1.170
REMARK CONF_INDEPENDENT:        2.685
REMARK UNBOUND:                -1.170
REMARK  9 active torsions:
REMARK  status: ('A' for Active; 'I' for Inactive)
REMARK    1  A    between atoms: C_2  and  O_3 
REMARK    2  A    between atoms: O_3  and  C_4 
REMARK    3  A    between atoms: C_7  and  C_8 
REMARK    4  A    between atoms: C_8  and  C_9 
REMARK    5  A    between atoms: C_9  and  N_10 
REMARK       I    between atoms: N_10  and  C_11 
REMARK    6  A    between atoms: C_11  and  C_13 
REMARK    7  A    between atoms: C_17  and  N_16 
REMARK    8  A    between atoms: C_30  and  O_31 
REMARK    9  A    between atoms: O_31  and  C_32 
ROOT
ATOM      1  C   UNL d   1      25.114 -17.439  -0.646  0.00  0.00     0.081 C 
ATOM      2  C   UNL d   1      24.195 -16.071  -0.895  0.00  0.00     0.033 C 
ATOM      3  C   UNL d   1      23.006 -16.127   0.033  0.00  0.00     0.121 C 
ATOM      4  N   UNL d   1      22.429 -17.660  -0.067  0.00  0.00    -0.373 N 
ATOM      5  C   UNL d   1      23.358 -18.470   0.818  0.00  0.00     0.121 C 
ATOM      6  C   UNL d   1      24.462 -18.815  -0.122  0.00  0.00     0.033 C 
ENDROOT
BRANCH   1   7
ATOM      7  C   UNL d   1      26.314 -17.118   0.126  0.00  0.00     0.221 C 
ATOM      8  N   UNL d   1      26.781 -15.859  -0.118  0.00  0.00    -0.360 N 
ATOM      9  H   UNL d   1      26.449 -15.256  -0.864  0.00  0.00     0.162 HD
ATOM     10  O   UNL d   1      26.871 -17.963   0.832  0.00  0.00    -0.273 OA
BRANCH   8  11
ATOM     11  C   UNL d   1      27.987 -15.556   0.547  0.00  0.00     0.127 C 
BRANCH  11  12
ATOM     12  C   UNL d   1      28.249 -14.083   0.744  0.00  0.00     0.058 C 
BRANCH  12  13
ATOM     13  C   UNL d   1      28.184 -13.737   2.206  0.00  0.00    -0.054 A 
ATOM     14  C   UNL d   1      28.236 -14.735   3.167  0.00  0.00     0.010 A 
ATOM     15  C   UNL d   1      28.036 -14.410   4.517  0.00  0.00     0.040 A 
ATOM     16  C   UNL d   1      27.866 -13.075   4.962  0.00  0.00     0.102 A 
ATOM     17  C   UNL d   1      27.894 -12.053   3.979  0.00  0.00     0.102 A 
ATOM     18  C   UNL d   1      28.032 -12.416   2.640  0.00  0.00     0.046 A 
BRANCH  16  19
ATOM     19  O   UNL d   1      27.917 -12.980   6.346  0.00  0.00    -0.349 OA
BRANCH  19  20
ATOM     20  C   UNL d   1      29.158 -13.145   7.030  0.00  0.00     0.171 C 
ATOM     21  C   UNL d   1      30.307 -12.281   6.565  0.00  0.00     0.034 C 
ENDBRANCH  19  20
ENDBRANCH  16  19
BRANCH  17  22
ATOM     22  O   UNL d   1      27.859 -10.660   4.019  0.00  0.00    -0.349 OA
BRANCH  22  23
ATOM     23  C   UNL d   1      26.660 -10.193   3.511  0.00  0.00     0.171 C 
ATOM     24  C   UNL d   1      26.409  -9.796   2.087  0.00  0.00     0.034 C 
ENDBRANCH  22  23
ENDBRANCH  17  22
ENDBRANCH  12  13
ENDBRANCH  11  12
ENDBRANCH   8  11
ENDBRANCH   1   7
BRANCH   4  25
ATOM     25  C   UNL d   1      21.282 -18.239  -1.164  0.00  0.00     0.401 C 
ATOM     26  N   UNL d   1      19.530 -18.601  -1.095  0.00  0.00    -0.247 NA
ATOM     27  C   UNL d   1      19.338 -19.748  -0.505  0.00  0.00     0.035 C 
ATOM     28  H   UNL d   1      19.044 -18.577  -2.020  0.00  0.00     0.131 HD
ATOM     29  C   UNL d   1      18.322 -20.547   0.346  0.00  0.00     0.024 C 
ATOM     30  C   UNL d   1      20.710 -20.123  -0.209  0.00  0.00     0.262 C 
ATOM     31  C   UNL d   1      18.653 -20.808   1.645  0.00  0.00     0.025 C 
ATOM     32  C   UNL d   1      19.875 -20.297   2.163  0.00  0.00     0.033 C 
ATOM     33 CL   UNL d   1      20.272 -20.424   3.836  0.00  0.00    -0.085 Cl
ATOM     34  C   UNL d   1      20.699 -19.888   1.250  0.00  0.00     0.047 C 
ATOM     35  N   UNL d   1      21.552 -19.691  -1.059  0.00  0.00     0.143 N 
ATOM     36  H   UNL d   1      21.511 -19.939  -2.061  0.00  0.00     0.322 HD
ENDBRANCH   4  25
TORSDOF 9
ENDMDL
MODEL 6
REMARK VINA RESULT:   -27.759      1.008      2.026
REMARK INTER + INTRA:         -32.048
REMARK INTER:                 -30.444
REMARK INTRA:                  -1.604
REMARK CONF_INDEPENDENT:        2.685
REMARK UNBOUND:                -1.604
REMARK  9 active torsions:
REMARK  status: ('A' for Active; 'I' for Inactive)
REMARK    1  A    between atoms: C_2  and  O_3 
REMARK    2  A    between atoms: O_3  and  C_4 
REMARK    3  A    between atoms: C_7  and  C_8 
REMARK    4  A    between atoms: C_8  and  C_9 
REMARK    5  A    between atoms: C_9  and  N_10 
REMARK       I    between atoms: N_10  and  C_11 
REMARK    6  A    between atoms: C_11  and  C_13 
REMARK    7  A    between atoms: C_17  and  N_16 
REMARK    8  A    between atoms: C_30  and  O_31 
REMARK    9  A    between atoms: O_31  and  C_32 
ROOT
ATOM      1  C   UNL d   1      25.094 -17.295  -0.809  0.00  0.00     0.081 C 
ATOM      2  C   UNL d   1      24.114 -15.970  -1.056  0.00  0.00     0.033 C 
ATOM      3  C   UNL d   1      22.956 -16.055  -0.091  0.00  0.00     0.121 C 
ATOM      4  N   UNL d   1      22.439 -17.611  -0.145  0.00  0.00    -0.373 N 
ATOM      5  C   UNL d   1      23.425 -18.365   0.726  0.00  0.00     0.121 C 
ATOM      6  C   UNL d   1      24.513 -18.685  -0.240  0.00  0.00     0.033 C 
ENDROOT
BRANCH   1   7
ATOM      7  C   UNL d   1      26.303 -16.912  -0.080  0.00  0.00     0.221 C 
ATOM      8  N   UNL d   1      26.539 -15.568  -0.114  0.00  0.00    -0.360 N 
ATOM      9  H   UNL d   1      26.042 -14.910  -0.706  0.00  0.00     0.162 HD
ATOM     10  O   UNL d   1      27.055 -17.758   0.410  0.00  0.00    -0.273 OA
BRANCH   8  11
ATOM     11  C   UNL d   1      27.745 -15.182   0.507  0.00  0.00     0.127 C 
BRANCH  11  12
ATOM     12  C   UNL d   1      28.547 -14.152  -0.250  0.00  0.00     0.058 C 
BRANCH  12  13
ATOM     13  C   UNL d   1      27.817 -13.746  -1.500  0.00  0.00    -0.054 A 
ATOM     14  C   UNL d   1      27.174 -12.521  -1.573  0.00  0.00     0.010 A 
ATOM     15  C   UNL d   1      26.383 -12.215  -2.691  0.00  0.00     0.040 A 
ATOM     16  C   UNL d   1      26.280 -13.081  -3.809  0.00  0.00     0.102 A 
ATOM     17  C   UNL d   1      27.006 -14.298  -3.759  0.00  0.00     0.102 A 
ATOM     18  C   UNL d   1      27.731 -14.599  -2.607  0.00  0.00     0.046 A 
BRANCH  16  19
ATOM     19  O   UNL d   1      25.637 -12.471  -4.879  0.00  0.00    -0.349 OA
BRANCH  19  20
ATOM     20  C   UNL d   1      26.135 -11.243  -5.407  0.00  0.00     0.171 C 
ATOM     21  C   UNL d   1      26.017 -11.051  -6.901  0.00  0.00     0.034 C 
ENDBRANCH  19  20
ENDBRANCH  16  19
BRANCH  17  22
ATOM     22  O   UNL d   1      27.233 -15.336  -4.662  0.00  0.00    -0.349 OA
BRANCH  22  23
ATOM     23  C   UNL d   1      28.059 -14.912  -5.687  0.00  0.00     0.171 C 
ATOM     24  C   UNL d   1      29.277 -14.052  -5.530  0.00  0.00     0.034 C 
ENDBRANCH  22  23
ENDBRANCH  17  22
ENDBRANCH  12  13
ENDBRANCH  11  12
ENDBRANCH   8  11
ENDBRANCH   1   7
BRANCH   4  25
ATOM     25  C   UNL d   1      21.284 -18.257  -1.197  0.00  0.00     0.401 C 
ATOM     26  N   UNL d   1      19.530 -18.602  -1.096  0.00  0.00    -0.247 NA
ATOM     27  C   UNL d   1      19.333 -19.704  -0.429  0.00  0.00     0.035 C 
ATOM     28  H   UNL d   1      19.040 -18.639  -2.020  0.00  0.00     0.131 HD
ATOM     29  C   UNL d   1      18.316 -20.436   0.479  0.00  0.00     0.024 C 
ATOM     30  C   UNL d   1      20.704 -20.067  -0.113  0.00  0.00     0.262 C 
ATOM     31  C   UNL d   1      18.649 -20.611   1.791  0.00  0.00     0.025 C 
ATOM     32  C   UNL d   1      19.877 -20.073   2.268  0.00  0.00     0.033 C 
ATOM     33 CL   UNL d   1      20.280 -20.087   3.945  0.00  0.00    -0.085 Cl
ATOM     34  C   UNL d   1      20.700 -19.732   1.327  0.00  0.00     0.047 C 
ATOM     35  N   UNL d   1      21.546 -19.700  -0.993  0.00  0.00     0.143 N 
ATOM     36  H   UNL d   1      21.499 -20.015  -1.975  0.00  0.00     0.322 HD
ENDBRANCH   4  25
TORSDOF 9
ENDMDL
MODEL 7
REMARK VINA RESULT:   -27.033      2.527      3.746
REMARK INTER + INTRA:         -30.931
REMARK INTER:                 -29.718
REMARK INTRA:                  -1.214
REMARK CONF_INDEPENDENT:        2.685
REMARK UNBOUND:                -1.214
REMARK  9 active torsions:
REMARK  status: ('A' for Active; 'I' for Inactive)
REMARK    1  A    between atoms: C_2  and  O_3 
REMARK    2  A    between atoms: O_3  and  C_4 
REMARK    3  A    between atoms: C_7  and  C_8 
REMARK    4  A    between atoms: C_8  and  C_9 
REMARK    5  A    between atoms: C_9  and  N_10 
REMARK       I    between atoms: N_10  and  C_11 
REMARK    6  A    between atoms: C_11  and  C_13 
REMARK    7  A    between atoms: C_17  and  N_16 
REMARK    8  A    between atoms: C_30  and  O_31 
REMARK    9  A    between atoms: O_31  and  C_32 
ROOT
ATOM      1  C   UNL d   1      25.109 -17.351  -0.761  0.00  0.00     0.081 C 
ATOM      2  C   UNL d   1      24.146 -16.005  -0.952  0.00  0.00     0.033 C 
ATOM      3  C   UNL d   1      22.987 -16.114   0.009  0.00  0.00     0.121 C 
ATOM      4  N   UNL d   1      22.450 -17.660  -0.109  0.00  0.00    -0.373 N 
ATOM      5  C   UNL d   1      23.426 -18.463   0.730  0.00  0.00     0.121 C 
ATOM      6  C   UNL d   1      24.510 -18.756  -0.249  0.00  0.00     0.033 C 
ENDROOT
BRANCH   1   7
ATOM      7  C   UNL d   1      26.322 -17.014  -0.016  0.00  0.00     0.221 C 
ATOM      8  N   UNL d   1      27.037 -16.007  -0.595  0.00  0.00    -0.360 N 
ATOM      9  H   UNL d   1      26.856 -15.629  -1.520  0.00  0.00     0.162 HD
ATOM     10  O   UNL d   1      26.677 -17.669   0.968  0.00  0.00    -0.273 OA
BRANCH   8  11
ATOM     11  C   UNL d   1      28.256 -15.722   0.055  0.00  0.00     0.127 C 
BRANCH  11  12
ATOM     12  C   UNL d   1      29.206 -16.889   0.159  0.00  0.00     0.058 C 
BRANCH  12  13
ATOM     13  C   UNL d   1      29.810 -17.186  -1.186  0.00  0.00    -0.054 A 
ATOM     14  C   UNL d   1      29.471 -16.422  -2.292  0.00  0.00     0.010 A 
ATOM     15  C   UNL d   1      29.934 -16.796  -3.563  0.00  0.00     0.040 A 
ATOM     16  C   UNL d   1      30.819 -17.887  -3.761  0.00  0.00     0.102 A 
ATOM     17  C   UNL d   1      31.223 -18.613  -2.611  0.00  0.00     0.102 A 
ATOM     18  C   UNL d   1      30.694 -18.254  -1.372  0.00  0.00     0.046 A 
BRANCH  16  19
ATOM     19  O   UNL d   1      31.317 -17.921  -5.056  0.00  0.00    -0.349 OA
BRANCH  19  20
ATOM     20  C   UNL d   1      30.465 -18.282  -6.141  0.00  0.00     0.171 C 
ATOM     21  C   UNL d   1      31.077 -18.252  -7.522  0.00  0.00     0.034 C 
ENDBRANCH  19  20
ENDBRANCH  16  19
BRANCH  17  22
ATOM     22  O   UNL d   1      32.122 -19.653  -2.381  0.00  0.00    -0.349 OA
BRANCH  22  23
ATOM     23  C   UNL d   1      31.641 -20.834  -2.918  0.00  0.00     0.171 C 
ATOM     24  C   UNL d   1      32.043 -21.423  -4.237  0.00  0.00     0.034 C 
ENDBRANCH  22  23
ENDBRANCH  17  22
ENDBRANCH  12  13
ENDBRANCH  11  12
ENDBRANCH   8  11
ENDBRANCH   1   7
BRANCH   4  25
ATOM     25  C   UNL d   1      21.287 -18.246  -1.186  0.00  0.00     0.401 C 
ATOM     26  N   UNL d   1      19.530 -18.581  -1.097  0.00  0.00    -0.247 NA
ATOM     27  C   UNL d   1      19.326 -19.712  -0.481  0.00  0.00     0.035 C 
ATOM     28  H   UNL d   1      19.038 -18.571  -2.020  0.00  0.00     0.131 HD
ATOM     29  C   UNL d   1      18.305 -20.478   0.394  0.00  0.00     0.024 C 
ATOM     30  C   UNL d   1      20.694 -20.100  -0.187  0.00  0.00     0.262 C 
ATOM     31  C   UNL d   1      18.641 -20.716   1.696  0.00  0.00     0.025 C 
ATOM     32  C   UNL d   1      19.873 -20.211   2.194  0.00  0.00     0.033 C 
ATOM     33 CL   UNL d   1      20.281 -20.307   3.867  0.00  0.00    -0.085 Cl
ATOM     34  C   UNL d   1      20.697 -19.833   1.267  0.00  0.00     0.047 C 
ATOM     35  N   UNL d   1      21.537 -19.700  -1.052  0.00  0.00     0.143 N 
ATOM     36  H   UNL d   1      21.485 -19.968  -2.047  0.00  0.00     0.322 HD
ENDBRANCH   4  25
TORSDOF 9
ENDMDL
MODEL 8
REMARK VINA RESULT:   -25.684      2.875      4.948
REMARK INTER + INTRA:         -29.431
REMARK INTER:                 -28.369
REMARK INTRA:                  -1.062
REMARK CONF_INDEPENDENT:        2.685
REMARK UNBOUND:                -1.062
REMARK  9 active torsions:
REMARK  status: ('A' for Active; 'I' for Inactive)
REMARK    1  A    between atoms: C_2  and  O_3 
REMARK    2  A    between atoms: O_3  and  C_4 
REMARK    3  A    between atoms: C_7  and  C_8 
REMARK    4  A    between atoms: C_8  and  C_9 
REMARK    5  A    between atoms: C_9  and  N_10 
REMARK       I    between atoms: N_10  and  C_11 
REMARK    6  A    between atoms: C_11  and  C_13 
REMARK    7  A    between atoms: C_17  and  N_16 
REMARK    8  A    between atoms: C_30  and  O_31 
REMARK    9  A    between atoms: O_31  and  C_32 
ROOT
ATOM      1  C   UNL d   1      25.154 -17.623  -0.710  0.00  0.00     0.081 C 
ATOM      2  C   UNL d   1      24.312 -16.237  -1.089  0.00  0.00     0.033 C 
ATOM      3  C   UNL d   1      23.115 -16.148  -0.173  0.00  0.00     0.121 C 
ATOM      4  N   UNL d   1      22.458 -17.651  -0.145  0.00  0.00    -0.373 N 
ATOM      5  C   UNL d   1      23.335 -18.428   0.818  0.00  0.00     0.121 C 
ATOM      6  C   UNL d   1      24.425 -18.912  -0.075  0.00  0.00     0.033 C 
ENDROOT
BRANCH   1   7
ATOM      7  C   UNL d   1      26.364 -17.300   0.046  0.00  0.00     0.221 C 
ATOM      8  N   UNL d   1      26.395 -16.002   0.467  0.00  0.00    -0.360 N 
ATOM      9  H   UNL d   1      25.746 -15.283   0.166  0.00  0.00     0.162 HD
ATOM     10  O   UNL d   1      27.282 -18.115   0.174  0.00  0.00    -0.273 OA
BRANCH   8  11
ATOM     11  C   UNL d   1      27.591 -15.640   1.122  0.00  0.00     0.127 C 
BRANCH  11  12
ATOM     12  C   UNL d   1      28.666 -15.086   0.219  0.00  0.00     0.058 C 
BRANCH  12  13
ATOM     13  C   UNL d   1      30.024 -15.369   0.798  0.00  0.00    -0.054 A 
ATOM     14  C   UNL d   1      30.424 -14.761   1.978  0.00  0.00     0.010 A 
ATOM     15  C   UNL d   1      31.742 -14.927   2.432  0.00  0.00     0.040 A 
ATOM     16  C   UNL d   1      32.673 -15.771   1.776  0.00  0.00     0.102 A 
ATOM     17  C   UNL d   1      32.228 -16.451   0.614  0.00  0.00     0.102 A 
ATOM     18  C   UNL d   1      30.933 -16.215   0.154  0.00  0.00     0.046 A 
BRANCH  16  19
ATOM     19  O   UNL d   1      33.825 -15.955   2.529  0.00  0.00    -0.349 OA
BRANCH  19  20
ATOM     20  C   UNL d   1      34.248 -17.272   2.879  0.00  0.00     0.171 C 
ATOM     21  C   UNL d   1      35.623 -17.688   2.413  0.00  0.00     0.034 C 
ENDBRANCH  19  20
ENDBRANCH  16  19
BRANCH  17  22
ATOM     22  O   UNL d   1      32.789 -17.407  -0.231  0.00  0.00    -0.349 OA
BRANCH  22  23
ATOM     23  C   UNL d   1      32.073 -17.487  -1.412  0.00  0.00     0.171 C 
ATOM     24  C   UNL d   1      32.287 -16.631  -2.625  0.00  0.00     0.034 C 
ENDBRANCH  22  23
ENDBRANCH  17  22
ENDBRANCH  12  13
ENDBRANCH  11  12
ENDBRANCH   8  11
ENDBRANCH   1   7
BRANCH   4  25
ATOM     25  C   UNL d   1      21.289 -18.263  -1.202  0.00  0.00     0.401 C 
ATOM     26  N   UNL d   1      19.531 -18.585  -1.099  0.00  0.00    -0.247 NA
ATOM     27  C   UNL d   1      19.322 -19.696  -0.448  0.00  0.00     0.035 C 
ATOM     28  H   UNL d   1      19.036 -18.600  -2.020  0.00  0.00     0.131 HD
ATOM     29  C   UNL d   1      18.298 -20.428   0.452  0.00  0.00     0.024 C 
ATOM     30  C   UNL d   1      20.688 -20.083  -0.145  0.00  0.00     0.262 C 
ATOM     31  C   UNL d   1      18.635 -20.629   1.760  0.00  0.00     0.025 C 
ATOM     32  C   UNL d   1      19.872 -20.116   2.239  0.00  0.00     0.033 C 
ATOM     33 CL   UNL d   1      20.283 -20.164   3.914  0.00  0.00    -0.085 Cl
ATOM     34  C   UNL d   1      20.696 -19.772   1.300  0.00  0.00     0.047 C 
ATOM     35  N   UNL d   1      21.532 -19.713  -1.023  0.00  0.00     0.143 N 
ATOM     36  H   UNL d   1      21.475 -20.011  -2.010  0.00  0.00     0.322 HD
ENDBRANCH   4  25
TORSDOF 9
ENDMDL
MODEL 9
REMARK VINA RESULT:   -25.564      3.204      4.658
REMARK INTER + INTRA:         -29.303
REMARK INTER:                 -28.248
REMARK INTRA:                  -1.055
REMARK CONF_INDEPENDENT:        2.685
REMARK UNBOUND:                -1.055
REMARK  9 active torsions:
REMARK  status: ('A' for Active; 'I' for Inactive)
REMARK    1  A    between atoms: C_2  and  O_3 
REMARK    2  A    between atoms: O_3  and  C_4 
REMARK    3  A    between atoms: C_7  and  C_8 
REMARK    4  A    between atoms: C_8  and  C_9 
REMARK    5  A    between atoms: C_9  and  N_10 
REMARK       I    between atoms: N_10  and  C_11 
REMARK    6  A    between atoms: C_11  and  C_13 
REMARK    7  A    between atoms: C_17  and  N_16 
REMARK    8  A    between atoms: C_30  and  O_31 
REMARK    9  A    between atoms: O_31  and  C_32 
ROOT
ATOM      1  C   UNL d   1      25.155 -17.648  -0.673  0.00  0.00     0.081 C 
ATOM      2  C   UNL d   1      24.327 -16.252  -1.048  0.00  0.00     0.033 C 
ATOM      3  C   UNL d   1      23.125 -16.159  -0.139  0.00  0.00     0.121 C 
ATOM      4  N   UNL d   1      22.455 -17.656  -0.126  0.00  0.00    -0.373 N 
ATOM      5  C   UNL d   1      23.320 -18.447   0.837  0.00  0.00     0.121 C 
ATOM      6  C   UNL d   1      24.412 -18.935  -0.052  0.00  0.00     0.033 C 
ENDROOT
BRANCH   1   7
ATOM      7  C   UNL d   1      26.363 -17.340   0.092  0.00  0.00     0.221 C 
ATOM      8  N   UNL d   1      26.405 -16.044   0.518  0.00  0.00    -0.360 N 
ATOM      9  H   UNL d   1      25.765 -15.317   0.215  0.00  0.00     0.162 HD
ATOM     10  O   UNL d   1      27.271 -18.165   0.223  0.00  0.00    -0.273 OA
BRANCH   8  11
ATOM     11  C   UNL d   1      27.599 -15.697   1.183  0.00  0.00     0.127 C 
BRANCH  11  12
ATOM     12  C   UNL d   1      27.591 -14.334   1.830  0.00  0.00     0.058 C 
BRANCH  12  13
ATOM     13  C   UNL d   1      28.992 -13.796   1.919  0.00  0.00    -0.054 A 
ATOM     14  C   UNL d   1      29.929 -14.407   2.738  0.00  0.00     0.010 A 
ATOM     15  C   UNL d   1      31.189 -13.814   2.916  0.00  0.00     0.040 A 
ATOM     16  C   UNL d   1      31.585 -12.646   2.219  0.00  0.00     0.102 A 
ATOM     17  C   UNL d   1      30.647 -12.073   1.322  0.00  0.00     0.102 A 
ATOM     18  C   UNL d   1      29.383 -12.651   1.216  0.00  0.00     0.046 A 
BRANCH  16  19
ATOM     19  O   UNL d   1      32.939 -12.381   2.379  0.00  0.00    -0.349 OA
BRANCH  19  20
ATOM     20  C   UNL d   1      33.788 -12.276   1.237  0.00  0.00     0.171 C 
ATOM     21  C   UNL d   1      34.521 -10.967   1.058  0.00  0.00     0.034 C 
ENDBRANCH  19  20
ENDBRANCH  16  19
BRANCH  17  22
ATOM     22  O   UNL d   1      30.686 -11.016   0.413  0.00  0.00    -0.349 OA
BRANCH  22  23
ATOM     23  C   UNL d   1      30.348  -9.830   1.038  0.00  0.00     0.171 C 
ATOM     24  C   UNL d   1      31.294  -8.928   1.775  0.00  0.00     0.034 C 
ENDBRANCH  22  23
ENDBRANCH  17  22
ENDBRANCH  12  13
ENDBRANCH  11  12
ENDBRANCH   8  11
ENDBRANCH   1   7
BRANCH   4  25
ATOM     25  C   UNL d   1      21.288 -18.251  -1.194  0.00  0.00     0.401 C 
ATOM     26  N   UNL d   1      19.530 -18.577  -1.098  0.00  0.00    -0.247 NA
ATOM     27  C   UNL d   1      19.322 -19.699  -0.468  0.00  0.00     0.035 C 
ATOM     28  H   UNL d   1      19.036 -18.577  -2.020  0.00  0.00     0.131 HD
ATOM     29  C   UNL d   1      18.299 -20.449   0.419  0.00  0.00     0.024 C 
ATOM     30  C   UNL d   1      20.689 -20.090  -0.170  0.00  0.00     0.262 C 
ATOM     31  C   UNL d   1      18.635 -20.672   1.723  0.00  0.00     0.025 C 
ATOM     32  C   UNL d   1      19.871 -20.167   2.213  0.00  0.00     0.033 C 
ATOM     33 CL   UNL d   1      20.280 -20.243   3.887  0.00  0.00    -0.085 Cl
ATOM     34  C   UNL d   1      20.695 -19.804   1.280  0.00  0.00     0.047 C 
ATOM     35  N   UNL d   1      21.532 -19.704  -1.041  0.00  0.00     0.143 N 
ATOM     36  H   UNL d   1      21.477 -19.985  -2.033  0.00  0.00     0.322 HD
ENDBRANCH   4  25
TORSDOF 9
ENDMDL
