MODEL 1
REMARK VINA RESULT:    -7.789      0.000      0.000
REMARK INTER + INTRA:         -10.137
REMARK INTER:                  -8.982
REMARK INTRA:                  -1.155
REMARK CONF_INDEPENDENT:        1.193
REMARK UNBOUND:                -1.155
REMARK  4 active torsions:
REMARK  status: ('A' for Active; 'I' for Inactive)
REMARK    1  A    between atoms: C_3  and  O_4 
REMARK    2  A    between atoms: C_7  and  C_8 
REMARK    3  A    between atoms: C_12  and  C_13 
REMARK    4  A    between atoms: C_19  and  O_20 
ROOT
ATOM      1  C   UNL d   1      26.728 -16.627  -1.291  0.00  0.00     0.102 A 
ATOM      2  N   UNL d   1      28.002 -16.733  -0.891  0.00  0.00    -0.174 NA
ATOM      3  N   UNL d   1      27.958 -17.590   0.148  0.00  0.00    -0.288 N 
ATOM      4  C   UNL d   1      26.698 -18.038   0.425  0.00  0.00     0.124 A 
ATOM      5  C   UNL d   1      25.876 -17.451  -0.496  0.00  0.00     0.022 A 
ATOM      6  H   UNL d   1      28.819 -17.820   0.621  0.00  0.00     0.188 HD
ENDROOT
BRANCH   1   7
ATOM      7  C   UNL d   1      26.300 -15.763  -2.384  0.00  0.00     0.029 C 
ATOM      8  C   UNL d   1      25.083 -15.088  -2.273  0.00  0.00     0.019 C 
ATOM      9  C   UNL d   1      24.779 -14.058  -3.162  0.00  0.00     0.038 C 
ATOM     10  C   UNL d   1      25.595 -13.819  -4.268  0.00  0.00     0.074 C 
ATOM     11  C   UNL d   1      26.761 -14.563  -4.478  0.00  0.00     0.005 C 
ATOM     12  C   UNL d   1      27.624 -14.455  -5.704  0.00  0.00     0.054 C 
ATOM     13  C   UNL d   1      27.137 -15.483  -3.482  0.00  0.00     0.086 C 
BRANCH  10  14
ATOM     14  O   UNL d   1      25.156 -12.836  -5.109  0.00  0.00    -0.360 OA
ATOM     15  H   UNL d   1      24.237 -13.006  -5.359  0.00  0.00     0.217 HD
ENDBRANCH  10  14
BRANCH  13  16
ATOM     16  O   UNL d   1      28.368 -16.078  -3.641  0.00  0.00    -0.359 OA
ATOM     17  H   UNL d   1      28.739 -16.282  -2.768  0.00  0.00     0.217 HD
ENDBRANCH  13  16
ENDBRANCH   1   7
BRANCH   5  18
ATOM     18  C   UNL d   1      24.447 -17.673  -0.580  0.00  0.00    -0.022 A 
ATOM     19  C   UNL d   1      23.561 -16.616  -0.354  0.00  0.00     0.012 A 
ATOM     20  C   UNL d   1      22.190 -16.810  -0.520  0.00  0.00     0.001 A 
ATOM     21  C   UNL d   1      21.694 -18.091  -0.761  0.00  0.00     0.000 A 
ATOM     22  C   UNL d   1      22.571 -19.166  -0.895  0.00  0.00     0.001 A 
ATOM     23  C   UNL d   1      23.949 -18.950  -0.859  0.00  0.00     0.012 A 
ENDBRANCH   5  18
TORSDOF 4
ENDMDL
MODEL 2
REMARK VINA RESULT:    -7.089      1.379      1.899
REMARK INTER + INTRA:          -9.649
REMARK INTER:                  -8.282
REMARK INTRA:                  -1.368
REMARK CONF_INDEPENDENT:        1.193
REMARK UNBOUND:                -1.368
REMARK  4 active torsions:
REMARK  status: ('A' for Active; 'I' for Inactive)
REMARK    1  A    between atoms: C_3  and  O_4 
REMARK    2  A    between atoms: C_7  and  C_8 
REMARK    3  A    between atoms: C_12  and  C_13 
REMARK    4  A    between atoms: C_19  and  O_20 
ROOT
ATOM      1  C   UNL d   1      26.987 -16.514  -1.093  0.00  0.00     0.102 A 
ATOM      2  N   UNL d   1      28.236 -16.791  -0.697  0.00  0.00    -0.174 NA
ATOM      3  N   UNL d   1      28.094 -17.817   0.166  0.00  0.00    -0.288 N 
ATOM      4  C   UNL d   1      26.797 -18.208   0.333  0.00  0.00     0.124 A 
ATOM      5  C   UNL d   1      26.051 -17.400  -0.479  0.00  0.00     0.022 A 
ATOM      6  H   UNL d   1      28.921 -18.197   0.604  0.00  0.00     0.188 HD
ENDROOT
BRANCH   1   7
ATOM      7  C   UNL d   1      26.659 -15.434  -2.016  0.00  0.00     0.029 C 
ATOM      8  C   UNL d   1      25.812 -15.702  -3.093  0.00  0.00     0.019 C 
ATOM      9  C   UNL d   1      25.268 -14.646  -3.823  0.00  0.00     0.038 C 
ATOM     10  C   UNL d   1      25.703 -13.339  -3.604  0.00  0.00     0.074 C 
ATOM     11  C   UNL d   1      26.647 -13.051  -2.612  0.00  0.00     0.005 C 
ATOM     12  C   UNL d   1      27.260 -11.696  -2.396  0.00  0.00     0.054 C 
ATOM     13  C   UNL d   1      27.059 -14.106  -1.776  0.00  0.00     0.086 C 
BRANCH  10  14
ATOM     14  O   UNL d   1      25.155 -12.400  -4.430  0.00  0.00    -0.360 OA
ATOM     15  H   UNL d   1      24.284 -12.696  -4.730  0.00  0.00     0.217 HD
ENDBRANCH  10  14
BRANCH  13  16
ATOM     16  O   UNL d   1      27.861 -13.757  -0.713  0.00  0.00    -0.359 OA
ATOM     17  H   UNL d   1      28.253 -14.559  -0.333  0.00  0.00     0.217 HD
ENDBRANCH  13  16
ENDBRANCH   1   7
BRANCH   5  18
ATOM     18  C   UNL d   1      24.612 -17.489  -0.629  0.00  0.00    -0.022 A 
ATOM     19  C   UNL d   1      23.998 -18.739  -0.731  0.00  0.00     0.012 A 
ATOM     20  C   UNL d   1      22.607 -18.828  -0.786  0.00  0.00     0.001 A 
ATOM     21  C   UNL d   1      21.841 -17.668  -0.895  0.00  0.00     0.000 A 
ATOM     22  C   UNL d   1      22.459 -16.420  -0.888  0.00  0.00     0.001 A 
ATOM     23  C   UNL d   1      23.839 -16.326  -0.699  0.00  0.00     0.012 A 
ENDBRANCH   5  18
TORSDOF 4
ENDMDL
MODEL 3
REMARK VINA RESULT:    -6.802      2.453      5.250
REMARK INTER + INTRA:          -9.418
REMARK INTER:                  -7.995
REMARK INTRA:                  -1.423
REMARK CONF_INDEPENDENT:        1.193
REMARK UNBOUND:                -1.423
REMARK  4 active torsions:
REMARK  status: ('A' for Active; 'I' for Inactive)
REMARK    1  A    between atoms: C_3  and  O_4 
REMARK    2  A    between atoms: C_7  and  C_8 
REMARK    3  A    between atoms: C_12  and  C_13 
REMARK    4  A    between atoms: C_19  and  O_20 
ROOT
ATOM      1  C   UNL d   1      25.829 -17.229  -0.395  0.00  0.00     0.102 A 
ATOM      2  N   UNL d   1      26.528 -18.069   0.380  0.00  0.00    -0.174 NA
ATOM      3  N   UNL d   1      27.817 -17.766   0.126  0.00  0.00    -0.288 N 
ATOM      4  C   UNL d   1      27.966 -16.759  -0.783  0.00  0.00     0.124 A 
ATOM      5  C   UNL d   1      26.701 -16.372  -1.132  0.00  0.00     0.022 A 
ATOM      6  H   UNL d   1      28.539 -18.286   0.604  0.00  0.00     0.188 HD
ENDROOT
BRANCH   1   7
ATOM      7  C   UNL d   1      24.373 -17.228  -0.468  0.00  0.00     0.029 C 
ATOM      8  C   UNL d   1      23.714 -16.032  -0.758  0.00  0.00     0.019 C 
ATOM      9  C   UNL d   1      22.362 -16.054  -1.100  0.00  0.00     0.038 C 
ATOM     10  C   UNL d   1      21.623 -17.231  -0.979  0.00  0.00     0.074 C 
ATOM     11  C   UNL d   1      22.229 -18.423  -0.569  0.00  0.00     0.005 C 
ATOM     12  C   UNL d   1      21.484 -19.699  -0.294  0.00  0.00     0.054 C 
ATOM     13  C   UNL d   1      23.625 -18.419  -0.390  0.00  0.00     0.086 C 
BRANCH  10  14
ATOM     14  O   UNL d   1      20.295 -17.112  -1.270  0.00  0.00    -0.360 OA
ATOM     15  H   UNL d   1      20.108 -16.217  -1.589  0.00  0.00     0.217 HD
ENDBRANCH  10  14
BRANCH  13  16
ATOM     16  O   UNL d   1      24.208 -19.642  -0.146  0.00  0.00    -0.359 OA
ATOM     17  H   UNL d   1      25.173 -19.550  -0.192  0.00  0.00     0.217 HD
ENDBRANCH  13  16
ENDBRANCH   1   7
BRANCH   5  18
ATOM     18  C   UNL d   1      26.397 -15.305  -2.062  0.00  0.00    -0.022 A 
ATOM     19  C   UNL d   1      25.983 -15.608  -3.362  0.00  0.00     0.012 A 
ATOM     20  C   UNL d   1      25.607 -14.583  -4.229  0.00  0.00     0.001 A 
ATOM     21  C   UNL d   1      25.789 -13.253  -3.852  0.00  0.00     0.000 A 
ATOM     22  C   UNL d   1      26.290 -12.947  -2.588  0.00  0.00     0.001 A 
ATOM     23  C   UNL d   1      26.543 -13.970  -1.673  0.00  0.00     0.012 A 
ENDBRANCH   5  18
TORSDOF 4
ENDMDL
MODEL 4
REMARK VINA RESULT:    -6.489      2.844      6.396
REMARK INTER + INTRA:          -8.934
REMARK INTER:                  -7.682
REMARK INTRA:                  -1.251
REMARK CONF_INDEPENDENT:        1.193
REMARK UNBOUND:                -1.251
REMARK  4 active torsions:
REMARK  status: ('A' for Active; 'I' for Inactive)
REMARK    1  A    between atoms: C_3  and  O_4 
REMARK    2  A    between atoms: C_7  and  C_8 
REMARK    3  A    between atoms: C_12  and  C_13 
REMARK    4  A    between atoms: C_19  and  O_20 
ROOT
ATOM      1  C   UNL d   1      25.438 -14.983  -3.105  0.00  0.00     0.102 A 
ATOM      2  N   UNL d   1      24.229 -14.450  -3.321  0.00  0.00    -0.174 NA
ATOM      3  N   UNL d   1      24.438 -13.517  -4.271  0.00  0.00    -0.288 N 
ATOM      4  C   UNL d   1      25.740 -13.437  -4.672  0.00  0.00     0.124 A 
ATOM      5  C   UNL d   1      26.417 -14.383  -3.953  0.00  0.00     0.022 A 
ATOM      6  H   UNL d   1      23.651 -12.972  -4.594  0.00  0.00     0.188 HD
ENDROOT
BRANCH   1   7
ATOM      7  C   UNL d   1      25.691 -16.024  -2.116  0.00  0.00     0.029 C 
ATOM      8  C   UNL d   1      27.012 -16.326  -1.778  0.00  0.00     0.019 C 
ATOM      9  C   UNL d   1      27.276 -17.109  -0.656  0.00  0.00     0.038 C 
ATOM     10  C   UNL d   1      26.235 -17.741   0.024  0.00  0.00     0.074 C 
ATOM     11  C   UNL d   1      24.904 -17.558  -0.367  0.00  0.00     0.005 C 
ATOM     12  C   UNL d   1      23.738 -18.297   0.230  0.00  0.00     0.054 C 
ATOM     13  C   UNL d   1      24.646 -16.633  -1.396  0.00  0.00     0.086 C 
BRANCH  10  14
ATOM     14  O   UNL d   1      26.622 -18.541   1.060  0.00  0.00    -0.360 OA
ATOM     15  H   UNL d   1      27.585 -18.516   1.151  0.00  0.00     0.217 HD
ENDBRANCH  10  14
BRANCH  13  16
ATOM     16  O   UNL d   1      23.320 -16.358  -1.644  0.00  0.00    -0.359 OA
ATOM     17  H   UNL d   1      23.218 -15.407  -1.811  0.00  0.00     0.217 HD
ENDBRANCH  13  16
ENDBRANCH   1   7
BRANCH   5  18
ATOM     18  C   UNL d   1      27.833 -14.656  -4.086  0.00  0.00    -0.022 A 
ATOM     19  C   UNL d   1      28.281 -15.575  -5.037  0.00  0.00     0.012 A 
ATOM     20  C   UNL d   1      29.649 -15.773  -5.223  0.00  0.00     0.001 A 
ATOM     21  C   UNL d   1      30.562 -15.170  -4.359  0.00  0.00     0.000 A 
ATOM     22  C   UNL d   1      30.112 -14.324  -3.347  0.00  0.00     0.001 A 
ATOM     23  C   UNL d   1      28.753 -14.023  -3.244  0.00  0.00     0.012 A 
ENDBRANCH   5  18
TORSDOF 4
ENDMDL
MODEL 5
REMARK VINA RESULT:    -6.430      2.521      4.244
REMARK INTER + INTRA:          -8.850
REMARK INTER:                  -7.623
REMARK INTRA:                  -1.227
REMARK CONF_INDEPENDENT:        1.193
REMARK UNBOUND:                -1.227
REMARK  4 active torsions:
REMARK  status: ('A' for Active; 'I' for Inactive)
REMARK    1  A    between atoms: C_3  and  O_4 
REMARK    2  A    between atoms: C_7  and  C_8 
REMARK    3  A    between atoms: C_12  and  C_13 
REMARK    4  A    between atoms: C_19  and  O_20 
ROOT
ATOM      1  C   UNL d   1      26.489 -14.579  -3.737  0.00  0.00     0.102 A 
ATOM      2  N   UNL d   1      26.144 -13.529  -4.494  0.00  0.00    -0.174 NA
ATOM      3  N   UNL d   1      24.882 -13.244  -4.119  0.00  0.00    -0.288 N 
ATOM      4  C   UNL d   1      24.407 -14.075  -3.145  0.00  0.00     0.124 A 
ATOM      5  C   UNL d   1      25.425 -14.942  -2.858  0.00  0.00     0.022 A 
ATOM      6  H   UNL d   1      24.405 -12.476  -4.569  0.00  0.00     0.188 HD
ENDROOT
BRANCH   1   7
ATOM      7  C   UNL d   1      27.780 -15.249  -3.835  0.00  0.00     0.029 C 
ATOM      8  C   UNL d   1      28.395 -15.700  -2.666  0.00  0.00     0.019 C 
ATOM      9  C   UNL d   1      29.479 -16.573  -2.748  0.00  0.00     0.038 C 
ATOM     10  C   UNL d   1      30.065 -16.855  -3.982  0.00  0.00     0.074 C 
ATOM     11  C   UNL d   1      29.547 -16.318  -5.165  0.00  0.00     0.005 C 
ATOM     12  C   UNL d   1      30.190 -16.469  -6.515  0.00  0.00     0.054 C 
ATOM     13  C   UNL d   1      28.355 -15.575  -5.078  0.00  0.00     0.086 C 
BRANCH  10  14
ATOM     14  O   UNL d   1      31.165 -17.662  -3.929  0.00  0.00    -0.360 OA
ATOM     15  H   UNL d   1      31.744 -17.380  -3.206  0.00  0.00     0.217 HD
ENDBRANCH  10  14
BRANCH  13  16
ATOM     16  O   UNL d   1      27.787 -15.200  -6.275  0.00  0.00    -0.359 OA
ATOM     17  H   UNL d   1      27.262 -14.395  -6.140  0.00  0.00     0.217 HD
ENDBRANCH  13  16
ENDBRANCH   1   7
BRANCH   5  18
ATOM     18  C   UNL d   1      25.356 -15.985  -1.855  0.00  0.00    -0.022 A 
ATOM     19  C   UNL d   1      24.406 -17.002  -1.969  0.00  0.00     0.012 A 
ATOM     20  C   UNL d   1      24.397 -18.052  -1.051  0.00  0.00     0.001 A 
ATOM     21  C   UNL d   1      25.233 -18.007   0.064  0.00  0.00     0.000 A 
ATOM     22  C   UNL d   1      26.119 -16.944   0.230  0.00  0.00     0.001 A 
ATOM     23  C   UNL d   1      26.221 -15.961  -0.756  0.00  0.00     0.012 A 
ENDBRANCH   5  18
TORSDOF 4
ENDMDL
MODEL 6
REMARK VINA RESULT:    -6.399      3.398      6.153
REMARK INTER + INTRA:          -8.956
REMARK INTER:                  -7.592
REMARK INTRA:                  -1.364
REMARK CONF_INDEPENDENT:        1.193
REMARK UNBOUND:                -1.364
REMARK  4 active torsions:
REMARK  status: ('A' for Active; 'I' for Inactive)
REMARK    1  A    between atoms: C_3  and  O_4 
REMARK    2  A    between atoms: C_7  and  C_8 
REMARK    3  A    between atoms: C_12  and  C_13 
REMARK    4  A    between atoms: C_19  and  O_20 
ROOT
ATOM      1  C   UNL d   1      25.535 -14.795  -2.709  0.00  0.00     0.102 A 
ATOM      2  N   UNL d   1      24.780 -14.824  -3.815  0.00  0.00    -0.174 NA
ATOM      3  N   UNL d   1      24.782 -13.551  -4.256  0.00  0.00    -0.288 N 
ATOM      4  C   UNL d   1      25.515 -12.708  -3.471  0.00  0.00     0.124 A 
ATOM      5  C   UNL d   1      26.033 -13.479  -2.468  0.00  0.00     0.022 A 
ATOM      6  H   UNL d   1      24.262 -13.328  -5.093  0.00  0.00     0.188 HD
ENDROOT
BRANCH   1   7
ATOM      7  C   UNL d   1      25.780 -15.965  -1.874  0.00  0.00     0.029 C 
ATOM      8  C   UNL d   1      27.097 -16.302  -1.557  0.00  0.00     0.019 C 
ATOM      9  C   UNL d   1      27.348 -17.236  -0.553  0.00  0.00     0.038 C 
ATOM     10  C   UNL d   1      26.301 -17.967   0.009  0.00  0.00     0.074 C 
ATOM     11  C   UNL d   1      24.976 -17.740  -0.379  0.00  0.00     0.005 C 
ATOM     12  C   UNL d   1      23.808 -18.566   0.082  0.00  0.00     0.054 C 
ATOM     13  C   UNL d   1      24.728 -16.679  -1.270  0.00  0.00     0.086 C 
BRANCH  10  14
ATOM     14  O   UNL d   1      26.678 -18.904   0.927  0.00  0.00    -0.360 OA
ATOM     15  H   UNL d   1      27.634 -19.045   0.879  0.00  0.00     0.217 HD
ENDBRANCH  10  14
BRANCH  13  16
ATOM     16  O   UNL d   1      23.404 -16.382  -1.502  0.00  0.00    -0.359 OA
ATOM     17  H   UNL d   1      23.338 -15.823  -2.293  0.00  0.00     0.217 HD
ENDBRANCH  13  16
ENDBRANCH   1   7
BRANCH   5  18
ATOM     18  C   UNL d   1      26.900 -12.986  -1.418  0.00  0.00    -0.022 A 
ATOM     19  C   UNL d   1      26.655 -13.336  -0.088  0.00  0.00     0.012 A 
ATOM     20  C   UNL d   1      27.540 -12.933   0.912  0.00  0.00     0.001 A 
ATOM     21  C   UNL d   1      28.580 -12.055   0.607  0.00  0.00     0.000 A 
ATOM     22  C   UNL d   1      28.771 -11.628  -0.706  0.00  0.00     0.001 A 
ATOM     23  C   UNL d   1      27.966 -12.136  -1.728  0.00  0.00     0.012 A 
ENDBRANCH   5  18
TORSDOF 4
ENDMDL
MODEL 7
REMARK VINA RESULT:    -6.241      1.647      1.960
REMARK INTER + INTRA:          -8.801
REMARK INTER:                  -7.434
REMARK INTRA:                  -1.367
REMARK CONF_INDEPENDENT:        1.193
REMARK UNBOUND:                -1.367
REMARK  4 active torsions:
REMARK  status: ('A' for Active; 'I' for Inactive)
REMARK    1  A    between atoms: C_3  and  O_4 
REMARK    2  A    between atoms: C_7  and  C_8 
REMARK    3  A    between atoms: C_12  and  C_13 
REMARK    4  A    between atoms: C_19  and  O_20 
ROOT
ATOM      1  C   UNL d   1      27.871 -15.865  -0.985  0.00  0.00     0.102 A 
ATOM      2  N   UNL d   1      28.969 -15.494  -0.313  0.00  0.00    -0.174 NA
ATOM      3  N   UNL d   1      28.662 -15.715   0.980  0.00  0.00    -0.288 N 
ATOM      4  C   UNL d   1      27.405 -16.218   1.159  0.00  0.00     0.124 A 
ATOM      5  C   UNL d   1      26.867 -16.346  -0.092  0.00  0.00     0.022 A 
ATOM      6  H   UNL d   1      29.352 -15.499   1.685  0.00  0.00     0.188 HD
ENDROOT
BRANCH   1   7
ATOM      7  C   UNL d   1      27.745 -15.761  -2.434  0.00  0.00     0.029 C 
ATOM      8  C   UNL d   1      26.579 -15.211  -2.971  0.00  0.00     0.019 C 
ATOM      9  C   UNL d   1      26.542 -14.851  -4.317  0.00  0.00     0.038 C 
ATOM     10  C   UNL d   1      27.589 -15.200  -5.170  0.00  0.00     0.074 C 
ATOM     11  C   UNL d   1      28.721 -15.865  -4.686  0.00  0.00     0.005 C 
ATOM     12  C   UNL d   1      29.831 -16.386  -5.554  0.00  0.00     0.054 C 
ATOM     13  C   UNL d   1      28.814 -16.071  -3.297  0.00  0.00     0.086 C 
BRANCH  10  14
ATOM     14  O   UNL d   1      27.406 -14.861  -6.479  0.00  0.00    -0.360 OA
ATOM     15  H   UNL d   1      28.262 -14.681  -6.894  0.00  0.00     0.217 HD
ENDBRANCH  10  14
BRANCH  13  16
ATOM     16  O   UNL d   1      30.008 -16.579  -2.839  0.00  0.00    -0.359 OA
ATOM     17  H   UNL d   1      30.094 -16.387  -1.891  0.00  0.00     0.217 HD
ENDBRANCH  13  16
ENDBRANCH   1   7
BRANCH   5  18
ATOM     18  C   UNL d   1      25.545 -16.870  -0.367  0.00  0.00    -0.022 A 
ATOM     19  C   UNL d   1      24.526 -16.011  -0.786  0.00  0.00     0.012 A 
ATOM     20  C   UNL d   1      23.279 -16.529  -1.134  0.00  0.00     0.001 A 
ATOM     21  C   UNL d   1      23.003 -17.878  -0.919  0.00  0.00     0.000 A 
ATOM     22  C   UNL d   1      23.990 -18.721  -0.412  0.00  0.00     0.001 A 
ATOM     23  C   UNL d   1      25.277 -18.231  -0.188  0.00  0.00     0.012 A 
ENDBRANCH   5  18
TORSDOF 4
ENDMDL
MODEL 8
REMARK VINA RESULT:    -5.942      2.413      3.950
REMARK INTER + INTRA:          -8.320
REMARK INTER:                  -7.135
REMARK INTRA:                  -1.185
REMARK CONF_INDEPENDENT:        1.193
REMARK UNBOUND:                -1.185
REMARK  4 active torsions:
REMARK  status: ('A' for Active; 'I' for Inactive)
REMARK    1  A    between atoms: C_3  and  O_4 
REMARK    2  A    between atoms: C_7  and  C_8 
REMARK    3  A    between atoms: C_12  and  C_13 
REMARK    4  A    between atoms: C_19  and  O_20 
ROOT
ATOM      1  C   UNL d   1      26.080 -14.703  -2.450  0.00  0.00     0.102 A 
ATOM      2  N   UNL d   1      26.061 -13.645  -3.271  0.00  0.00    -0.174 NA
ATOM      3  N   UNL d   1      24.766 -13.512  -3.618  0.00  0.00    -0.288 N 
ATOM      4  C   UNL d   1      23.954 -14.448  -3.044  0.00  0.00     0.124 A 
ATOM      5  C   UNL d   1      24.766 -15.227  -2.266  0.00  0.00     0.022 A 
ATOM      6  H   UNL d   1      24.508 -12.767  -4.249  0.00  0.00     0.188 HD
ENDROOT
BRANCH   1   7
ATOM      7  C   UNL d   1      27.300 -15.234  -1.854  0.00  0.00     0.029 C 
ATOM      8  C   UNL d   1      27.390 -15.315  -0.463  0.00  0.00     0.019 C 
ATOM      9  C   UNL d   1      28.414 -16.060   0.120  0.00  0.00     0.038 C 
ATOM     10  C   UNL d   1      29.449 -16.572  -0.663  0.00  0.00     0.074 C 
ATOM     11  C   UNL d   1      29.453 -16.401  -2.052  0.00  0.00     0.005 C 
ATOM     12  C   UNL d   1      30.586 -16.809  -2.951  0.00  0.00     0.054 C 
ATOM     13  C   UNL d   1      28.328 -15.792  -2.638  0.00  0.00     0.086 C 
BRANCH  10  14
ATOM     14  O   UNL d   1      30.432 -17.218   0.028  0.00  0.00    -0.360 OA
ATOM     15  H   UNL d   1      30.266 -17.148   0.979  0.00  0.00     0.217 HD
ENDBRANCH  10  14
BRANCH  13  16
ATOM     16  O   UNL d   1      28.292 -15.786  -4.015  0.00  0.00    -0.359 OA
ATOM     17  H   UNL d   1      27.756 -15.035  -4.316  0.00  0.00     0.217 HD
ENDBRANCH  13  16
ENDBRANCH   1   7
BRANCH   5  18
ATOM     18  C   UNL d   1      24.306 -16.336  -1.454  0.00  0.00    -0.022 A 
ATOM     19  C   UNL d   1      23.031 -16.303  -0.886  0.00  0.00     0.012 A 
ATOM     20  C   UNL d   1      22.556 -17.407  -0.178  0.00  0.00     0.001 A 
ATOM     21  C   UNL d   1      23.408 -18.477   0.092  0.00  0.00     0.000 A 
ATOM     22  C   UNL d   1      24.714 -18.471  -0.395  0.00  0.00     0.001 A 
ATOM     23  C   UNL d   1      25.147 -17.427  -1.215  0.00  0.00     0.012 A 
ENDBRANCH   5  18
TORSDOF 4
ENDMDL
MODEL 9
REMARK VINA RESULT:    -5.808      3.398      4.683
REMARK INTER + INTRA:          -8.373
REMARK INTER:                  -7.001
REMARK INTRA:                  -1.371
REMARK CONF_INDEPENDENT:        1.193
REMARK UNBOUND:                -1.371
REMARK  4 active torsions:
REMARK  status: ('A' for Active; 'I' for Inactive)
REMARK    1  A    between atoms: C_3  and  O_4 
REMARK    2  A    between atoms: C_7  and  C_8 
REMARK    3  A    between atoms: C_12  and  C_13 
REMARK    4  A    between atoms: C_19  and  O_20 
ROOT
ATOM      1  C   UNL d   1      26.510 -14.649  -1.645  0.00  0.00     0.102 A 
ATOM      2  N   UNL d   1      27.044 -13.924  -2.637  0.00  0.00    -0.174 NA
ATOM      3  N   UNL d   1      26.435 -14.380  -3.750  0.00  0.00    -0.288 N 
ATOM      4  C   UNL d   1      25.529 -15.370  -3.504  0.00  0.00     0.124 A 
ATOM      5  C   UNL d   1      25.535 -15.561  -2.149  0.00  0.00     0.022 A 
ATOM      6  H   UNL d   1      26.689 -13.974  -4.640  0.00  0.00     0.188 HD
ENDROOT
BRANCH   1   7
ATOM      7  C   UNL d   1      26.907 -14.512  -0.249  0.00  0.00     0.029 C 
ATOM      8  C   UNL d   1      27.144 -15.666   0.501  0.00  0.00     0.019 C 
ATOM      9  C   UNL d   1      27.780 -15.569   1.737  0.00  0.00     0.038 C 
ATOM     10  C   UNL d   1      28.019 -14.320   2.311  0.00  0.00     0.074 C 
ATOM     11  C   UNL d   1      27.680 -13.142   1.638  0.00  0.00     0.005 C 
ATOM     12  C   UNL d   1      27.788 -11.766   2.235  0.00  0.00     0.054 C 
ATOM     13  C   UNL d   1      27.193 -13.257   0.323  0.00  0.00     0.086 C 
BRANCH  10  14
ATOM     14  O   UNL d   1      28.579 -14.354   3.556  0.00  0.00    -0.360 OA
ATOM     15  H   UNL d   1      28.967 -15.225   3.717  0.00  0.00     0.217 HD
ENDBRANCH  10  14
BRANCH  13  16
ATOM     16  O   UNL d   1      27.023 -12.077  -0.365  0.00  0.00    -0.359 OA
ATOM     17  H   UNL d   1      27.211 -12.227  -1.306  0.00  0.00     0.217 HD
ENDBRANCH  13  16
ENDBRANCH   1   7
BRANCH   5  18
ATOM     18  C   UNL d   1      24.695 -16.512  -1.450  0.00  0.00    -0.022 A 
ATOM     19  C   UNL d   1      23.336 -16.242  -1.269  0.00  0.00     0.012 A 
ATOM     20  C   UNL d   1      22.511 -17.196  -0.674  0.00  0.00     0.001 A 
ATOM     21  C   UNL d   1      23.068 -18.350  -0.124  0.00  0.00     0.000 A 
ATOM     22  C   UNL d   1      24.439 -18.578  -0.221  0.00  0.00     0.001 A 
ATOM     23  C   UNL d   1      25.246 -17.687  -0.931  0.00  0.00     0.012 A 
ENDBRANCH   5  18
TORSDOF 4
ENDMDL
