MODEL 1
REMARK VINA RESULT:    -7.663      0.000      0.000
REMARK INTER + INTRA:         -11.560
REMARK INTER:                 -10.050
REMARK INTRA:                  -1.510
REMARK CONF_INDEPENDENT:        2.386
REMARK UNBOUND:                -1.510
REMARK  8 active torsions:
REMARK  status: ('A' for Active; 'I' for Inactive)
REMARK    1  A    between atoms: C_2  and  C_3 
REMARK    2  A    between atoms: C_3  and  N_4 
REMARK    3  A    between atoms: C_3  and  C_20 
REMARK       I    between atoms: N_4  and  C_5 
REMARK       I    between atoms: C_5  and  N_7 
REMARK    4  A    between atoms: N_7  and  N_8 
REMARK       I    between atoms: N_8  and  C_9 
REMARK    5  A    between atoms: C_9  and  C_11 
REMARK    6  A    between atoms: C_11  and  C_12 
REMARK    7  A    between atoms: C_12  and  O_13 
REMARK    8  A    between atoms: O_13  and  C_14 
ROOT
ATOM      1  N   UNL d   1      24.255 -16.371  -1.730  0.00  0.00    -0.266 N 
ATOM      2  C   UNL d   1      24.144 -17.310  -0.716  0.00  0.00     0.238 C 
ATOM      3  O   UNL d   1      25.133 -17.905  -0.283  0.00  0.00    -0.272 OA
ATOM      4  H   UNL d   1      23.474 -15.845  -2.121  0.00  0.00     0.190 HD
ENDROOT
BRANCH   1   5
ATOM      5  N   UNL d   1      25.534 -16.134  -2.352  0.00  0.00    -0.249 N 
ATOM      6  C   UNL d   1      25.619 -15.128  -3.304  0.00  0.00     0.335 C 
ATOM      7  N   UNL d   1      26.826 -15.069  -3.986  0.00  0.00    -0.337 N 
ATOM      8  O   UNL d   1      24.634 -14.443  -3.584  0.00  0.00    -0.246 OA
ATOM      9  H   UNL d   1      27.631 -15.494  -3.551  0.00  0.00     0.164 HD
ATOM     10  H   UNL d   1      26.341 -16.456  -1.825  0.00  0.00     0.192 HD
BRANCH   7  11
ATOM     11  C   UNL d   1      27.039 -14.276  -5.236  0.00  0.00     0.089 C 
BRANCH  11  12
ATOM     12  C   UNL d   1      28.244 -14.825  -6.047  0.00  0.00     0.021 C 
ATOM     13  C   UNL d   1      28.624 -13.991  -7.251  0.00  0.00     0.007 C 
ENDBRANCH  11  12
BRANCH  11  14
ATOM     14  C   UNL d   1      27.288 -12.745  -4.966  0.00  0.00     0.000 C 
ATOM     15  C   UNL d   1      26.088 -11.857  -5.368  0.00  0.00     0.011 C 
ATOM     16  C   UNL d   1      27.594 -12.464  -3.494  0.00  0.00     0.011 C 
ENDBRANCH  11  14
ENDBRANCH   7  11
ENDBRANCH   1   5
BRANCH   2  17
ATOM     17  C   UNL d   1      22.732 -17.564  -0.175  0.00  0.00     0.131 C 
BRANCH  17  18
ATOM     18  C   UNL d   1      22.038 -18.708  -0.943  0.00  0.00     0.185 C 
BRANCH  18  19
ATOM     19  O   UNL d   1      20.608 -18.551  -0.893  0.00  0.00    -0.351 OA
BRANCH  19  20
ATOM     20  C   UNL d   1      19.959 -19.395  -0.020  0.00  0.00     0.068 A 
ATOM     21  C   UNL d   1      18.843 -20.074  -0.520  0.00  0.00     0.037 A 
ATOM     22  C   UNL d   1      18.057 -20.875   0.317  0.00  0.00     0.003 A 
ATOM     23  C   UNL d   1      18.406 -21.038   1.655  0.00  0.00     0.000 A 
ATOM     24  C   UNL d   1      19.511 -20.358   2.165  0.00  0.00     0.003 A 
ATOM     25  C   UNL d   1      20.276 -19.526   1.333  0.00  0.00     0.037 A 
ENDBRANCH  19  20
ENDBRANCH  18  19
ENDBRANCH  17  18
ENDBRANCH   2  17
TORSDOF 8
ENDMDL
MODEL 2
REMARK VINA RESULT:    -7.413      0.847      2.094
REMARK INTER + INTRA:         -11.374
REMARK INTER:                  -9.800
REMARK INTRA:                  -1.574
REMARK CONF_INDEPENDENT:        2.386
REMARK UNBOUND:                -1.574
REMARK  8 active torsions:
REMARK  status: ('A' for Active; 'I' for Inactive)
REMARK    1  A    between atoms: C_2  and  C_3 
REMARK    2  A    between atoms: C_3  and  N_4 
REMARK    3  A    between atoms: C_3  and  C_20 
REMARK       I    between atoms: N_4  and  C_5 
REMARK       I    between atoms: C_5  and  N_7 
REMARK    4  A    between atoms: N_7  and  N_8 
REMARK       I    between atoms: N_8  and  C_9 
REMARK    5  A    between atoms: C_9  and  C_11 
REMARK    6  A    between atoms: C_11  and  C_12 
REMARK    7  A    between atoms: C_12  and  O_13 
REMARK    8  A    between atoms: O_13  and  C_14 
ROOT
ATOM      1  N   UNL d   1      24.738 -16.955  -2.038  0.00  0.00    -0.266 N 
ATOM      2  C   UNL d   1      24.404 -17.575  -0.844  0.00  0.00     0.238 C 
ATOM      3  O   UNL d   1      24.893 -17.210   0.227  0.00  0.00    -0.272 OA
ATOM      4  H   UNL d   1      24.360 -17.210  -2.949  0.00  0.00     0.190 HD
ENDROOT
BRANCH   1   5
ATOM      5  N   UNL d   1      25.736 -15.915  -2.051  0.00  0.00    -0.249 N 
ATOM      6  C   UNL d   1      25.880 -15.164  -3.210  0.00  0.00     0.335 C 
ATOM      7  N   UNL d   1      26.969 -14.303  -3.217  0.00  0.00    -0.337 N 
ATOM      8  O   UNL d   1      25.155 -15.369  -4.184  0.00  0.00    -0.246 OA
ATOM      9  H   UNL d   1      27.359 -14.033  -2.326  0.00  0.00     0.164 HD
ATOM     10  H   UNL d   1      26.014 -15.566  -1.137  0.00  0.00     0.192 HD
BRANCH   7  11
ATOM     11  C   UNL d   1      27.487 -13.626  -4.445  0.00  0.00     0.089 C 
BRANCH  11  12
ATOM     12  C   UNL d   1      26.433 -12.649  -5.031  0.00  0.00     0.021 C 
ATOM     13  C   UNL d   1      26.053 -11.508  -4.113  0.00  0.00     0.007 C 
ENDBRANCH  11  12
BRANCH  11  14
ATOM     14  C   UNL d   1      27.906 -14.632  -5.581  0.00  0.00     0.000 C 
ATOM     15  C   UNL d   1      28.526 -13.931  -6.812  0.00  0.00     0.011 C 
ATOM     16  C   UNL d   1      28.916 -15.669  -5.086  0.00  0.00     0.011 C 
ENDBRANCH  11  14
ENDBRANCH   7  11
ENDBRANCH   1   5
BRANCH   2  17
ATOM     17  C   UNL d   1      23.402 -18.733  -0.935  0.00  0.00     0.131 C 
BRANCH  17  18
ATOM     18  C   UNL d   1      21.948 -18.216  -0.896  0.00  0.00     0.185 C 
BRANCH  18  19
ATOM     19  O   UNL d   1      21.028 -19.282  -1.193  0.00  0.00    -0.351 OA
BRANCH  19  20
ATOM     20  C   UNL d   1      20.218 -19.662  -0.147  0.00  0.00     0.068 A 
ATOM     21  C   UNL d   1      20.655 -19.325   1.138  0.00  0.00     0.037 A 
ATOM     22  C   UNL d   1      19.953 -19.756   2.270  0.00  0.00     0.003 A 
ATOM     23  C   UNL d   1      18.781 -20.494   2.125  0.00  0.00     0.000 A 
ATOM     24  C   UNL d   1      18.343 -20.843   0.848  0.00  0.00     0.003 A 
ATOM     25  C   UNL d   1      19.067 -20.442  -0.284  0.00  0.00     0.037 A 
ENDBRANCH  19  20
ENDBRANCH  18  19
ENDBRANCH  17  18
ENDBRANCH   2  17
TORSDOF 8
ENDMDL
MODEL 3
REMARK VINA RESULT:    -7.110      1.416      2.008
REMARK INTER + INTRA:         -10.944
REMARK INTER:                  -9.496
REMARK INTRA:                  -1.448
REMARK CONF_INDEPENDENT:        2.386
REMARK UNBOUND:                -1.448
REMARK  8 active torsions:
REMARK  status: ('A' for Active; 'I' for Inactive)
REMARK    1  A    between atoms: C_2  and  C_3 
REMARK    2  A    between atoms: C_3  and  N_4 
REMARK    3  A    between atoms: C_3  and  C_20 
REMARK       I    between atoms: N_4  and  C_5 
REMARK       I    between atoms: C_5  and  N_7 
REMARK    4  A    between atoms: N_7  and  N_8 
REMARK       I    between atoms: N_8  and  C_9 
REMARK    5  A    between atoms: C_9  and  C_11 
REMARK    6  A    between atoms: C_11  and  C_12 
REMARK    7  A    between atoms: C_12  and  O_13 
REMARK    8  A    between atoms: O_13  and  C_14 
ROOT
ATOM      1  N   UNL d   1      24.467 -16.177  -2.110  0.00  0.00    -0.266 N 
ATOM      2  C   UNL d   1      23.621 -16.653  -1.120  0.00  0.00     0.238 C 
ATOM      3  O   UNL d   1      22.717 -15.954  -0.658  0.00  0.00    -0.272 OA
ATOM      4  H   UNL d   1      25.224 -16.713  -2.532  0.00  0.00     0.190 HD
ENDROOT
BRANCH   1   5
ATOM      5  N   UNL d   1      24.349 -14.813  -2.559  0.00  0.00    -0.249 N 
ATOM      6  C   UNL d   1      25.011 -14.450  -3.723  0.00  0.00     0.335 C 
ATOM      7  N   UNL d   1      25.001 -13.090  -4.002  0.00  0.00    -0.337 N 
ATOM      8  O   UNL d   1      25.656 -15.281  -4.364  0.00  0.00    -0.246 OA
ATOM      9  H   UNL d   1      24.280 -12.529  -3.574  0.00  0.00     0.164 HD
ATOM     10  H   UNL d   1      23.536 -14.309  -2.214  0.00  0.00     0.192 HD
BRANCH   7  11
ATOM     11  C   UNL d   1      25.882 -12.442  -5.022  0.00  0.00     0.089 C 
BRANCH  11  12
ATOM     12  C   UNL d   1      27.343 -12.953  -4.903  0.00  0.00     0.021 C 
ATOM     13  C   UNL d   1      27.796 -13.837  -6.044  0.00  0.00     0.007 C 
ENDBRANCH  11  12
BRANCH  11  14
ATOM     14  C   UNL d   1      25.903 -10.872  -4.919  0.00  0.00     0.000 C 
ATOM     15  C   UNL d   1      26.033 -10.362  -3.466  0.00  0.00     0.011 C 
ATOM     16  C   UNL d   1      27.050 -10.260  -5.725  0.00  0.00     0.011 C 
ENDBRANCH  11  14
ENDBRANCH   7  11
ENDBRANCH   1   5
BRANCH   2  17
ATOM     17  C   UNL d   1      23.876 -18.087  -0.638  0.00  0.00     0.131 C 
BRANCH  17  18
ATOM     18  C   UNL d   1      22.568 -18.906  -0.608  0.00  0.00     0.185 C 
BRANCH  18  19
ATOM     19  O   UNL d   1      21.865 -18.681   0.628  0.00  0.00    -0.351 OA
BRANCH  19  20
ATOM     20  C   UNL d   1      20.655 -19.330   0.737  0.00  0.00     0.068 A 
ATOM     21  C   UNL d   1      20.257 -19.698   2.026  0.00  0.00     0.037 A 
ATOM     22  C   UNL d   1      19.094 -20.450   2.229  0.00  0.00     0.003 A 
ATOM     23  C   UNL d   1      18.295 -20.805   1.146  0.00  0.00     0.000 A 
ATOM     24  C   UNL d   1      18.689 -20.451  -0.144  0.00  0.00     0.003 A 
ATOM     25  C   UNL d   1      19.874 -19.729  -0.350  0.00  0.00     0.037 A 
ENDBRANCH  19  20
ENDBRANCH  18  19
ENDBRANCH  17  18
ENDBRANCH   2  17
TORSDOF 8
ENDMDL
MODEL 4
REMARK VINA RESULT:    -6.700      3.954      4.728
REMARK INTER + INTRA:         -10.599
REMARK INTER:                  -9.086
REMARK INTRA:                  -1.513
REMARK CONF_INDEPENDENT:        2.386
REMARK UNBOUND:                -1.513
REMARK  8 active torsions:
REMARK  status: ('A' for Active; 'I' for Inactive)
REMARK    1  A    between atoms: C_2  and  C_3 
REMARK    2  A    between atoms: C_3  and  N_4 
REMARK    3  A    between atoms: C_3  and  C_20 
REMARK       I    between atoms: N_4  and  C_5 
REMARK       I    between atoms: C_5  and  N_7 
REMARK    4  A    between atoms: N_7  and  N_8 
REMARK       I    between atoms: N_8  and  C_9 
REMARK    5  A    between atoms: C_9  and  C_11 
REMARK    6  A    between atoms: C_11  and  C_12 
REMARK    7  A    between atoms: C_12  and  O_13 
REMARK    8  A    between atoms: O_13  and  C_14 
ROOT
ATOM      1  N   UNL d   1      25.439 -16.704  -0.323  0.00  0.00    -0.266 N 
ATOM      2  C   UNL d   1      24.840 -17.948  -0.444  0.00  0.00     0.238 C 
ATOM      3  O   UNL d   1      25.316 -18.944   0.104  0.00  0.00    -0.272 OA
ATOM      4  H   UNL d   1      25.086 -15.847  -0.748  0.00  0.00     0.190 HD
ENDROOT
BRANCH   1   5
ATOM      5  N   UNL d   1      26.687 -16.574   0.386  0.00  0.00    -0.249 N 
ATOM      6  C   UNL d   1      27.059 -15.311   0.824  0.00  0.00     0.335 C 
ATOM      7  N   UNL d   1      28.345 -15.227   1.342  0.00  0.00    -0.337 N 
ATOM      8  O   UNL d   1      26.327 -14.339   0.632  0.00  0.00    -0.246 OA
ATOM      9  H   UNL d   1      28.775 -16.079   1.669  0.00  0.00     0.164 HD
ATOM     10  H   UNL d   1      27.032 -17.426   0.821  0.00  0.00     0.192 HD
BRANCH   7  11
ATOM     11  C   UNL d   1      29.057 -13.938   1.597  0.00  0.00     0.089 C 
BRANCH  11  12
ATOM     12  C   UNL d   1      30.580 -14.170   1.793  0.00  0.00     0.021 C 
ATOM     13  C   UNL d   1      31.169 -15.255   0.919  0.00  0.00     0.007 C 
ENDBRANCH  11  12
BRANCH  11  14
ATOM     14  C   UNL d   1      28.514 -13.165   2.856  0.00  0.00     0.000 C 
ATOM     15  C   UNL d   1      27.396 -12.154   2.511  0.00  0.00     0.011 C 
ATOM     16  C   UNL d   1      27.962 -14.116   3.919  0.00  0.00     0.011 C 
ENDBRANCH  11  14
ENDBRANCH   7  11
ENDBRANCH   1   5
BRANCH   2  17
ATOM     17  C   UNL d   1      23.564 -18.010  -1.293  0.00  0.00     0.131 C 
BRANCH  17  18
ATOM     18  C   UNL d   1      22.306 -17.809  -0.423  0.00  0.00     0.185 C 
BRANCH  18  19
ATOM     19  O   UNL d   1      21.134 -18.273  -1.119  0.00  0.00    -0.351 OA
BRANCH  19  20
ATOM     20  C   UNL d   1      20.289 -19.066  -0.376  0.00  0.00     0.068 A 
ATOM     21  C   UNL d   1      20.673 -19.326   0.943  0.00  0.00     0.037 A 
ATOM     22  C   UNL d   1      19.933 -20.202   1.745  0.00  0.00     0.003 A 
ATOM     23  C   UNL d   1      18.775 -20.794   1.248  0.00  0.00     0.000 A 
ATOM     24  C   UNL d   1      18.390 -20.549  -0.069  0.00  0.00     0.003 A 
ATOM     25  C   UNL d   1      19.153 -19.700  -0.885  0.00  0.00     0.037 A 
ENDBRANCH  19  20
ENDBRANCH  18  19
ENDBRANCH  17  18
ENDBRANCH   2  17
TORSDOF 8
ENDMDL
MODEL 5
REMARK VINA RESULT:    -6.420      3.922      4.347
REMARK INTER + INTRA:         -10.333
REMARK INTER:                  -8.806
REMARK INTRA:                  -1.526
REMARK CONF_INDEPENDENT:        2.386
REMARK UNBOUND:                -1.526
REMARK  8 active torsions:
REMARK  status: ('A' for Active; 'I' for Inactive)
REMARK    1  A    between atoms: C_2  and  C_3 
REMARK    2  A    between atoms: C_3  and  N_4 
REMARK    3  A    between atoms: C_3  and  C_20 
REMARK       I    between atoms: N_4  and  C_5 
REMARK       I    between atoms: C_5  and  N_7 
REMARK    4  A    between atoms: N_7  and  N_8 
REMARK       I    between atoms: N_8  and  C_9 
REMARK    5  A    between atoms: C_9  and  C_11 
REMARK    6  A    between atoms: C_11  and  C_12 
REMARK    7  A    between atoms: C_12  and  O_13 
REMARK    8  A    between atoms: O_13  and  C_14 
ROOT
ATOM      1  N   UNL d   1      25.978 -17.311  -1.013  0.00  0.00    -0.266 N 
ATOM      2  C   UNL d   1      24.831 -17.882  -0.482  0.00  0.00     0.238 C 
ATOM      3  O   UNL d   1      24.873 -18.572   0.538  0.00  0.00    -0.272 OA
ATOM      4  H   UNL d   1      26.001 -16.728  -1.848  0.00  0.00     0.190 HD
ENDROOT
BRANCH   1   5
ATOM      5  N   UNL d   1      27.260 -17.589  -0.416  0.00  0.00    -0.249 N 
ATOM      6  C   UNL d   1      28.381 -16.987  -0.971  0.00  0.00     0.335 C 
ATOM      7  N   UNL d   1      29.594 -17.432  -0.463  0.00  0.00    -0.337 N 
ATOM      8  O   UNL d   1      28.273 -16.218  -1.927  0.00  0.00    -0.246 OA
ATOM      9  H   UNL d   1      29.590 -17.871   0.445  0.00  0.00     0.164 HD
ATOM     10  H   UNL d   1      27.232 -17.905   0.550  0.00  0.00     0.192 HD
BRANCH   7  11
ATOM     11  C   UNL d   1      30.917 -17.150  -1.100  0.00  0.00     0.089 C 
BRANCH  11  12
ATOM     12  C   UNL d   1      31.625 -18.465  -1.524  0.00  0.00     0.021 C 
ATOM     13  C   UNL d   1      31.263 -18.957  -2.908  0.00  0.00     0.007 C 
ENDBRANCH  11  12
BRANCH  11  14
ATOM     14  C   UNL d   1      31.898 -16.345  -0.169  0.00  0.00     0.000 C 
ATOM     15  C   UNL d   1      31.195 -15.217   0.621  0.00  0.00     0.011 C 
ATOM     16  C   UNL d   1      32.596 -17.251   0.848  0.00  0.00     0.011 C 
ENDBRANCH  11  14
ENDBRANCH   7  11
ENDBRANCH   1   5
BRANCH   2  17
ATOM     17  C   UNL d   1      23.523 -17.607  -1.234  0.00  0.00     0.131 C 
BRANCH  17  18
ATOM     18  C   UNL d   1      22.311 -17.654  -0.279  0.00  0.00     0.185 C 
BRANCH  18  19
ATOM     19  O   UNL d   1      21.162 -18.198  -0.953  0.00  0.00    -0.351 OA
BRANCH  19  20
ATOM     20  C   UNL d   1      20.409 -19.077  -0.208  0.00  0.00     0.068 A 
ATOM     21  C   UNL d   1      19.304 -19.651  -0.844  0.00  0.00     0.037 A 
ATOM     22  C   UNL d   1      18.421 -20.477  -0.140  0.00  0.00     0.003 A 
ATOM     23  C   UNL d   1      18.659 -20.772   1.200  0.00  0.00     0.000 A 
ATOM     24  C   UNL d   1      19.753 -20.197   1.846  0.00  0.00     0.003 A 
ATOM     25  C   UNL d   1      20.617 -19.339   1.148  0.00  0.00     0.037 A 
ENDBRANCH  19  20
ENDBRANCH  18  19
ENDBRANCH  17  18
ENDBRANCH   2  17
TORSDOF 8
ENDMDL
MODEL 6
REMARK VINA RESULT:    -6.345      3.492      4.195
REMARK INTER + INTRA:         -10.227
REMARK INTER:                  -8.731
REMARK INTRA:                  -1.496
REMARK CONF_INDEPENDENT:        2.386
REMARK UNBOUND:                -1.496
REMARK  8 active torsions:
REMARK  status: ('A' for Active; 'I' for Inactive)
REMARK    1  A    between atoms: C_2  and  C_3 
REMARK    2  A    between atoms: C_3  and  N_4 
REMARK    3  A    between atoms: C_3  and  C_20 
REMARK       I    between atoms: N_4  and  C_5 
REMARK       I    between atoms: C_5  and  N_7 
REMARK    4  A    between atoms: N_7  and  N_8 
REMARK       I    between atoms: N_8  and  C_9 
REMARK    5  A    between atoms: C_9  and  C_11 
REMARK    6  A    between atoms: C_11  and  C_12 
REMARK    7  A    between atoms: C_12  and  O_13 
REMARK    8  A    between atoms: O_13  and  C_14 
ROOT
ATOM      1  N   UNL d   1      26.119 -17.375  -0.906  0.00  0.00    -0.266 N 
ATOM      2  C   UNL d   1      24.993 -17.889  -0.282  0.00  0.00     0.238 C 
ATOM      3  O   UNL d   1      25.080 -18.551   0.754  0.00  0.00    -0.272 OA
ATOM      4  H   UNL d   1      26.105 -16.816  -1.758  0.00  0.00     0.190 HD
ENDROOT
BRANCH   1   5
ATOM      5  N   UNL d   1      27.429 -17.681  -0.387  0.00  0.00    -0.249 N 
ATOM      6  C   UNL d   1      28.519 -17.022  -0.940  0.00  0.00     0.335 C 
ATOM      7  N   UNL d   1      29.758 -17.488  -0.521  0.00  0.00    -0.337 N 
ATOM      8  O   UNL d   1      28.361 -16.183  -1.828  0.00  0.00    -0.246 OA
ATOM      9  H   UNL d   1      29.797 -17.997   0.350  0.00  0.00     0.164 HD
ATOM     10  H   UNL d   1      27.446 -18.071   0.551  0.00  0.00     0.192 HD
BRANCH   7  11
ATOM     11  C   UNL d   1      31.048 -17.140  -1.190  0.00  0.00     0.089 C 
BRANCH  11  12
ATOM     12  C   UNL d   1      31.648 -15.834  -0.601  0.00  0.00     0.021 C 
ATOM     13  C   UNL d   1      31.713 -15.797   0.910  0.00  0.00     0.007 C 
ENDBRANCH  11  12
BRANCH  11  14
ATOM     14  C   UNL d   1      30.913 -16.957  -2.747  0.00  0.00     0.000 C 
ATOM     15  C   UNL d   1      32.081 -16.154  -3.366  0.00  0.00     0.011 C 
ATOM     16  C   UNL d   1      30.840 -18.298  -3.479  0.00  0.00     0.011 C 
ENDBRANCH  11  14
ENDBRANCH   7  11
ENDBRANCH   1   5
BRANCH   2  17
ATOM     17  C   UNL d   1      23.647 -17.590  -0.953  0.00  0.00     0.131 C 
BRANCH  17  18
ATOM     18  C   UNL d   1      22.681 -18.786  -0.821  0.00  0.00     0.185 C 
BRANCH  18  19
ATOM     19  O   UNL d   1      21.317 -18.327  -0.774  0.00  0.00    -0.351 OA
BRANCH  19  20
ATOM     20  C   UNL d   1      20.452 -19.136  -0.074  0.00  0.00     0.068 A 
ATOM     21  C   UNL d   1      19.399 -19.703  -0.799  0.00  0.00     0.037 A 
ATOM     22  C   UNL d   1      18.411 -20.458  -0.156  0.00  0.00     0.003 A 
ATOM     23  C   UNL d   1      18.490 -20.687   1.215  0.00  0.00     0.000 A 
ATOM     24  C   UNL d   1      19.530 -20.117   1.948  0.00  0.00     0.003 A 
ATOM     25  C   UNL d   1      20.499 -19.331   1.309  0.00  0.00     0.037 A 
ENDBRANCH  19  20
ENDBRANCH  18  19
ENDBRANCH  17  18
ENDBRANCH   2  17
TORSDOF 8
ENDMDL
MODEL 7
REMARK VINA RESULT:    -5.995      5.195      7.527
REMARK INTER + INTRA:         -10.653
REMARK INTER:                  -8.381
REMARK INTRA:                  -2.272
REMARK CONF_INDEPENDENT:        2.386
REMARK UNBOUND:                -2.272
REMARK  8 active torsions:
REMARK  status: ('A' for Active; 'I' for Inactive)
REMARK    1  A    between atoms: C_2  and  C_3 
REMARK    2  A    between atoms: C_3  and  N_4 
REMARK    3  A    between atoms: C_3  and  C_20 
REMARK       I    between atoms: N_4  and  C_5 
REMARK       I    between atoms: C_5  and  N_7 
REMARK    4  A    between atoms: N_7  and  N_8 
REMARK       I    between atoms: N_8  and  C_9 
REMARK    5  A    between atoms: C_9  and  C_11 
REMARK    6  A    between atoms: C_11  and  C_12 
REMARK    7  A    between atoms: C_12  and  O_13 
REMARK    8  A    between atoms: O_13  and  C_14 
ROOT
ATOM      1  N   UNL d   1      28.045 -15.100  -0.262  0.00  0.00    -0.266 N 
ATOM      2  C   UNL d   1      28.434 -16.073  -1.170  0.00  0.00     0.238 C 
ATOM      3  O   UNL d   1      29.068 -17.067  -0.812  0.00  0.00    -0.272 OA
ATOM      4  H   UNL d   1      27.515 -14.263  -0.502  0.00  0.00     0.190 HD
ENDROOT
BRANCH   1   5
ATOM      5  N   UNL d   1      28.454 -15.201   1.116  0.00  0.00    -0.249 N 
ATOM      6  C   UNL d   1      27.730 -14.493   2.064  0.00  0.00     0.335 C 
ATOM      7  N   UNL d   1      28.279 -14.493   3.340  0.00  0.00    -0.337 N 
ATOM      8  O   UNL d   1      26.751 -13.822   1.734  0.00  0.00    -0.246 OA
ATOM      9  H   UNL d   1      28.927 -15.231   3.571  0.00  0.00     0.164 HD
ATOM     10  H   UNL d   1      28.997 -16.028   1.350  0.00  0.00     0.192 HD
BRANCH   7  11
ATOM     11  C   UNL d   1      27.843 -13.573   4.434  0.00  0.00     0.089 C 
BRANCH  11  12
ATOM     12  C   UNL d   1      28.382 -12.135   4.202  0.00  0.00     0.021 C 
ATOM     13  C   UNL d   1      27.406 -11.199   3.524  0.00  0.00     0.007 C 
ENDBRANCH  11  12
BRANCH  11  14
ATOM     14  C   UNL d   1      28.305 -14.043   5.864  0.00  0.00     0.000 C 
ATOM     15  C   UNL d   1      29.663 -14.781   5.849  0.00  0.00     0.011 C 
ATOM     16  C   UNL d   1      28.429 -12.872   6.840  0.00  0.00     0.011 C 
ENDBRANCH  11  14
ENDBRANCH   7  11
ENDBRANCH   1   5
BRANCH   2  17
ATOM     17  C   UNL d   1      28.033 -15.839  -2.632  0.00  0.00     0.131 C 
BRANCH  17  18
ATOM     18  C   UNL d   1      26.505 -15.673  -2.771  0.00  0.00     0.185 C 
BRANCH  18  19
ATOM     19  O   UNL d   1      25.913 -15.386  -1.491  0.00  0.00    -0.351 OA
BRANCH  19  20
ATOM     20  C   UNL d   1      25.034 -16.338  -1.027  0.00  0.00     0.068 A 
ATOM     21  C   UNL d   1      25.592 -17.436  -0.366  0.00  0.00     0.037 A 
ATOM     22  C   UNL d   1      24.790 -18.505   0.051  0.00  0.00     0.003 A 
ATOM     23  C   UNL d   1      23.413 -18.465  -0.152  0.00  0.00     0.000 A 
ATOM     24  C   UNL d   1      22.849 -17.379  -0.820  0.00  0.00     0.003 A 
ATOM     25  C   UNL d   1      23.658 -16.325  -1.270  0.00  0.00     0.037 A 
ENDBRANCH  19  20
ENDBRANCH  18  19
ENDBRANCH  17  18
ENDBRANCH   2  17
TORSDOF 8
ENDMDL
MODEL 8
REMARK VINA RESULT:    -5.682      3.413      9.338
REMARK INTER + INTRA:         -10.213
REMARK INTER:                  -8.069
REMARK INTRA:                  -2.144
REMARK CONF_INDEPENDENT:        2.386
REMARK UNBOUND:                -2.144
REMARK  8 active torsions:
REMARK  status: ('A' for Active; 'I' for Inactive)
REMARK    1  A    between atoms: C_2  and  C_3 
REMARK    2  A    between atoms: C_3  and  N_4 
REMARK    3  A    between atoms: C_3  and  C_20 
REMARK       I    between atoms: N_4  and  C_5 
REMARK       I    between atoms: C_5  and  N_7 
REMARK    4  A    between atoms: N_7  and  N_8 
REMARK       I    between atoms: N_8  and  C_9 
REMARK    5  A    between atoms: C_9  and  C_11 
REMARK    6  A    between atoms: C_11  and  C_12 
REMARK    7  A    between atoms: C_12  and  O_13 
REMARK    8  A    between atoms: O_13  and  C_14 
ROOT
ATOM      1  N   UNL d   1      27.888 -15.583  -4.046  0.00  0.00    -0.266 N 
ATOM      2  C   UNL d   1      28.017 -15.199  -5.371  0.00  0.00     0.238 C 
ATOM      3  O   UNL d   1      27.029 -14.972  -6.071  0.00  0.00    -0.272 OA
ATOM      4  H   UNL d   1      28.669 -15.777  -3.420  0.00  0.00     0.190 HD
ENDROOT
BRANCH   1   5
ATOM      5  N   UNL d   1      26.578 -15.802  -3.486  0.00  0.00    -0.249 N 
ATOM      6  C   UNL d   1      26.486 -16.077  -2.129  0.00  0.00     0.335 C 
ATOM      7  N   UNL d   1      25.222 -16.449  -1.692  0.00  0.00    -0.337 N 
ATOM      8  O   UNL d   1      27.496 -16.103  -1.424  0.00  0.00    -0.246 OA
ATOM      9  H   UNL d   1      24.433 -16.183  -2.261  0.00  0.00     0.164 HD
ATOM     10  H   UNL d   1      25.806 -15.406  -4.016  0.00  0.00     0.192 HD
BRANCH   7  11
ATOM     11  C   UNL d   1      24.950 -17.065  -0.357  0.00  0.00     0.089 C 
BRANCH  11  12
ATOM     12  C   UNL d   1      25.807 -18.343  -0.147  0.00  0.00     0.021 C 
ATOM     13  C   UNL d   1      27.029 -18.145   0.724  0.00  0.00     0.007 C 
ENDBRANCH  11  12
BRANCH  11  14
ATOM     14  C   UNL d   1      23.439 -17.450  -0.145  0.00  0.00     0.000 C 
ATOM     15  C   UNL d   1      22.462 -16.335  -0.586  0.00  0.00     0.011 C 
ATOM     16  C   UNL d   1      23.058 -18.721  -0.907  0.00  0.00     0.011 C 
ENDBRANCH  11  14
ENDBRANCH   7  11
ENDBRANCH   1   5
BRANCH   2  17
ATOM     17  C   UNL d   1      29.449 -15.078  -5.909  0.00  0.00     0.131 C 
BRANCH  17  18
ATOM     18  C   UNL d   1      30.462 -15.739  -4.950  0.00  0.00     0.185 C 
BRANCH  18  19
ATOM     19  O   UNL d   1      30.005 -17.048  -4.563  0.00  0.00    -0.351 OA
BRANCH  19  20
ATOM     20  C   UNL d   1      30.423 -18.076  -5.378  0.00  0.00     0.068 A 
ATOM     21  C   UNL d   1      30.781 -17.733  -6.685  0.00  0.00     0.037 A 
ATOM     22  C   UNL d   1      31.121 -18.720  -7.618  0.00  0.00     0.003 A 
ATOM     23  C   UNL d   1      31.147 -20.059  -7.238  0.00  0.00     0.000 A 
ATOM     24  C   UNL d   1      30.782 -20.412  -5.940  0.00  0.00     0.003 A 
ATOM     25  C   UNL d   1      30.406 -19.425  -5.016  0.00  0.00     0.037 A 
ENDBRANCH  19  20
ENDBRANCH  18  19
ENDBRANCH  17  18
ENDBRANCH   2  17
TORSDOF 8
ENDMDL
MODEL 9
REMARK VINA RESULT:    -5.643      7.717     10.262
REMARK INTER + INTRA:         -10.185
REMARK INTER:                  -8.029
REMARK INTRA:                  -2.156
REMARK CONF_INDEPENDENT:        2.386
REMARK UNBOUND:                -2.156
REMARK  8 active torsions:
REMARK  status: ('A' for Active; 'I' for Inactive)
REMARK    1  A    between atoms: C_2  and  C_3 
REMARK    2  A    between atoms: C_3  and  N_4 
REMARK    3  A    between atoms: C_3  and  C_20 
REMARK       I    between atoms: N_4  and  C_5 
REMARK       I    between atoms: C_5  and  N_7 
REMARK    4  A    between atoms: N_7  and  N_8 
REMARK       I    between atoms: N_8  and  C_9 
REMARK    5  A    between atoms: C_9  and  C_11 
REMARK    6  A    between atoms: C_11  and  C_12 
REMARK    7  A    between atoms: C_12  and  O_13 
REMARK    8  A    between atoms: O_13  and  C_14 
ROOT
ATOM      1  N   UNL d   1      30.266 -14.825   2.636  0.00  0.00    -0.266 N 
ATOM      2  C   UNL d   1      31.149 -14.591   1.593  0.00  0.00     0.238 C 
ATOM      3  O   UNL d   1      32.273 -14.130   1.797  0.00  0.00    -0.272 OA
ATOM      4  H   UNL d   1      29.328 -15.210   2.526  0.00  0.00     0.190 HD
ENDROOT
BRANCH   1   5
ATOM      5  N   UNL d   1      30.628 -14.450   3.980  0.00  0.00    -0.249 N 
ATOM      6  C   UNL d   1      29.678 -14.611   4.979  0.00  0.00     0.335 C 
ATOM      7  N   UNL d   1      30.027 -14.072   6.210  0.00  0.00    -0.337 N 
ATOM      8  O   UNL d   1      28.571 -15.087   4.723  0.00  0.00    -0.246 OA
ATOM      9  H   UNL d   1      31.007 -13.916   6.392  0.00  0.00     0.164 HD
ATOM     10  H   UNL d   1      31.626 -14.431   4.173  0.00  0.00     0.192 HD
BRANCH   7  11
ATOM     11  C   UNL d   1      29.062 -13.866   7.333  0.00  0.00     0.089 C 
BRANCH  11  12
ATOM     12  C   UNL d   1      28.353 -12.490   7.215  0.00  0.00     0.021 C 
ATOM     13  C   UNL d   1      28.530 -11.586   8.415  0.00  0.00     0.007 C 
ENDBRANCH  11  12
BRANCH  11  14
ATOM     14  C   UNL d   1      29.734 -13.950   8.754  0.00  0.00     0.000 C 
ATOM     15  C   UNL d   1      28.938 -14.825   9.750  0.00  0.00     0.011 C 
ATOM     16  C   UNL d   1      31.155 -14.512   8.685  0.00  0.00     0.011 C 
ENDBRANCH  11  14
ENDBRANCH   7  11
ENDBRANCH   1   5
BRANCH   2  17
ATOM     17  C   UNL d   1      30.647 -14.935   0.185  0.00  0.00     0.131 C 
BRANCH  17  18
ATOM     18  C   UNL d   1      29.587 -16.056   0.230  0.00  0.00     0.185 C 
BRANCH  18  19
ATOM     19  O   UNL d   1      28.314 -15.527   0.642  0.00  0.00    -0.351 OA
BRANCH  19  20
ATOM     20  C   UNL d   1      27.219 -16.249   0.225  0.00  0.00     0.068 A 
ATOM     21  C   UNL d   1      26.271 -15.563  -0.541  0.00  0.00     0.037 A 
ATOM     22  C   UNL d   1      25.076 -16.183  -0.925  0.00  0.00     0.003 A 
ATOM     23  C   UNL d   1      24.837 -17.511  -0.583  0.00  0.00     0.000 A 
ATOM     24  C   UNL d   1      25.771 -18.200   0.189  0.00  0.00     0.003 A 
ATOM     25  C   UNL d   1      26.952 -17.566   0.605  0.00  0.00     0.037 A 
ENDBRANCH  19  20
ENDBRANCH  18  19
ENDBRANCH  17  18
ENDBRANCH   2  17
TORSDOF 8
ENDMDL
