MODEL 1
REMARK VINA RESULT:   -10.179      0.000      0.000
REMARK INTER + INTRA:         -14.589
REMARK INTER:                 -13.162
REMARK INTRA:                  -1.427
REMARK CONF_INDEPENDENT:        2.983
REMARK UNBOUND:                -1.427
REMARK  10 active torsions:
REMARK  status: ('A' for Active; 'I' for Inactive)
REMARK    1  A    between atoms: O_2  and  C_3 
REMARK    2  A    between atoms: C_3  and  C_5 
REMARK    3  A    between atoms: C_9  and  C_10 
REMARK       I    between atoms: C_10  and  N_12 
REMARK    4  A    between atoms: N_12  and  C_13 
REMARK    5  A    between atoms: C_13  and  N_15 
REMARK    6  A    between atoms: N_15  and  N_16 
REMARK       I    between atoms: N_16  and  C_17 
REMARK    7  A    between atoms: C_17  and  C_19 
REMARK    8  A    between atoms: C_22  and  N_23 
REMARK       I    between atoms: N_23  and  C_24 
REMARK    9  A    between atoms: C_24  and  C_26 
REMARK   10  A    between atoms: C_26  and  C_27 
ROOT
ATOM      1  N   UNL d   1      28.788 -14.890  -0.478  0.00  0.00    -0.273 N 
ATOM      2  H   UNL d   1      28.716 -14.105  -1.123  0.00  0.00     0.189 HD
ENDROOT
BRANCH   1   3
ATOM      3  C   UNL d   1      29.863 -15.169   0.387  0.00  0.00     0.193 C 
ATOM      4  S   UNL d   1      31.295 -15.804  -0.244  0.00  0.00    -0.039 SA
BRANCH   3   5
ATOM      5  N   UNL d   1      29.630 -14.882   1.752  0.00  0.00    -0.298 N 
ATOM      6  C   UNL d   1      28.797 -13.856   2.266  0.00  0.00     0.257 C 
ATOM      7  O   UNL d   1      28.156 -13.079   1.560  0.00  0.00    -0.267 OA
ATOM      8  H   UNL d   1      30.100 -15.473   2.418  0.00  0.00     0.171 HD
BRANCH   6   9
ATOM      9  C   UNL d   1      28.622 -13.654   3.747  0.00  0.00     0.033 A 
ATOM     10  C   UNL d   1      28.601 -14.817   4.560  0.00  0.00     0.017 A 
ATOM     11  C   UNL d   1      28.520 -14.736   5.954  0.00  0.00     0.002 A 
ATOM     12  C   UNL d   1      28.410 -13.490   6.561  0.00  0.00     0.017 A 
ATOM     13  C   UNL d   1      28.443 -12.328   5.775  0.00  0.00     0.040 A 
ATOM     14  C   UNL d   1      28.536 -12.408   4.371  0.00  0.00     0.034 A 
BRANCH  13  15
ATOM     15  C   UNL d   1      28.542 -11.016   6.459  0.00  0.00     0.292 C 
ATOM     16  O   UNL d   1      28.620  -9.956   5.844  0.00  0.00    -0.259 OA
BRANCH  15  17
ATOM     17  O   UNL d   1      28.517 -11.158   7.805  0.00  0.00    -0.323 OA
ATOM     18  C   UNL d   1      29.554 -10.433   8.483  0.00  0.00     0.213 C 
ENDBRANCH  15  17
ENDBRANCH  13  15
ENDBRANCH   6   9
ENDBRANCH   3   5
ENDBRANCH   1   3
BRANCH   1  19
ATOM     19  N   UNL d   1      27.636 -15.768  -0.457  0.00  0.00    -0.264 N 
ATOM     20  C   UNL d   1      26.411 -15.399  -0.999  0.00  0.00     0.270 C 
ATOM     21  O   UNL d   1      26.208 -14.304  -1.513  0.00  0.00    -0.266 OA
ATOM     22  H   UNL d   1      27.816 -16.704  -0.095  0.00  0.00     0.190 HD
BRANCH  20  23
ATOM     23  C   UNL d   1      25.290 -16.403  -0.897  0.00  0.00     0.033 A 
ATOM     24  C   UNL d   1      23.948 -16.057  -1.150  0.00  0.00     0.019 A 
ATOM     25  C   UNL d   1      22.883 -16.965  -0.891  0.00  0.00     0.030 A 
ATOM     26  C   UNL d   1      23.150 -18.258  -0.431  0.00  0.00     0.034 A 
ATOM     27  C   UNL d   1      24.492 -18.562  -0.157  0.00  0.00     0.030 A 
ATOM     28  C   UNL d   1      25.546 -17.672  -0.396  0.00  0.00     0.019 A 
BRANCH  26  29
ATOM     29  N   UNL d   1      22.101 -19.223  -0.271  0.00  0.00    -0.327 N 
ATOM     30  C   UNL d   1      20.781 -18.969  -0.625  0.00  0.00     0.222 C 
ATOM     31  O   UNL d   1      20.390 -17.888  -1.062  0.00  0.00    -0.273 OA
ATOM     32  H   UNL d   1      22.308 -20.071   0.247  0.00  0.00     0.169 HD
BRANCH  30  33
ATOM     33  C   UNL d   1      19.752 -20.077  -0.417  0.00  0.00     0.107 C 
BRANCH  33  34
ATOM     34  C   UNL d   1      19.089 -19.904   0.982  0.00  0.00    -0.014 C 
ATOM     35  C   UNL d   1      18.210 -21.110   1.354  0.00  0.00     0.010 C 
ATOM     36  C   UNL d   1      20.129 -19.703   2.081  0.00  0.00     0.010 C 
ENDBRANCH  33  34
ENDBRANCH  30  33
ENDBRANCH  26  29
ENDBRANCH  20  23
ENDBRANCH   1  19
TORSDOF 10
ENDMDL
MODEL 2
REMARK VINA RESULT:    -9.976      4.717      6.612
REMARK INTER + INTRA:         -15.144
REMARK INTER:                 -12.959
REMARK INTRA:                  -2.185
REMARK CONF_INDEPENDENT:        2.983
REMARK UNBOUND:                -2.185
REMARK  10 active torsions:
REMARK  status: ('A' for Active; 'I' for Inactive)
REMARK    1  A    between atoms: O_2  and  C_3 
REMARK    2  A    between atoms: C_3  and  C_5 
REMARK    3  A    between atoms: C_9  and  C_10 
REMARK       I    between atoms: C_10  and  N_12 
REMARK    4  A    between atoms: N_12  and  C_13 
REMARK    5  A    between atoms: C_13  and  N_15 
REMARK    6  A    between atoms: N_15  and  N_16 
REMARK       I    between atoms: N_16  and  C_17 
REMARK    7  A    between atoms: C_17  and  C_19 
REMARK    8  A    between atoms: C_22  and  N_23 
REMARK       I    between atoms: N_23  and  C_24 
REMARK    9  A    between atoms: C_24  and  C_26 
REMARK   10  A    between atoms: C_26  and  C_27 
ROOT
ATOM      1  N   UNL d   1      30.007 -17.545  -0.266  0.00  0.00    -0.273 N 
ATOM      2  H   UNL d   1      30.490 -17.784   0.598  0.00  0.00     0.189 HD
ENDROOT
BRANCH   1   3
ATOM      3  C   UNL d   1      30.591 -17.032  -1.440  0.00  0.00     0.193 C 
ATOM      4  S   UNL d   1      32.180 -17.454  -1.831  0.00  0.00    -0.039 SA
BRANCH   3   5
ATOM      5  N   UNL d   1      29.762 -16.182  -2.206  0.00  0.00    -0.298 N 
ATOM      6  C   UNL d   1      29.701 -16.117  -3.621  0.00  0.00     0.257 C 
ATOM      7  O   UNL d   1      30.380 -16.821  -4.367  0.00  0.00    -0.267 OA
ATOM      8  H   UNL d   1      29.152 -15.571  -1.689  0.00  0.00     0.171 HD
BRANCH   6   9
ATOM      9  C   UNL d   1      28.766 -15.171  -4.325  0.00  0.00     0.033 A 
ATOM     10  C   UNL d   1      29.080 -14.828  -5.666  0.00  0.00     0.017 A 
ATOM     11  C   UNL d   1      28.237 -14.019  -6.434  0.00  0.00     0.002 A 
ATOM     12  C   UNL d   1      27.083 -13.497  -5.859  0.00  0.00     0.017 A 
ATOM     13  C   UNL d   1      26.747 -13.835  -4.540  0.00  0.00     0.040 A 
ATOM     14  C   UNL d   1      27.591 -14.661  -3.769  0.00  0.00     0.034 A 
BRANCH  13  15
ATOM     15  C   UNL d   1      25.412 -13.443  -4.029  0.00  0.00     0.292 C 
ATOM     16  O   UNL d   1      24.397 -14.092  -4.269  0.00  0.00    -0.259 OA
BRANCH  15  17
ATOM     17  O   UNL d   1      25.482 -12.319  -3.277  0.00  0.00    -0.323 OA
ATOM     18  C   UNL d   1      26.435 -11.359  -3.757  0.00  0.00     0.213 C 
ENDBRANCH  15  17
ENDBRANCH  13  15
ENDBRANCH   6   9
ENDBRANCH   3   5
ENDBRANCH   1   3
BRANCH   1  19
ATOM     19  N   UNL d   1      28.581 -17.800  -0.257  0.00  0.00    -0.264 N 
ATOM     20  C   UNL d   1      27.643 -16.783  -0.389  0.00  0.00     0.270 C 
ATOM     21  O   UNL d   1      27.949 -15.601  -0.502  0.00  0.00    -0.266 OA
ATOM     22  H   UNL d   1      28.321 -18.786  -0.235  0.00  0.00     0.190 HD
BRANCH  20  23
ATOM     23  C   UNL d   1      26.190 -17.186  -0.349  0.00  0.00     0.033 A 
ATOM     24  C   UNL d   1      25.182 -16.421  -0.967  0.00  0.00     0.019 A 
ATOM     25  C   UNL d   1      23.803 -16.717  -0.784  0.00  0.00     0.030 A 
ATOM     26  C   UNL d   1      23.411 -17.825  -0.026  0.00  0.00     0.034 A 
ATOM     27  C   UNL d   1      24.435 -18.548   0.605  0.00  0.00     0.030 A 
ATOM     28  C   UNL d   1      25.794 -18.257   0.441  0.00  0.00     0.019 A 
BRANCH  26  29
ATOM     29  N   UNL d   1      22.032 -18.206   0.079  0.00  0.00    -0.327 N 
ATOM     30  C   UNL d   1      21.380 -18.955  -0.893  0.00  0.00     0.222 C 
ATOM     31  O   UNL d   1      21.910 -19.319  -1.942  0.00  0.00    -0.273 OA
ATOM     32  H   UNL d   1      21.479 -17.795   0.824  0.00  0.00     0.169 HD
BRANCH  30  33
ATOM     33  C   UNL d   1      19.912 -19.309  -0.668  0.00  0.00     0.107 C 
BRANCH  33  34
ATOM     34  C   UNL d   1      19.806 -20.333   0.500  0.00  0.00    -0.014 C 
ATOM     35  C   UNL d   1      20.035 -19.670   1.869  0.00  0.00     0.010 C 
ATOM     36  C   UNL d   1      18.450 -21.033   0.520  0.00  0.00     0.010 C 
ENDBRANCH  33  34
ENDBRANCH  30  33
ENDBRANCH  26  29
ENDBRANCH  20  23
ENDBRANCH   1  19
TORSDOF 10
ENDMDL
MODEL 3
REMARK VINA RESULT:    -9.942      5.178      8.602
REMARK INTER + INTRA:         -14.298
REMARK INTER:                 -12.925
REMARK INTRA:                  -1.372
REMARK CONF_INDEPENDENT:        2.983
REMARK UNBOUND:                -1.372
REMARK  10 active torsions:
REMARK  status: ('A' for Active; 'I' for Inactive)
REMARK    1  A    between atoms: O_2  and  C_3 
REMARK    2  A    between atoms: C_3  and  C_5 
REMARK    3  A    between atoms: C_9  and  C_10 
REMARK       I    between atoms: C_10  and  N_12 
REMARK    4  A    between atoms: N_12  and  C_13 
REMARK    5  A    between atoms: C_13  and  N_15 
REMARK    6  A    between atoms: N_15  and  N_16 
REMARK       I    between atoms: N_16  and  C_17 
REMARK    7  A    between atoms: C_17  and  C_19 
REMARK    8  A    between atoms: C_22  and  N_23 
REMARK       I    between atoms: N_23  and  C_24 
REMARK    9  A    between atoms: C_24  and  C_26 
REMARK   10  A    between atoms: C_26  and  C_27 
ROOT
ATOM      1  N   UNL d   1      27.096 -14.124  -2.271  0.00  0.00    -0.273 N 
ATOM      2  H   UNL d   1      27.754 -13.943  -1.515  0.00  0.00     0.189 HD
ENDROOT
BRANCH   1   3
ATOM      3  C   UNL d   1      27.155 -13.604  -3.578  0.00  0.00     0.193 C 
ATOM      4  S   UNL d   1      25.915 -12.600  -4.130  0.00  0.00    -0.039 SA
BRANCH   3   5
ATOM      5  N   UNL d   1      28.290 -13.987  -4.330  0.00  0.00    -0.298 N 
ATOM      6  C   UNL d   1      28.319 -14.931  -5.388  0.00  0.00     0.257 C 
ATOM      7  O   UNL d   1      27.327 -15.538  -5.789  0.00  0.00    -0.267 OA
ATOM      8  H   UNL d   1      29.156 -13.535  -4.090  0.00  0.00     0.171 HD
BRANCH   6   9
ATOM      9  C   UNL d   1      29.593 -15.248  -6.122  0.00  0.00     0.033 A 
ATOM     10  C   UNL d   1      30.030 -16.598  -6.106  0.00  0.00     0.017 A 
ATOM     11  C   UNL d   1      31.159 -17.014  -6.820  0.00  0.00     0.002 A 
ATOM     12  C   UNL d   1      31.901 -16.075  -7.528  0.00  0.00     0.017 A 
ATOM     13  C   UNL d   1      31.478 -14.738  -7.569  0.00  0.00     0.040 A 
ATOM     14  C   UNL d   1      30.334 -14.322  -6.858  0.00  0.00     0.034 A 
BRANCH  13  15
ATOM     15  C   UNL d   1      32.161 -13.810  -8.500  0.00  0.00     0.292 C 
ATOM     16  O   UNL d   1      33.218 -14.094  -9.058  0.00  0.00    -0.259 OA
BRANCH  15  17
ATOM     17  O   UNL d   1      31.465 -12.658  -8.648  0.00  0.00    -0.323 OA
ATOM     18  C   UNL d   1      31.701 -11.995  -9.899  0.00  0.00     0.213 C 
ENDBRANCH  15  17
ENDBRANCH  13  15
ENDBRANCH   6   9
ENDBRANCH   3   5
ENDBRANCH   1   3
BRANCH   1  19
ATOM     19  N   UNL d   1      26.022 -15.038  -1.938  0.00  0.00    -0.264 N 
ATOM     20  C   UNL d   1      26.047 -15.828  -0.796  0.00  0.00     0.270 C 
ATOM     21  O   UNL d   1      26.981 -15.827  -0.000  0.00  0.00    -0.266 OA
ATOM     22  H   UNL d   1      25.212 -14.993  -2.556  0.00  0.00     0.190 HD
BRANCH  20  23
ATOM     23  C   UNL d   1      24.871 -16.747  -0.577  0.00  0.00     0.033 A 
ATOM     24  C   UNL d   1      25.031 -18.091  -0.188  0.00  0.00     0.019 A 
ATOM     25  C   UNL d   1      23.930 -18.992  -0.145  0.00  0.00     0.030 A 
ATOM     26  C   UNL d   1      22.637 -18.543  -0.433  0.00  0.00     0.034 A 
ATOM     27  C   UNL d   1      22.513 -17.209  -0.849  0.00  0.00     0.030 A 
ATOM     28  C   UNL d   1      23.592 -16.319  -0.906  0.00  0.00     0.019 A 
BRANCH  26  29
ATOM     29  N   UNL d   1      21.500 -19.406  -0.287  0.00  0.00    -0.327 N 
ATOM     30  C   UNL d   1      20.201 -18.995  -0.561  0.00  0.00     0.222 C 
ATOM     31  O   UNL d   1      19.907 -17.852  -0.909  0.00  0.00    -0.273 OA
ATOM     32  H   UNL d   1      21.638 -20.304   0.165  0.00  0.00     0.169 HD
BRANCH  30  33
ATOM     33  C   UNL d   1      19.071 -20.005  -0.379  0.00  0.00     0.107 C 
BRANCH  33  34
ATOM     34  C   UNL d   1      19.294 -20.788   0.949  0.00  0.00    -0.014 C 
ATOM     35  C   UNL d   1      19.685 -19.854   2.108  0.00  0.00     0.010 C 
ATOM     36  C   UNL d   1      18.053 -21.576   1.358  0.00  0.00     0.010 C 
ENDBRANCH  33  34
ENDBRANCH  30  33
ENDBRANCH  26  29
ENDBRANCH  20  23
ENDBRANCH   1  19
TORSDOF 10
ENDMDL
MODEL 4
REMARK VINA RESULT:    -9.566      3.587      6.680
REMARK INTER + INTRA:         -14.412
REMARK INTER:                 -12.549
REMARK INTRA:                  -1.863
REMARK CONF_INDEPENDENT:        2.983
REMARK UNBOUND:                -1.863
REMARK  10 active torsions:
REMARK  status: ('A' for Active; 'I' for Inactive)
REMARK    1  A    between atoms: O_2  and  C_3 
REMARK    2  A    between atoms: C_3  and  C_5 
REMARK    3  A    between atoms: C_9  and  C_10 
REMARK       I    between atoms: C_10  and  N_12 
REMARK    4  A    between atoms: N_12  and  C_13 
REMARK    5  A    between atoms: C_13  and  N_15 
REMARK    6  A    between atoms: N_15  and  N_16 
REMARK       I    between atoms: N_16  and  C_17 
REMARK    7  A    between atoms: C_17  and  C_19 
REMARK    8  A    between atoms: C_22  and  N_23 
REMARK       I    between atoms: N_23  and  C_24 
REMARK    9  A    between atoms: C_24  and  C_26 
REMARK   10  A    between atoms: C_26  and  C_27 
ROOT
ATOM      1  N   UNL d   1      28.569 -15.071   1.175  0.00  0.00    -0.273 N 
ATOM      2  H   UNL d   1      29.300 -15.577   1.672  0.00  0.00     0.189 HD
ENDROOT
BRANCH   1   3
ATOM      3  C   UNL d   1      28.650 -13.758   0.674  0.00  0.00     0.193 C 
ATOM      4  S   UNL d   1      29.223 -12.521   1.672  0.00  0.00    -0.039 SA
BRANCH   3   5
ATOM      5  N   UNL d   1      28.226 -13.594  -0.665  0.00  0.00    -0.298 N 
ATOM      6  C   UNL d   1      27.444 -12.528  -1.176  0.00  0.00     0.257 C 
ATOM      7  O   UNL d   1      27.038 -11.590  -0.492  0.00  0.00    -0.267 OA
ATOM      8  H   UNL d   1      28.519 -14.305  -1.314  0.00  0.00     0.171 HD
BRANCH   6   9
ATOM      9  C   UNL d   1      27.063 -12.460  -2.630  0.00  0.00     0.033 A 
ATOM     10  C   UNL d   1      26.267 -11.359  -3.039  0.00  0.00     0.017 A 
ATOM     11  C   UNL d   1      25.922 -11.160  -4.380  0.00  0.00     0.002 A 
ATOM     12  C   UNL d   1      26.327 -12.088  -5.334  0.00  0.00     0.017 A 
ATOM     13  C   UNL d   1      27.126 -13.176  -4.952  0.00  0.00     0.040 A 
ATOM     14  C   UNL d   1      27.484 -13.370  -3.602  0.00  0.00     0.034 A 
BRANCH  13  15
ATOM     15  C   UNL d   1      27.720 -14.023  -6.013  0.00  0.00     0.292 C 
ATOM     16  O   UNL d   1      27.404 -15.200  -6.171  0.00  0.00    -0.259 OA
BRANCH  15  17
ATOM     17  O   UNL d   1      28.611 -13.328  -6.758  0.00  0.00    -0.323 OA
ATOM     18  C   UNL d   1      29.466 -12.471  -5.988  0.00  0.00     0.213 C 
ENDBRANCH  15  17
ENDBRANCH  13  15
ENDBRANCH   6   9
ENDBRANCH   3   5
ENDBRANCH   1   3
BRANCH   1  19
ATOM     19  N   UNL d   1      27.350 -15.822   0.955  0.00  0.00    -0.264 N 
ATOM     20  C   UNL d   1      26.921 -16.187  -0.315  0.00  0.00     0.270 C 
ATOM     21  O   UNL d   1      27.526 -15.886  -1.339  0.00  0.00    -0.266 OA
ATOM     22  H   UNL d   1      26.880 -16.136   1.804  0.00  0.00     0.190 HD
BRANCH  20  23
ATOM     23  C   UNL d   1      25.626 -16.955  -0.403  0.00  0.00     0.033 A 
ATOM     24  C   UNL d   1      24.378 -16.312  -0.519  0.00  0.00     0.019 A 
ATOM     25  C   UNL d   1      23.156 -17.035  -0.433  0.00  0.00     0.030 A 
ATOM     26  C   UNL d   1      23.164 -18.426  -0.292  0.00  0.00     0.034 A 
ATOM     27  C   UNL d   1      24.420 -19.035  -0.147  0.00  0.00     0.030 A 
ATOM     28  C   UNL d   1      25.628 -18.331  -0.216  0.00  0.00     0.019 A 
BRANCH  26  29
ATOM     29  N   UNL d   1      21.947 -19.185  -0.317  0.00  0.00    -0.327 N 
ATOM     30  C   UNL d   1      20.757 -18.685  -0.833  0.00  0.00     0.222 C 
ATOM     31  O   UNL d   1      20.631 -17.542  -1.270  0.00  0.00    -0.273 OA
ATOM     32  H   UNL d   1      21.924 -20.066   0.185  0.00  0.00     0.169 HD
BRANCH  30  33
ATOM     33  C   UNL d   1      19.527 -19.589  -0.814  0.00  0.00     0.107 C 
BRANCH  33  34
ATOM     34  C   UNL d   1      19.549 -20.457   0.478  0.00  0.00    -0.014 C 
ATOM     35  C   UNL d   1      19.834 -19.612   1.733  0.00  0.00     0.010 C 
ATOM     36  C   UNL d   1      18.233 -21.202   0.684  0.00  0.00     0.010 C 
ENDBRANCH  33  34
ENDBRANCH  30  33
ENDBRANCH  26  29
ENDBRANCH  20  23
ENDBRANCH   1  19
TORSDOF 10
ENDMDL
MODEL 5
REMARK VINA RESULT:    -9.298      5.657      9.104
REMARK INTER + INTRA:         -14.383
REMARK INTER:                 -12.281
REMARK INTRA:                  -2.102
REMARK CONF_INDEPENDENT:        2.983
REMARK UNBOUND:                -2.102
REMARK  10 active torsions:
REMARK  status: ('A' for Active; 'I' for Inactive)
REMARK    1  A    between atoms: O_2  and  C_3 
REMARK    2  A    between atoms: C_3  and  C_5 
REMARK    3  A    between atoms: C_9  and  C_10 
REMARK       I    between atoms: C_10  and  N_12 
REMARK    4  A    between atoms: N_12  and  C_13 
REMARK    5  A    between atoms: C_13  and  N_15 
REMARK    6  A    between atoms: N_15  and  N_16 
REMARK       I    between atoms: N_16  and  C_17 
REMARK    7  A    between atoms: C_17  and  C_19 
REMARK    8  A    between atoms: C_22  and  N_23 
REMARK       I    between atoms: N_23  and  C_24 
REMARK    9  A    between atoms: C_24  and  C_26 
REMARK   10  A    between atoms: C_26  and  C_27 
ROOT
ATOM      1  N   UNL d   1      27.328 -15.206  -3.260  0.00  0.00    -0.273 N 
ATOM      2  H   UNL d   1      28.168 -15.274  -2.688  0.00  0.00     0.189 HD
ENDROOT
BRANCH   1   3
ATOM      3  C   UNL d   1      27.236 -14.656  -4.553  0.00  0.00     0.193 C 
ATOM      4  S   UNL d   1      26.008 -13.549  -4.900  0.00  0.00    -0.039 SA
BRANCH   3   5
ATOM      5  N   UNL d   1      28.215 -15.101  -5.470  0.00  0.00    -0.298 N 
ATOM      6  C   UNL d   1      29.399 -15.816  -5.157  0.00  0.00     0.257 C 
ATOM      7  O   UNL d   1      29.715 -16.148  -4.015  0.00  0.00    -0.267 OA
ATOM      8  H   UNL d   1      28.045 -14.892  -6.440  0.00  0.00     0.171 HD
BRANCH   6   9
ATOM      9  C   UNL d   1      30.365 -16.244  -6.228  0.00  0.00     0.033 A 
ATOM     10  C   UNL d   1      31.333 -15.294  -6.644  0.00  0.00     0.017 A 
ATOM     11  C   UNL d   1      32.324 -15.615  -7.577  0.00  0.00     0.002 A 
ATOM     12  C   UNL d   1      32.337 -16.882  -8.150  0.00  0.00     0.017 A 
ATOM     13  C   UNL d   1      31.397 -17.841  -7.742  0.00  0.00     0.040 A 
ATOM     14  C   UNL d   1      30.405 -17.521  -6.792  0.00  0.00     0.034 A 
BRANCH  13  15
ATOM     15  C   UNL d   1      31.567 -19.238  -8.205  0.00  0.00     0.292 C 
ATOM     16  O   UNL d   1      32.242 -19.529  -9.189  0.00  0.00    -0.259 OA
BRANCH  15  17
ATOM     17  O   UNL d   1      30.908 -20.108  -7.404  0.00  0.00    -0.323 OA
ATOM     18  C   UNL d   1      31.751 -20.776  -6.455  0.00  0.00     0.213 C 
ENDBRANCH  15  17
ENDBRANCH  13  15
ENDBRANCH   6   9
ENDBRANCH   3   5
ENDBRANCH   1   3
BRANCH   1  19
ATOM     19  N   UNL d   1      26.136 -15.769  -2.660  0.00  0.00    -0.264 N 
ATOM     20  C   UNL d   1      26.185 -16.593  -1.543  0.00  0.00     0.270 C 
ATOM     21  O   UNL d   1      27.233 -16.920  -0.997  0.00  0.00    -0.266 OA
ATOM     22  H   UNL d   1      25.257 -15.446  -3.065  0.00  0.00     0.190 HD
BRANCH  20  23
ATOM     23  C   UNL d   1      24.870 -17.123  -1.028  0.00  0.00     0.033 A 
ATOM     24  C   UNL d   1      24.746 -18.413  -0.474  0.00  0.00     0.019 A 
ATOM     25  C   UNL d   1      23.476 -18.964  -0.146  0.00  0.00     0.030 A 
ATOM     26  C   UNL d   1      22.311 -18.208  -0.311  0.00  0.00     0.034 A 
ATOM     27  C   UNL d   1      22.462 -16.941  -0.895  0.00  0.00     0.030 A 
ATOM     28  C   UNL d   1      23.706 -16.395  -1.233  0.00  0.00     0.019 A 
BRANCH  26  29
ATOM     29  N   UNL d   1      21.034 -18.703   0.118  0.00  0.00    -0.327 N 
ATOM     30  C   UNL d   1      20.183 -19.418  -0.716  0.00  0.00     0.222 C 
ATOM     31  O   UNL d   1      20.426 -19.649  -1.899  0.00  0.00    -0.273 OA
ATOM     32  H   UNL d   1      20.685 -18.400   1.021  0.00  0.00     0.169 HD
BRANCH  30  33
ATOM     33  C   UNL d   1      18.853 -19.902  -0.146  0.00  0.00     0.107 C 
BRANCH  33  34
ATOM     34  C   UNL d   1      19.129 -20.932   0.990  0.00  0.00    -0.014 C 
ATOM     35  C   UNL d   1      19.327 -20.246   2.352  0.00  0.00     0.010 C 
ATOM     36  C   UNL d   1      17.999 -21.950   1.119  0.00  0.00     0.010 C 
ENDBRANCH  33  34
ENDBRANCH  30  33
ENDBRANCH  26  29
ENDBRANCH  20  23
ENDBRANCH   1  19
TORSDOF 10
ENDMDL
MODEL 6
REMARK VINA RESULT:    -9.234      5.050      7.614
REMARK INTER + INTRA:         -14.143
REMARK INTER:                 -12.217
REMARK INTRA:                  -1.926
REMARK CONF_INDEPENDENT:        2.983
REMARK UNBOUND:                -1.926
REMARK  10 active torsions:
REMARK  status: ('A' for Active; 'I' for Inactive)
REMARK    1  A    between atoms: O_2  and  C_3 
REMARK    2  A    between atoms: C_3  and  C_5 
REMARK    3  A    between atoms: C_9  and  C_10 
REMARK       I    between atoms: C_10  and  N_12 
REMARK    4  A    between atoms: N_12  and  C_13 
REMARK    5  A    between atoms: C_13  and  N_15 
REMARK    6  A    between atoms: N_15  and  N_16 
REMARK       I    between atoms: N_16  and  C_17 
REMARK    7  A    between atoms: C_17  and  C_19 
REMARK    8  A    between atoms: C_22  and  N_23 
REMARK       I    between atoms: N_23  and  C_24 
REMARK    9  A    between atoms: C_24  and  C_26 
REMARK   10  A    between atoms: C_26  and  C_27 
ROOT
ATOM      1  N   UNL d   1      29.084 -16.911   0.120  0.00  0.00    -0.273 N 
ATOM      2  H   UNL d   1      29.417 -16.469   0.976  0.00  0.00     0.189 HD
ENDROOT
BRANCH   1   3
ATOM      3  C   UNL d   1      29.847 -17.196  -1.028  0.00  0.00     0.193 C 
ATOM      4  S   UNL d   1      31.031 -18.398  -0.963  0.00  0.00    -0.039 SA
BRANCH   3   5
ATOM      5  N   UNL d   1      29.536 -16.418  -2.168  0.00  0.00    -0.298 N 
ATOM      6  C   UNL d   1      29.690 -16.811  -3.521  0.00  0.00     0.257 C 
ATOM      7  O   UNL d   1      30.119 -17.910  -3.870  0.00  0.00    -0.267 OA
ATOM      8  H   UNL d   1      29.162 -15.501  -1.992  0.00  0.00     0.171 HD
BRANCH   6   9
ATOM      9  C   UNL d   1      29.313 -15.893  -4.653  0.00  0.00     0.033 A 
ATOM     10  C   UNL d   1      27.996 -15.366  -4.647  0.00  0.00     0.017 A 
ATOM     11  C   UNL d   1      27.569 -14.445  -5.610  0.00  0.00     0.002 A 
ATOM     12  C   UNL d   1      28.439 -14.069  -6.627  0.00  0.00     0.017 A 
ATOM     13  C   UNL d   1      29.750 -14.568  -6.643  0.00  0.00     0.040 A 
ATOM     14  C   UNL d   1      30.184 -15.488  -5.666  0.00  0.00     0.034 A 
BRANCH  13  15
ATOM     15  C   UNL d   1      30.715 -13.988  -7.607  0.00  0.00     0.292 C 
ATOM     16  O   UNL d   1      30.494 -12.944  -8.214  0.00  0.00    -0.259 OA
BRANCH  15  17
ATOM     17  O   UNL d   1      31.835 -14.743  -7.700  0.00  0.00    -0.323 OA
ATOM     18  C   UNL d   1      32.851 -14.391  -6.749  0.00  0.00     0.213 C 
ENDBRANCH  15  17
ENDBRANCH  13  15
ENDBRANCH   6   9
ENDBRANCH   3   5
ENDBRANCH   1   3
BRANCH   1  19
ATOM     19  N   UNL d   1      27.688 -17.296   0.138  0.00  0.00    -0.264 N 
ATOM     20  C   UNL d   1      26.762 -16.776  -0.758  0.00  0.00     0.270 C 
ATOM     21  O   UNL d   1      27.051 -15.943  -1.612  0.00  0.00    -0.266 OA
ATOM     22  H   UNL d   1      27.455 -18.039   0.797  0.00  0.00     0.190 HD
BRANCH  20  23
ATOM     23  C   UNL d   1      25.338 -17.252  -0.620  0.00  0.00     0.033 A 
ATOM     24  C   UNL d   1      24.238 -16.394  -0.820  0.00  0.00     0.019 A 
ATOM     25  C   UNL d   1      22.908 -16.807  -0.526  0.00  0.00     0.030 A 
ATOM     26  C   UNL d   1      22.651 -18.109  -0.085  0.00  0.00     0.034 A 
ATOM     27  C   UNL d   1      23.769 -18.929   0.135  0.00  0.00     0.030 A 
ATOM     28  C   UNL d   1      25.082 -18.528  -0.138  0.00  0.00     0.019 A 
BRANCH  26  29
ATOM     29  N   UNL d   1      21.310 -18.579   0.108  0.00  0.00    -0.327 N 
ATOM     30  C   UNL d   1      20.592 -19.241  -0.880  0.00  0.00     0.222 C 
ATOM     31  O   UNL d   1      21.022 -19.443  -2.014  0.00  0.00    -0.273 OA
ATOM     32  H   UNL d   1      20.822 -18.294   0.951  0.00  0.00     0.169 HD
BRANCH  30  33
ATOM     33  C   UNL d   1      19.174 -19.703  -0.555  0.00  0.00     0.107 C 
BRANCH  33  34
ATOM     34  C   UNL d   1      19.228 -20.747   0.600  0.00  0.00    -0.014 C 
ATOM     35  C   UNL d   1      19.501 -20.083   1.961  0.00  0.00     0.010 C 
ATOM     36  C   UNL d   1      17.934 -21.548   0.701  0.00  0.00     0.010 C 
ENDBRANCH  33  34
ENDBRANCH  30  33
ENDBRANCH  26  29
ENDBRANCH  20  23
ENDBRANCH   1  19
TORSDOF 10
ENDMDL
MODEL 7
REMARK VINA RESULT:    -9.152      3.561      6.227
REMARK INTER + INTRA:         -14.188
REMARK INTER:                 -12.135
REMARK INTRA:                  -2.053
REMARK CONF_INDEPENDENT:        2.983
REMARK UNBOUND:                -2.053
REMARK  10 active torsions:
REMARK  status: ('A' for Active; 'I' for Inactive)
REMARK    1  A    between atoms: O_2  and  C_3 
REMARK    2  A    between atoms: C_3  and  C_5 
REMARK    3  A    between atoms: C_9  and  C_10 
REMARK       I    between atoms: C_10  and  N_12 
REMARK    4  A    between atoms: N_12  and  C_13 
REMARK    5  A    between atoms: C_13  and  N_15 
REMARK    6  A    between atoms: N_15  and  N_16 
REMARK       I    between atoms: N_16  and  C_17 
REMARK    7  A    between atoms: C_17  and  C_19 
REMARK    8  A    between atoms: C_22  and  N_23 
REMARK       I    between atoms: N_23  and  C_24 
REMARK    9  A    between atoms: C_24  and  C_26 
REMARK   10  A    between atoms: C_26  and  C_27 
ROOT
ATOM      1  N   UNL d   1      28.719 -15.330   1.077  0.00  0.00    -0.273 N 
ATOM      2  H   UNL d   1      29.452 -15.881   1.519  0.00  0.00     0.189 HD
ENDROOT
BRANCH   1   3
ATOM      3  C   UNL d   1      28.821 -13.997   0.636  0.00  0.00     0.193 C 
ATOM      4  S   UNL d   1      29.594 -12.855   1.611  0.00  0.00    -0.039 SA
BRANCH   3   5
ATOM      5  N   UNL d   1      28.244 -13.733  -0.629  0.00  0.00    -0.298 N 
ATOM      6  C   UNL d   1      27.198 -12.816  -0.901  0.00  0.00     0.257 C 
ATOM      7  O   UNL d   1      26.661 -12.118  -0.043  0.00  0.00    -0.267 OA
ATOM      8  H   UNL d   1      28.624 -14.245  -1.407  0.00  0.00     0.171 HD
BRANCH   6   9
ATOM      9  C   UNL d   1      26.673 -12.615  -2.297  0.00  0.00     0.033 A 
ATOM     10  C   UNL d   1      26.124 -13.748  -2.951  0.00  0.00     0.017 A 
ATOM     11  C   UNL d   1      25.540 -13.654  -4.218  0.00  0.00     0.002 A 
ATOM     12  C   UNL d   1      25.537 -12.430  -4.878  0.00  0.00     0.017 A 
ATOM     13  C   UNL d   1      26.063 -11.295  -4.244  0.00  0.00     0.040 A 
ATOM     14  C   UNL d   1      26.640 -11.387  -2.961  0.00  0.00     0.034 A 
BRANCH  13  15
ATOM     15  C   UNL d   1      25.852  -9.971  -4.877  0.00  0.00     0.292 C 
ATOM     16  O   UNL d   1      26.444  -9.626  -5.896  0.00  0.00    -0.259 OA
BRANCH  15  17
ATOM     17  O   UNL d   1      24.937  -9.240  -4.199  0.00  0.00    -0.323 OA
ATOM     18  C   UNL d   1      24.807  -7.891  -4.671  0.00  0.00     0.213 C 
ENDBRANCH  15  17
ENDBRANCH  13  15
ENDBRANCH   6   9
ENDBRANCH   3   5
ENDBRANCH   1   3
BRANCH   1  19
ATOM     19  N   UNL d   1      27.468 -16.033   0.872  0.00  0.00    -0.264 N 
ATOM     20  C   UNL d   1      26.998 -16.361  -0.393  0.00  0.00     0.270 C 
ATOM     21  O   UNL d   1      27.591 -16.065  -1.425  0.00  0.00    -0.266 OA
ATOM     22  H   UNL d   1      27.005 -16.344   1.727  0.00  0.00     0.190 HD
BRANCH  20  23
ATOM     23  C   UNL d   1      25.675 -17.080  -0.464  0.00  0.00     0.033 A 
ATOM     24  C   UNL d   1      24.454 -16.393  -0.610  0.00  0.00     0.019 A 
ATOM     25  C   UNL d   1      23.203 -17.064  -0.509  0.00  0.00     0.030 A 
ATOM     26  C   UNL d   1      23.156 -18.449  -0.320  0.00  0.00     0.034 A 
ATOM     27  C   UNL d   1      24.385 -19.101  -0.145  0.00  0.00     0.030 A 
ATOM     28  C   UNL d   1      25.621 -18.447  -0.230  0.00  0.00     0.019 A 
BRANCH  26  29
ATOM     29  N   UNL d   1      21.909 -19.159  -0.327  0.00  0.00    -0.327 N 
ATOM     30  C   UNL d   1      20.733 -18.615  -0.830  0.00  0.00     0.222 C 
ATOM     31  O   UNL d   1      20.647 -17.469  -1.270  0.00  0.00    -0.273 OA
ATOM     32  H   UNL d   1      21.858 -20.037   0.179  0.00  0.00     0.169 HD
BRANCH  30  33
ATOM     33  C   UNL d   1      19.469 -19.469  -0.794  0.00  0.00     0.107 C 
BRANCH  33  34
ATOM     34  C   UNL d   1      19.534 -20.426   0.433  0.00  0.00    -0.014 C 
ATOM     35  C   UNL d   1      19.869 -19.673   1.732  0.00  0.00     0.010 C 
ATOM     36  C   UNL d   1      18.223 -21.181   0.634  0.00  0.00     0.010 C 
ENDBRANCH  33  34
ENDBRANCH  30  33
ENDBRANCH  26  29
ENDBRANCH  20  23
ENDBRANCH   1  19
TORSDOF 10
ENDMDL
MODEL 8
REMARK VINA RESULT:    -9.042      4.830      6.260
REMARK INTER + INTRA:         -14.109
REMARK INTER:                 -12.025
REMARK INTRA:                  -2.083
REMARK CONF_INDEPENDENT:        2.983
REMARK UNBOUND:                -2.083
REMARK  10 active torsions:
REMARK  status: ('A' for Active; 'I' for Inactive)
REMARK    1  A    between atoms: O_2  and  C_3 
REMARK    2  A    between atoms: C_3  and  C_5 
REMARK    3  A    between atoms: C_9  and  C_10 
REMARK       I    between atoms: C_10  and  N_12 
REMARK    4  A    between atoms: N_12  and  C_13 
REMARK    5  A    between atoms: C_13  and  N_15 
REMARK    6  A    between atoms: N_15  and  N_16 
REMARK       I    between atoms: N_16  and  C_17 
REMARK    7  A    between atoms: C_17  and  C_19 
REMARK    8  A    between atoms: C_22  and  N_23 
REMARK       I    between atoms: N_23  and  C_24 
REMARK    9  A    between atoms: C_24  and  C_26 
REMARK   10  A    between atoms: C_26  and  C_27 
ROOT
ATOM      1  N   UNL d   1      27.611 -14.768  -2.744  0.00  0.00    -0.273 N 
ATOM      2  H   UNL d   1      28.417 -14.814  -2.124  0.00  0.00     0.189 HD
ENDROOT
BRANCH   1   3
ATOM      3  C   UNL d   1      27.578 -14.213  -4.038  0.00  0.00     0.193 C 
ATOM      4  S   UNL d   1      27.886 -15.200  -5.374  0.00  0.00    -0.039 SA
BRANCH   3   5
ATOM      5  N   UNL d   1      27.280 -12.832  -4.096  0.00  0.00    -0.298 N 
ATOM      6  C   UNL d   1      26.133 -12.196  -3.559  0.00  0.00     0.257 C 
ATOM      7  O   UNL d   1      25.241 -12.790  -2.956  0.00  0.00    -0.267 OA
ATOM      8  H   UNL d   1      27.958 -12.250  -4.559  0.00  0.00     0.171 HD
BRANCH   6   9
ATOM      9  C   UNL d   1      25.931 -10.709  -3.678  0.00  0.00     0.033 A 
ATOM     10  C   UNL d   1      25.530 -10.209  -4.944  0.00  0.00     0.017 A 
ATOM     11  C   UNL d   1      25.242  -8.855  -5.141  0.00  0.00     0.002 A 
ATOM     12  C   UNL d   1      25.396  -7.964  -4.085  0.00  0.00     0.017 A 
ATOM     13  C   UNL d   1      25.779  -8.440  -2.822  0.00  0.00     0.040 A 
ATOM     14  C   UNL d   1      26.058  -9.807  -2.620  0.00  0.00     0.034 A 
BRANCH  13  15
ATOM     15  C   UNL d   1      25.726  -7.508  -1.670  0.00  0.00     0.292 C 
ATOM     16  O   UNL d   1      26.203  -6.377  -1.714  0.00  0.00    -0.259 OA
BRANCH  15  17
ATOM     17  O   UNL d   1      25.085  -8.064  -0.615  0.00  0.00    -0.323 OA
ATOM     18  C   UNL d   1      25.910  -8.214   0.550  0.00  0.00     0.213 C 
ENDBRANCH  15  17
ENDBRANCH  13  15
ENDBRANCH   6   9
ENDBRANCH   3   5
ENDBRANCH   1   3
BRANCH   1  19
ATOM     19  N   UNL d   1      26.403 -15.370  -2.218  0.00  0.00    -0.264 N 
ATOM     20  C   UNL d   1      26.423 -16.530  -1.455  0.00  0.00     0.270 C 
ATOM     21  O   UNL d   1      27.454 -17.139  -1.188  0.00  0.00    -0.266 OA
ATOM     22  H   UNL d   1      25.551 -14.832  -2.377  0.00  0.00     0.190 HD
BRANCH  20  23
ATOM     23  C   UNL d   1      25.091 -17.058  -0.982  0.00  0.00     0.033 A 
ATOM     24  C   UNL d   1      24.942 -18.360  -0.463  0.00  0.00     0.019 A 
ATOM     25  C   UNL d   1      23.660 -18.905  -0.177  0.00  0.00     0.030 A 
ATOM     26  C   UNL d   1      22.507 -18.132  -0.347  0.00  0.00     0.034 A 
ATOM     27  C   UNL d   1      22.684 -16.854  -0.896  0.00  0.00     0.030 A 
ATOM     28  C   UNL d   1      23.940 -16.312  -1.194  0.00  0.00     0.019 A 
BRANCH  26  29
ATOM     29  N   UNL d   1      21.216 -18.624   0.042  0.00  0.00    -0.327 N 
ATOM     30  C   UNL d   1      20.379 -19.316  -0.825  0.00  0.00     0.222 C 
ATOM     31  O   UNL d   1      20.649 -19.529  -2.006  0.00  0.00    -0.273 OA
ATOM     32  H   UNL d   1      20.847 -18.334   0.942  0.00  0.00     0.169 HD
BRANCH  30  33
ATOM     33  C   UNL d   1      19.032 -19.800  -0.296  0.00  0.00     0.107 C 
BRANCH  33  34
ATOM     34  C   UNL d   1      19.272 -20.820   0.856  0.00  0.00    -0.014 C 
ATOM     35  C   UNL d   1      19.464 -20.120   2.213  0.00  0.00     0.010 C 
ATOM     36  C   UNL d   1      18.121 -21.814   0.981  0.00  0.00     0.010 C 
ENDBRANCH  33  34
ENDBRANCH  30  33
ENDBRANCH  26  29
ENDBRANCH  20  23
ENDBRANCH   1  19
TORSDOF 10
ENDMDL
MODEL 9
REMARK VINA RESULT:    -9.004      5.154      7.987
REMARK INTER + INTRA:         -14.291
REMARK INTER:                 -11.987
REMARK INTRA:                  -2.304
REMARK CONF_INDEPENDENT:        2.983
REMARK UNBOUND:                -2.304
REMARK  10 active torsions:
REMARK  status: ('A' for Active; 'I' for Inactive)
REMARK    1  A    between atoms: O_2  and  C_3 
REMARK    2  A    between atoms: C_3  and  C_5 
REMARK    3  A    between atoms: C_9  and  C_10 
REMARK       I    between atoms: C_10  and  N_12 
REMARK    4  A    between atoms: N_12  and  C_13 
REMARK    5  A    between atoms: C_13  and  N_15 
REMARK    6  A    between atoms: N_15  and  N_16 
REMARK       I    between atoms: N_16  and  C_17 
REMARK    7  A    between atoms: C_17  and  C_19 
REMARK    8  A    between atoms: C_22  and  N_23 
REMARK       I    between atoms: N_23  and  C_24 
REMARK    9  A    between atoms: C_24  and  C_26 
REMARK   10  A    between atoms: C_26  and  C_27 
ROOT
ATOM      1  N   UNL d   1      29.453 -16.434  -2.773  0.00  0.00    -0.273 N 
ATOM      2  H   UNL d   1      30.166 -16.585  -2.061  0.00  0.00     0.189 HD
ENDROOT
BRANCH   1   3
ATOM      3  C   UNL d   1      29.669 -16.049  -4.109  0.00  0.00     0.193 C 
ATOM      4  S   UNL d   1      30.608 -17.028  -5.116  0.00  0.00    -0.039 SA
BRANCH   3   5
ATOM      5  N   UNL d   1      29.058 -14.833  -4.495  0.00  0.00    -0.298 N 
ATOM      6  C   UNL d   1      27.711 -14.661  -4.901  0.00  0.00     0.257 C 
ATOM      7  O   UNL d   1      26.892 -15.577  -4.959  0.00  0.00    -0.267 OA
ATOM      8  H   UNL d   1      29.641 -14.014  -4.468  0.00  0.00     0.171 HD
BRANCH   6   9
ATOM      9  C   UNL d   1      27.172 -13.308  -5.281  0.00  0.00     0.033 A 
ATOM     10  C   UNL d   1      26.364 -12.642  -4.323  0.00  0.00     0.017 A 
ATOM     11  C   UNL d   1      25.876 -11.350  -4.545  0.00  0.00     0.002 A 
ATOM     12  C   UNL d   1      26.149 -10.716  -5.753  0.00  0.00     0.017 A 
ATOM     13  C   UNL d   1      26.957 -11.352  -6.707  0.00  0.00     0.040 A 
ATOM     14  C   UNL d   1      27.458 -12.650  -6.478  0.00  0.00     0.034 A 
BRANCH  13  15
ATOM     15  C   UNL d   1      27.406 -10.572  -7.885  0.00  0.00     0.292 C 
ATOM     16  O   UNL d   1      28.493 -10.004  -7.923  0.00  0.00    -0.259 OA
BRANCH  15  17
ATOM     17  O   UNL d   1      26.481 -10.595  -8.874  0.00  0.00    -0.323 OA
ATOM     18  C   UNL d   1      26.838  -9.808 -10.019  0.00  0.00     0.213 C 
ENDBRANCH  15  17
ENDBRANCH  13  15
ENDBRANCH   6   9
ENDBRANCH   3   5
ENDBRANCH   1   3
BRANCH   1  19
ATOM     19  N   UNL d   1      28.094 -16.677  -2.334  0.00  0.00    -0.264 N 
ATOM     20  C   UNL d   1      27.771 -16.893  -1.000  0.00  0.00     0.270 C 
ATOM     21  O   UNL d   1      28.608 -16.913  -0.103  0.00  0.00    -0.266 OA
ATOM     22  H   UNL d   1      27.385 -16.593  -3.063  0.00  0.00     0.190 HD
BRANCH  20  23
ATOM     23  C   UNL d   1      26.319 -17.149  -0.683  0.00  0.00     0.033 A 
ATOM     24  C   UNL d   1      25.906 -18.229   0.122  0.00  0.00     0.019 A 
ATOM     25  C   UNL d   1      24.531 -18.559   0.279  0.00  0.00     0.030 A 
ATOM     26  C   UNL d   1      23.541 -17.773  -0.319  0.00  0.00     0.034 A 
ATOM     27  C   UNL d   1      23.983 -16.725  -1.141  0.00  0.00     0.030 A 
ATOM     28  C   UNL d   1      25.334 -16.400  -1.312  0.00  0.00     0.019 A 
BRANCH  26  29
ATOM     29  N   UNL d   1      22.148 -18.022  -0.082  0.00  0.00    -0.327 N 
ATOM     30  C   UNL d   1      21.368 -18.809  -0.921  0.00  0.00     0.222 C 
ATOM     31  O   UNL d   1      21.789 -19.322  -1.958  0.00  0.00    -0.273 OA
ATOM     32  H   UNL d   1      21.687 -17.491   0.649  0.00  0.00     0.169 HD
BRANCH  30  33
ATOM     33  C   UNL d   1      19.899 -19.010  -0.562  0.00  0.00     0.107 C 
BRANCH  33  34
ATOM     34  C   UNL d   1      19.780 -20.166   0.474  0.00  0.00    -0.014 C 
ATOM     35  C   UNL d   1      20.073 -19.687   1.906  0.00  0.00     0.010 C 
ATOM     36  C   UNL d   1      18.396 -20.809   0.451  0.00  0.00     0.010 C 
ENDBRANCH  33  34
ENDBRANCH  30  33
ENDBRANCH  26  29
ENDBRANCH  20  23
ENDBRANCH   1  19
TORSDOF 10
ENDMDL
