MODEL 1
REMARK VINA RESULT:    -8.066      0.000      0.000
REMARK INTER + INTRA:         -11.232
REMARK INTER:                 -10.154
REMARK INTRA:                  -1.078
REMARK CONF_INDEPENDENT:        2.088
REMARK UNBOUND:                -1.078
REMARK  7 active torsions:
REMARK  status: ('A' for Active; 'I' for Inactive)
REMARK    1  A    between atoms: C_5  and  C_4 
REMARK    2  A    between atoms: C_6  and  C_7 
REMARK       I    between atoms: C_7  and  N_9 
REMARK    3  A    between atoms: N_9  and  C_10 
REMARK    4  A    between atoms: C_11  and  C_10 
REMARK    5  A    between atoms: C_11  and  C_13 
REMARK    6  A    between atoms: C_11  and  O_12 
REMARK    7  A    between atoms: C_16  and  N_17 
ROOT
ATOM      1  C   UNL d   1      26.717 -15.144  -3.989  0.00  0.00     0.223 C 
ATOM      2  O   UNL d   1      25.532 -15.039  -4.292  0.00  0.00    -0.273 OA
ATOM      3  N   UNL d   1      27.125 -15.267  -2.629  0.00  0.00    -0.358 N 
ATOM      4  H   UNL d   1      28.075 -15.523  -2.399  0.00  0.00     0.162 HD
ENDROOT
BRANCH   3   5
ATOM      5  C   UNL d   1      26.001 -15.552  -1.738  0.00  0.00     0.159 C 
BRANCH   5   6
ATOM      6  C   UNL d   1      25.774 -16.620  -0.618  0.00  0.00     0.169 C 
BRANCH   6   7
ATOM      7  C   UNL d   1      24.323 -17.193  -0.612  0.00  0.00    -0.028 C 
ATOM      8  C   UNL d   1      24.045 -18.580  -0.516  0.00  0.00     0.012 C 
ATOM      9  C   UNL d   1      22.790 -19.120  -0.750  0.00  0.00     0.037 C 
ATOM     10  C   UNL d   1      21.714 -18.262  -0.898  0.00  0.00     0.102 C 
ATOM     11  C   UNL d   1      21.912 -16.874  -0.897  0.00  0.00     0.037 C 
ATOM     12  C   UNL d   1      23.213 -16.345  -0.768  0.00  0.00     0.012 C 
BRANCH  10  13
ATOM     13  N   UNL d   1      20.374 -18.848  -0.962  0.00  0.00    -0.116 N 
ATOM     14  O   UNL d   1      19.404 -18.088  -0.891  0.00  0.00    -0.532 OA
ATOM     15  O   UNL d   1      20.297 -20.081  -1.115  0.00  0.00    -0.532 OA
ENDBRANCH  10  13
ENDBRANCH   6   7
BRANCH   6  16
ATOM     16  O   UNL d   1      26.661 -17.726  -0.868  0.00  0.00    -0.389 OA
ATOM     17  H   UNL d   1      27.384 -17.396  -1.434  0.00  0.00     0.210 HD
ENDBRANCH   6  16
ENDBRANCH   5   6
ENDBRANCH   3   5
BRANCH   1  18
ATOM     18  C   UNL d   1      27.656 -15.200  -5.146  0.00  0.00     0.094 A 
ATOM     19  C   UNL d   1      29.143 -15.390  -5.111  0.00  0.00     0.030 A 
ATOM     20  C   UNL d   1      28.561 -14.034  -5.525  0.00  0.00    -0.027 A 
ATOM     21  C   UNL d   1      28.806 -12.889  -4.575  0.00  0.00     0.016 C 
ATOM     22  C   UNL d   1      28.476 -13.566  -6.968  0.00  0.00     0.016 C 
BRANCH  19  23
ATOM     23  C   UNL d   1      29.851 -16.289  -6.056  0.00  0.00    -0.019 C 
ATOM     24  C   UNL d   1      30.437 -17.469  -5.747  0.00  0.00    -0.091 C 
ATOM     25  C   UNL d   1      30.612 -17.914  -4.326  0.00  0.00     0.042 C 
ATOM     26  C   UNL d   1      30.902 -18.449  -6.793  0.00  0.00     0.042 C 
ENDBRANCH  19  23
ENDBRANCH   1  18
TORSDOF 7
ENDMDL
MODEL 2
REMARK VINA RESULT:    -7.972      1.829      3.635
REMARK INTER + INTRA:         -10.981
REMARK INTER:                 -10.060
REMARK INTRA:                  -0.921
REMARK CONF_INDEPENDENT:        2.088
REMARK UNBOUND:                -0.921
REMARK  7 active torsions:
REMARK  status: ('A' for Active; 'I' for Inactive)
REMARK    1  A    between atoms: C_5  and  C_4 
REMARK    2  A    between atoms: C_6  and  C_7 
REMARK       I    between atoms: C_7  and  N_9 
REMARK    3  A    between atoms: N_9  and  C_10 
REMARK    4  A    between atoms: C_11  and  C_10 
REMARK    5  A    between atoms: C_11  and  C_13 
REMARK    6  A    between atoms: C_11  and  O_12 
REMARK    7  A    between atoms: C_16  and  N_17 
ROOT
ATOM      1  C   UNL d   1      26.316 -14.518  -3.292  0.00  0.00     0.223 C 
ATOM      2  O   UNL d   1      25.517 -15.209  -3.917  0.00  0.00    -0.273 OA
ATOM      3  N   UNL d   1      26.744 -14.885  -1.983  0.00  0.00    -0.358 N 
ATOM      4  H   UNL d   1      27.523 -14.412  -1.546  0.00  0.00     0.162 HD
ENDROOT
BRANCH   3   5
ATOM      5  C   UNL d   1      26.374 -16.260  -1.645  0.00  0.00     0.159 C 
BRANCH   5   6
ATOM      6  C   UNL d   1      25.861 -16.931  -0.329  0.00  0.00     0.169 C 
BRANCH   6   7
ATOM      7  C   UNL d   1      24.389 -17.437  -0.441  0.00  0.00    -0.028 C 
ATOM      8  C   UNL d   1      24.044 -18.812  -0.397  0.00  0.00     0.012 C 
ATOM      9  C   UNL d   1      22.788 -19.289  -0.733  0.00  0.00     0.037 C 
ATOM     10  C   UNL d   1      21.764 -18.380  -0.940  0.00  0.00     0.102 C 
ATOM     11  C   UNL d   1      22.023 -17.003  -0.894  0.00  0.00     0.037 C 
ATOM     12  C   UNL d   1      23.332 -16.536  -0.658  0.00  0.00     0.012 C 
BRANCH  10  13
ATOM     13  N   UNL d   1      20.409 -18.903  -1.114  0.00  0.00    -0.116 N 
ATOM     14  O   UNL d   1      19.464 -18.210  -0.726  0.00  0.00    -0.532 OA
ATOM     15  O   UNL d   1      20.290 -20.009  -1.673  0.00  0.00    -0.532 OA
ENDBRANCH  10  13
ENDBRANCH   6   7
BRANCH   6  16
ATOM     16  O   UNL d   1      26.682 -18.083  -0.065  0.00  0.00    -0.389 OA
ATOM     17  H   UNL d   1      27.548 -17.925  -0.486  0.00  0.00     0.210 HD
ENDBRANCH   6  16
ENDBRANCH   5   6
ENDBRANCH   3   5
BRANCH   1  18
ATOM     18  C   UNL d   1      26.835 -13.334  -4.033  0.00  0.00     0.094 A 
ATOM     19  C   UNL d   1      26.307 -12.747  -5.308  0.00  0.00     0.030 A 
ATOM     20  C   UNL d   1      27.664 -13.461  -5.306  0.00  0.00    -0.027 A 
ATOM     21  C   UNL d   1      27.732 -14.757  -6.072  0.00  0.00     0.016 C 
ATOM     22  C   UNL d   1      28.994 -12.727  -5.311  0.00  0.00     0.016 C 
BRANCH  19  23
ATOM     23  C   UNL d   1      26.163 -11.284  -5.510  0.00  0.00    -0.019 C 
ATOM     24  C   UNL d   1      26.454 -10.603  -6.642  0.00  0.00    -0.091 C 
ATOM     25  C   UNL d   1      27.168 -11.251  -7.790  0.00  0.00     0.042 C 
ATOM     26  C   UNL d   1      26.037  -9.172  -6.865  0.00  0.00     0.042 C 
ENDBRANCH  19  23
ENDBRANCH   1  18
TORSDOF 7
ENDMDL
MODEL 3
REMARK VINA RESULT:    -7.862      5.151      7.748
REMARK INTER + INTRA:         -11.190
REMARK INTER:                  -9.950
REMARK INTRA:                  -1.240
REMARK CONF_INDEPENDENT:        2.088
REMARK UNBOUND:                -1.240
REMARK  7 active torsions:
REMARK  status: ('A' for Active; 'I' for Inactive)
REMARK    1  A    between atoms: C_5  and  C_4 
REMARK    2  A    between atoms: C_6  and  C_7 
REMARK       I    between atoms: C_7  and  N_9 
REMARK    3  A    between atoms: N_9  and  C_10 
REMARK    4  A    between atoms: C_11  and  C_10 
REMARK    5  A    between atoms: C_11  and  C_13 
REMARK    6  A    between atoms: C_11  and  O_12 
REMARK    7  A    between atoms: C_16  and  N_17 
ROOT
ATOM      1  C   UNL d   1      27.245 -14.747  -0.382  0.00  0.00     0.223 C 
ATOM      2  O   UNL d   1      27.735 -13.670  -0.710  0.00  0.00    -0.273 OA
ATOM      3  N   UNL d   1      27.804 -15.522   0.675  0.00  0.00    -0.358 N 
ATOM      4  H   UNL d   1      27.302 -16.315   1.051  0.00  0.00     0.162 HD
ENDROOT
BRANCH   3   5
ATOM      5  C   UNL d   1      28.774 -14.764   1.465  0.00  0.00     0.159 C 
BRANCH   5   6
ATOM      6  C   UNL d   1      28.723 -14.136   2.896  0.00  0.00     0.169 C 
BRANCH   6   7
ATOM      7  C   UNL d   1      27.963 -12.774   2.934  0.00  0.00    -0.028 C 
ATOM      8  C   UNL d   1      27.245 -12.263   1.824  0.00  0.00     0.012 C 
ATOM      9  C   UNL d   1      26.773 -10.962   1.759  0.00  0.00     0.037 C 
ATOM     10  C   UNL d   1      26.834 -10.175   2.896  0.00  0.00     0.102 C 
ATOM     11  C   UNL d   1      27.443 -10.663   4.061  0.00  0.00     0.037 C 
ATOM     12  C   UNL d   1      28.016 -11.952   4.073  0.00  0.00     0.012 C 
BRANCH  10  13
ATOM     13  N   UNL d   1      26.171  -8.871   2.863  0.00  0.00    -0.116 N 
ATOM     14  O   UNL d   1      25.158  -8.752   2.167  0.00  0.00    -0.532 OA
ATOM     15  O   UNL d   1      26.655  -7.965   3.565  0.00  0.00    -0.532 OA
ENDBRANCH  10  13
ENDBRANCH   6   7
BRANCH   6  16
ATOM     16  O   UNL d   1      28.007 -15.041   3.757  0.00  0.00    -0.389 OA
ATOM     17  H   UNL d   1      28.659 -15.662   4.131  0.00  0.00     0.210 HD
ENDBRANCH   6  16
ENDBRANCH   5   6
ENDBRANCH   3   5
BRANCH   1  18
ATOM     18  C   UNL d   1      26.007 -15.122  -1.122  0.00  0.00     0.094 A 
ATOM     19  C   UNL d   1      25.714 -16.415  -1.823  0.00  0.00     0.030 A 
ATOM     20  C   UNL d   1      25.934 -15.139  -2.644  0.00  0.00    -0.027 A 
ATOM     21  C   UNL d   1      27.181 -15.102  -3.490  0.00  0.00     0.016 C 
ATOM     22  C   UNL d   1      24.801 -14.340  -3.266  0.00  0.00     0.016 C 
BRANCH  19  23
ATOM     23  C   UNL d   1      24.399 -17.095  -1.720  0.00  0.00    -0.019 C 
ATOM     24  C   UNL d   1      23.956 -17.819  -0.667  0.00  0.00    -0.091 C 
ATOM     25  C   UNL d   1      24.861 -18.193   0.469  0.00  0.00     0.042 C 
ATOM     26  C   UNL d   1      22.521 -18.255  -0.521  0.00  0.00     0.042 C 
ENDBRANCH  19  23
ENDBRANCH   1  18
TORSDOF 7
ENDMDL
MODEL 4
REMARK VINA RESULT:    -7.649      2.142      3.931
REMARK INTER + INTRA:         -11.584
REMARK INTER:                  -9.737
REMARK INTRA:                  -1.847
REMARK CONF_INDEPENDENT:        2.088
REMARK UNBOUND:                -1.847
REMARK  7 active torsions:
REMARK  status: ('A' for Active; 'I' for Inactive)
REMARK    1  A    between atoms: C_5  and  C_4 
REMARK    2  A    between atoms: C_6  and  C_7 
REMARK       I    between atoms: C_7  and  N_9 
REMARK    3  A    between atoms: N_9  and  C_10 
REMARK    4  A    between atoms: C_11  and  C_10 
REMARK    5  A    between atoms: C_11  and  C_13 
REMARK    6  A    between atoms: C_11  and  O_12 
REMARK    7  A    between atoms: C_16  and  N_17 
ROOT
ATOM      1  C   UNL d   1      25.850 -14.064  -2.412  0.00  0.00     0.223 C 
ATOM      2  O   UNL d   1      24.839 -14.713  -2.667  0.00  0.00    -0.273 OA
ATOM      3  N   UNL d   1      26.443 -14.097  -1.117  0.00  0.00    -0.358 N 
ATOM      4  H   UNL d   1      27.360 -13.702  -0.961  0.00  0.00     0.162 HD
ENDROOT
BRANCH   3   5
ATOM      5  C   UNL d   1      25.908 -15.180  -0.291  0.00  0.00     0.159 C 
BRANCH   5   6
ATOM      6  C   UNL d   1      25.897 -16.735  -0.450  0.00  0.00     0.169 C 
BRANCH   6   7
ATOM      7  C   UNL d   1      24.456 -17.334  -0.468  0.00  0.00    -0.028 C 
ATOM      8  C   UNL d   1      24.195 -18.714  -0.275  0.00  0.00     0.012 C 
ATOM      9  C   UNL d   1      22.962 -19.294  -0.524  0.00  0.00     0.037 C 
ATOM     10  C   UNL d   1      21.881 -18.471  -0.793  0.00  0.00     0.102 C 
ATOM     11  C   UNL d   1      22.059 -17.084  -0.895  0.00  0.00     0.037 C 
ATOM     12  C   UNL d   1      23.343 -16.522  -0.746  0.00  0.00     0.012 C 
BRANCH  10  13
ATOM     13  N   UNL d   1      20.556 -19.086  -0.875  0.00  0.00    -0.116 N 
ATOM     14  O   UNL d   1      20.279 -19.738  -1.886  0.00  0.00    -0.532 OA
ATOM     15  O   UNL d   1      19.796 -18.937   0.099  0.00  0.00    -0.532 OA
ENDBRANCH  10  13
ENDBRANCH   6   7
BRANCH   6  16
ATOM     16  O   UNL d   1      26.502 -17.059  -1.716  0.00  0.00    -0.389 OA
ATOM     17  H   UNL d   1      26.219 -16.378  -2.355  0.00  0.00     0.210 HD
ENDBRANCH   6  16
ENDBRANCH   5   6
ENDBRANCH   3   5
BRANCH   1  18
ATOM     18  C   UNL d   1      26.420 -13.314  -3.567  0.00  0.00     0.094 A 
ATOM     19  C   UNL d   1      25.715 -12.884  -4.819  0.00  0.00     0.030 A 
ATOM     20  C   UNL d   1      26.777 -13.988  -4.886  0.00  0.00    -0.027 A 
ATOM     21  C   UNL d   1      26.276 -15.369  -5.223  0.00  0.00     0.016 C 
ATOM     22  C   UNL d   1      28.191 -13.758  -5.392  0.00  0.00     0.016 C 
BRANCH  19  23
ATOM     23  C   UNL d   1      25.907 -11.540  -5.417  0.00  0.00    -0.019 C 
ATOM     24  C   UNL d   1      25.990 -10.371  -4.740  0.00  0.00    -0.091 C 
ATOM     25  C   UNL d   1      25.685 -10.285  -3.275  0.00  0.00     0.042 C 
ATOM     26  C   UNL d   1      26.448  -9.086  -5.381  0.00  0.00     0.042 C 
ENDBRANCH  19  23
ENDBRANCH   1  18
TORSDOF 7
ENDMDL
MODEL 5
REMARK VINA RESULT:    -7.562      8.836     11.877
REMARK INTER + INTRA:         -10.913
REMARK INTER:                  -9.650
REMARK INTRA:                  -1.263
REMARK CONF_INDEPENDENT:        2.088
REMARK UNBOUND:                -1.263
REMARK  7 active torsions:
REMARK  status: ('A' for Active; 'I' for Inactive)
REMARK    1  A    between atoms: C_5  and  C_4 
REMARK    2  A    between atoms: C_6  and  C_7 
REMARK       I    between atoms: C_7  and  N_9 
REMARK    3  A    between atoms: N_9  and  C_10 
REMARK    4  A    between atoms: C_11  and  C_10 
REMARK    5  A    between atoms: C_11  and  C_13 
REMARK    6  A    between atoms: C_11  and  O_12 
REMARK    7  A    between atoms: C_16  and  N_17 
ROOT
ATOM      1  C   UNL d   1      29.513 -14.368   5.849  0.00  0.00     0.223 C 
ATOM      2  O   UNL d   1      28.364 -14.780   5.714  0.00  0.00    -0.273 OA
ATOM      3  N   UNL d   1      30.405 -14.289   4.741  0.00  0.00    -0.358 N 
ATOM      4  H   UNL d   1      31.283 -13.794   4.823  0.00  0.00     0.162 HD
ENDROOT
BRANCH   3   5
ATOM      5  C   UNL d   1      29.715 -14.450   3.462  0.00  0.00     0.159 C 
BRANCH   5   6
ATOM      6  C   UNL d   1      28.215 -14.325   3.038  0.00  0.00     0.169 C 
BRANCH   6   7
ATOM      7  C   UNL d   1      27.744 -12.844   2.904  0.00  0.00    -0.028 C 
ATOM      8  C   UNL d   1      28.007 -11.862   3.893  0.00  0.00     0.012 C 
ATOM      9  C   UNL d   1      27.397 -10.618   3.907  0.00  0.00     0.037 C 
ATOM     10  C   UNL d   1      26.641 -10.235   2.812  0.00  0.00     0.102 C 
ATOM     11  C   UNL d   1      26.430 -11.129   1.753  0.00  0.00     0.037 C 
ATOM     12  C   UNL d   1      26.968 -12.431   1.807  0.00  0.00     0.012 C 
BRANCH  10  13
ATOM     13  N   UNL d   1      26.156  -8.855   2.763  0.00  0.00    -0.116 N 
ATOM     14  O   UNL d   1      26.706  -8.020   3.488  0.00  0.00    -0.532 OA
ATOM     15  O   UNL d   1      25.233  -8.602   1.968  0.00  0.00    -0.532 OA
ENDBRANCH  10  13
ENDBRANCH   6   7
BRANCH   6  16
ATOM     16  O   UNL d   1      28.064 -14.932   1.741  0.00  0.00    -0.389 OA
ATOM     17  H   UNL d   1      28.709 -15.662   1.686  0.00  0.00     0.210 HD
ENDBRANCH   6  16
ENDBRANCH   5   6
ENDBRANCH   3   5
BRANCH   1  18
ATOM     18  C   UNL d   1      29.854 -13.907   7.225  0.00  0.00     0.094 A 
ATOM     19  C   UNL d   1      28.987 -13.949   8.447  0.00  0.00     0.030 A 
ATOM     20  C   UNL d   1      29.330 -12.599   7.806  0.00  0.00    -0.027 A 
ATOM     21  C   UNL d   1      28.184 -11.859   7.165  0.00  0.00     0.016 C 
ATOM     22  C   UNL d   1      30.378 -11.651   8.364  0.00  0.00     0.016 C 
BRANCH  19  23
ATOM     23  C   UNL d   1      29.503 -14.368   9.774  0.00  0.00    -0.019 C 
ATOM     24  C   UNL d   1      28.883 -14.189  10.963  0.00  0.00    -0.091 C 
ATOM     25  C   UNL d   1      27.656 -13.338  11.092  0.00  0.00     0.042 C 
ATOM     26  C   UNL d   1      29.334 -14.870  12.230  0.00  0.00     0.042 C 
ENDBRANCH  19  23
ENDBRANCH   1  18
TORSDOF 7
ENDMDL
MODEL 6
REMARK VINA RESULT:    -7.557      4.480      6.883
REMARK INTER + INTRA:         -11.118
REMARK INTER:                  -9.645
REMARK INTRA:                  -1.473
REMARK CONF_INDEPENDENT:        2.088
REMARK UNBOUND:                -1.473
REMARK  7 active torsions:
REMARK  status: ('A' for Active; 'I' for Inactive)
REMARK    1  A    between atoms: C_5  and  C_4 
REMARK    2  A    between atoms: C_6  and  C_7 
REMARK       I    between atoms: C_7  and  N_9 
REMARK    3  A    between atoms: N_9  and  C_10 
REMARK    4  A    between atoms: C_11  and  C_10 
REMARK    5  A    between atoms: C_11  and  C_13 
REMARK    6  A    between atoms: C_11  and  O_12 
REMARK    7  A    between atoms: C_16  and  N_17 
ROOT
ATOM      1  C   UNL d   1      27.715 -15.029   1.328  0.00  0.00     0.223 C 
ATOM      2  O   UNL d   1      27.479 -14.246   0.412  0.00  0.00    -0.273 OA
ATOM      3  N   UNL d   1      27.404 -16.415   1.214  0.00  0.00    -0.358 N 
ATOM      4  H   UNL d   1      27.753 -17.077   1.893  0.00  0.00     0.162 HD
ENDROOT
BRANCH   3   5
ATOM      5  C   UNL d   1      27.087 -16.800  -0.161  0.00  0.00     0.159 C 
BRANCH   5   6
ATOM      6  C   UNL d   1      25.927 -16.410  -1.136  0.00  0.00     0.169 C 
BRANCH   6   7
ATOM      7  C   UNL d   1      24.594 -17.158  -0.822  0.00  0.00    -0.028 C 
ATOM      8  C   UNL d   1      24.542 -18.544  -0.529  0.00  0.00     0.012 C 
ATOM      9  C   UNL d   1      23.360 -19.266  -0.487  0.00  0.00     0.037 C 
ATOM     10  C   UNL d   1      22.159 -18.580  -0.547  0.00  0.00     0.102 C 
ATOM     11  C   UNL d   1      22.148 -17.191  -0.734  0.00  0.00     0.037 C 
ATOM     12  C   UNL d   1      23.361 -16.487  -0.884  0.00  0.00     0.012 C 
BRANCH  10  13
ATOM     13  N   UNL d   1      20.926 -19.336  -0.321  0.00  0.00    -0.116 N 
ATOM     14  O   UNL d   1      20.281 -19.703  -1.307  0.00  0.00    -0.532 OA
ATOM     15  O   UNL d   1      20.619 -19.588   0.859  0.00  0.00    -0.532 OA
ENDBRANCH  10  13
ENDBRANCH   6   7
BRANCH   6  16
ATOM     16  O   UNL d   1      25.666 -15.003  -0.980  0.00  0.00    -0.389 OA
ATOM     17  H   UNL d   1      26.524 -14.541  -1.035  0.00  0.00     0.210 HD
ENDBRANCH   6  16
ENDBRANCH   5   6
ENDBRANCH   3   5
BRANCH   1  18
ATOM     18  C   UNL d   1      28.400 -14.426   2.506  0.00  0.00     0.094 A 
ATOM     19  C   UNL d   1      27.807 -14.107   3.846  0.00  0.00     0.030 A 
ATOM     20  C   UNL d   1      28.213 -12.967   2.905  0.00  0.00    -0.027 A 
ATOM     21  C   UNL d   1      27.087 -12.137   2.345  0.00  0.00     0.016 C 
ATOM     22  C   UNL d   1      29.486 -12.155   3.077  0.00  0.00     0.016 C 
BRANCH  19  23
ATOM     23  C   UNL d   1      28.515 -14.398   5.117  0.00  0.00    -0.019 C 
ATOM     24  C   UNL d   1      28.547 -13.603   6.212  0.00  0.00    -0.091 C 
ATOM     25  C   UNL d   1      28.016 -12.201   6.184  0.00  0.00     0.042 C 
ATOM     26  C   UNL d   1      29.057 -14.074   7.549  0.00  0.00     0.042 C 
ENDBRANCH  19  23
ENDBRANCH   1  18
TORSDOF 7
ENDMDL
MODEL 7
REMARK VINA RESULT:    -7.303      5.892      8.534
REMARK INTER + INTRA:         -10.621
REMARK INTER:                  -9.391
REMARK INTRA:                  -1.230
REMARK CONF_INDEPENDENT:        2.088
REMARK UNBOUND:                -1.230
REMARK  7 active torsions:
REMARK  status: ('A' for Active; 'I' for Inactive)
REMARK    1  A    between atoms: C_5  and  C_4 
REMARK    2  A    between atoms: C_6  and  C_7 
REMARK       I    between atoms: C_7  and  N_9 
REMARK    3  A    between atoms: N_9  and  C_10 
REMARK    4  A    between atoms: C_11  and  C_10 
REMARK    5  A    between atoms: C_11  and  C_13 
REMARK    6  A    between atoms: C_11  and  O_12 
REMARK    7  A    between atoms: C_16  and  N_17 
ROOT
ATOM      1  C   UNL d   1      27.606 -14.559   1.098  0.00  0.00     0.223 C 
ATOM      2  O   UNL d   1      26.942 -13.525   1.101  0.00  0.00    -0.273 OA
ATOM      3  N   UNL d   1      28.810 -14.666   1.852  0.00  0.00    -0.358 N 
ATOM      4  H   UNL d   1      29.256 -15.564   1.982  0.00  0.00     0.162 HD
ENDROOT
BRANCH   3   5
ATOM      5  C   UNL d   1      28.962 -13.571   2.810  0.00  0.00     0.159 C 
BRANCH   5   6
ATOM      6  C   UNL d   1      28.041 -13.010   3.942  0.00  0.00     0.169 C 
BRANCH   6   7
ATOM      7  C   UNL d   1      27.479 -11.590   3.620  0.00  0.00    -0.028 C 
ATOM      8  C   UNL d   1      26.653 -11.328   2.498  0.00  0.00     0.012 C 
ATOM      9  C   UNL d   1      26.348 -10.048   2.064  0.00  0.00     0.037 C 
ATOM     10  C   UNL d   1      26.703  -8.973   2.861  0.00  0.00     0.102 C 
ATOM     11  C   UNL d   1      27.434  -9.179   4.040  0.00  0.00     0.037 C 
ATOM     12  C   UNL d   1      27.830 -10.481   4.408  0.00  0.00     0.012 C 
BRANCH  10  13
ATOM     13  N   UNL d   1      26.216  -7.647   2.480  0.00  0.00    -0.116 N 
ATOM     14  O   UNL d   1      25.530  -7.552   1.457  0.00  0.00    -0.532 OA
ATOM     15  O   UNL d   1      26.500  -6.696   3.231  0.00  0.00    -0.532 OA
ENDBRANCH  10  13
ENDBRANCH   6   7
BRANCH   6  16
ATOM     16  O   UNL d   1      26.909 -13.889   4.074  0.00  0.00    -0.389 OA
ATOM     17  H   UNL d   1      26.569 -14.061   3.176  0.00  0.00     0.210 HD
ENDBRANCH   6  16
ENDBRANCH   5   6
ENDBRANCH   3   5
BRANCH   1  18
ATOM     18  C   UNL d   1      27.016 -15.679   0.311  0.00  0.00     0.094 A 
ATOM     19  C   UNL d   1      27.099 -17.147   0.603  0.00  0.00     0.030 A 
ATOM     20  C   UNL d   1      27.850 -16.569  -0.602  0.00  0.00    -0.027 A 
ATOM     21  C   UNL d   1      29.355 -16.589  -0.517  0.00  0.00     0.016 C 
ATOM     22  C   UNL d   1      27.361 -16.701  -2.034  0.00  0.00     0.016 C 
BRANCH  19  23
ATOM     23  C   UNL d   1      25.931 -18.052   0.470  0.00  0.00    -0.019 C 
ATOM     24  C   UNL d   1      24.762 -17.759  -0.146  0.00  0.00    -0.091 C 
ATOM     25  C   UNL d   1      24.438 -16.367  -0.600  0.00  0.00     0.042 C 
ATOM     26  C   UNL d   1      23.728 -18.803  -0.476  0.00  0.00     0.042 C 
ENDBRANCH  19  23
ENDBRANCH   1  18
TORSDOF 7
ENDMDL
MODEL 8
REMARK VINA RESULT:    -7.288      9.532     12.316
REMARK INTER + INTRA:         -10.516
REMARK INTER:                  -9.376
REMARK INTRA:                  -1.140
REMARK CONF_INDEPENDENT:        2.088
REMARK UNBOUND:                -1.140
REMARK  7 active torsions:
REMARK  status: ('A' for Active; 'I' for Inactive)
REMARK    1  A    between atoms: C_5  and  C_4 
REMARK    2  A    between atoms: C_6  and  C_7 
REMARK       I    between atoms: C_7  and  N_9 
REMARK    3  A    between atoms: N_9  and  C_10 
REMARK    4  A    between atoms: C_11  and  C_10 
REMARK    5  A    between atoms: C_11  and  C_13 
REMARK    6  A    between atoms: C_11  and  O_12 
REMARK    7  A    between atoms: C_16  and  N_17 
ROOT
ATOM      1  C   UNL d   1      28.571 -13.562   7.071  0.00  0.00     0.223 C 
ATOM      2  O   UNL d   1      27.831 -12.611   6.833  0.00  0.00    -0.273 OA
ATOM      3  N   UNL d   1      28.489 -14.769   6.318  0.00  0.00    -0.358 N 
ATOM      4  H   UNL d   1      29.206 -15.476   6.402  0.00  0.00     0.162 HD
ENDROOT
BRANCH   3   5
ATOM      5  C   UNL d   1      27.683 -14.613   5.107  0.00  0.00     0.159 C 
BRANCH   5   6
ATOM      6  C   UNL d   1      28.030 -14.175   3.646  0.00  0.00     0.169 C 
BRANCH   6   7
ATOM      7  C   UNL d   1      27.626 -12.698   3.344  0.00  0.00    -0.028 C 
ATOM      8  C   UNL d   1      27.975 -11.617   4.192  0.00  0.00     0.012 C 
ATOM      9  C   UNL d   1      27.427 -10.350   4.070  0.00  0.00     0.037 C 
ATOM     10  C   UNL d   1      26.647 -10.066   2.961  0.00  0.00     0.102 C 
ATOM     11  C   UNL d   1      26.352 -11.072   2.030  0.00  0.00     0.037 C 
ATOM     12  C   UNL d   1      26.829 -12.384   2.229  0.00  0.00     0.012 C 
BRANCH  10  13
ATOM     13  N   UNL d   1      26.228  -8.679   2.756  0.00  0.00    -0.116 N 
ATOM     14  O   UNL d   1      26.666  -7.820   3.527  0.00  0.00    -0.532 OA
ATOM     15  O   UNL d   1      25.475  -8.447   1.794  0.00  0.00    -0.532 OA
ENDBRANCH  10  13
ENDBRANCH   6   7
BRANCH   6  16
ATOM     16  O   UNL d   1      29.457 -14.262   3.480  0.00  0.00    -0.389 OA
ATOM     17  H   UNL d   1      29.670 -15.196   3.294  0.00  0.00     0.210 HD
ENDBRANCH   6  16
ENDBRANCH   5   6
ENDBRANCH   3   5
BRANCH   1  18
ATOM     18  C   UNL d   1      29.579 -13.318   8.141  0.00  0.00     0.094 A 
ATOM     19  C   UNL d   1      30.070 -14.286   9.175  0.00  0.00     0.030 A 
ATOM     20  C   UNL d   1      29.192 -13.103   9.599  0.00  0.00    -0.027 A 
ATOM     21  C   UNL d   1      27.814 -13.448  10.105  0.00  0.00     0.016 C 
ATOM     22  C   UNL d   1      29.740 -11.848  10.257  0.00  0.00     0.016 C 
BRANCH  19  23
ATOM     23  C   UNL d   1      31.504 -14.400   9.540  0.00  0.00    -0.019 C 
ATOM     24  C   UNL d   1      32.041 -15.303  10.392  0.00  0.00    -0.091 C 
ATOM     25  C   UNL d   1      31.183 -16.189  11.244  0.00  0.00     0.042 C 
ATOM     26  C   UNL d   1      33.525 -15.533  10.511  0.00  0.00     0.042 C 
ENDBRANCH  19  23
ENDBRANCH   1  18
TORSDOF 7
ENDMDL
MODEL 9
REMARK VINA RESULT:    -7.257      1.441      2.100
REMARK INTER + INTRA:         -11.206
REMARK INTER:                  -9.345
REMARK INTRA:                  -1.861
REMARK CONF_INDEPENDENT:        2.088
REMARK UNBOUND:                -1.861
REMARK  7 active torsions:
REMARK  status: ('A' for Active; 'I' for Inactive)
REMARK    1  A    between atoms: C_5  and  C_4 
REMARK    2  A    between atoms: C_6  and  C_7 
REMARK       I    between atoms: C_7  and  N_9 
REMARK    3  A    between atoms: N_9  and  C_10 
REMARK    4  A    between atoms: C_11  and  C_10 
REMARK    5  A    between atoms: C_11  and  C_13 
REMARK    6  A    between atoms: C_11  and  O_12 
REMARK    7  A    between atoms: C_16  and  N_17 
ROOT
ATOM      1  C   UNL d   1      26.000 -14.354  -2.702  0.00  0.00     0.223 C 
ATOM      2  O   UNL d   1      25.113 -15.185  -2.874  0.00  0.00    -0.273 OA
ATOM      3  N   UNL d   1      26.494 -14.059  -1.399  0.00  0.00    -0.358 N 
ATOM      4  H   UNL d   1      27.333 -13.508  -1.279  0.00  0.00     0.162 HD
ENDROOT
BRANCH   3   5
ATOM      5  C   UNL d   1      26.056 -15.040  -0.406  0.00  0.00     0.159 C 
BRANCH   5   6
ATOM      6  C   UNL d   1      26.024 -16.603  -0.395  0.00  0.00     0.169 C 
BRANCH   6   7
ATOM      7  C   UNL d   1      24.577 -17.181  -0.485  0.00  0.00    -0.028 C 
ATOM      8  C   UNL d   1      24.311 -18.564  -0.645  0.00  0.00     0.012 C 
ATOM      9  C   UNL d   1      23.059 -19.064  -0.967  0.00  0.00     0.037 C 
ATOM     10  C   UNL d   1      21.975 -18.203  -0.948  0.00  0.00     0.102 C 
ATOM     11  C   UNL d   1      22.163 -16.837  -0.693  0.00  0.00     0.037 C 
ATOM     12  C   UNL d   1      23.460 -16.329  -0.476  0.00  0.00     0.012 C 
BRANCH  10  13
ATOM     13  N   UNL d   1      20.640 -18.780  -1.111  0.00  0.00    -0.116 N 
ATOM     14  O   UNL d   1      19.688 -18.199  -0.580  0.00  0.00    -0.532 OA
ATOM     15  O   UNL d   1      20.543 -19.809  -1.803  0.00  0.00    -0.532 OA
ENDBRANCH  10  13
ENDBRANCH   6   7
BRANCH   6  16
ATOM     16  O   UNL d   1      26.737 -17.073  -1.554  0.00  0.00    -0.389 OA
ATOM     17  H   UNL d   1      26.518 -16.473  -2.292  0.00  0.00     0.210 HD
ENDBRANCH   6  16
ENDBRANCH   5   6
ENDBRANCH   3   5
BRANCH   1  18
ATOM     18  C   UNL d   1      26.545 -13.752  -3.952  0.00  0.00     0.094 A 
ATOM     19  C   UNL d   1      27.831 -13.000  -4.122  0.00  0.00     0.030 A 
ATOM     20  C   UNL d   1      26.496 -12.255  -4.231  0.00  0.00    -0.027 A 
ATOM     21  C   UNL d   1      26.200 -11.262  -3.137  0.00  0.00     0.016 C 
ATOM     22  C   UNL d   1      25.874 -11.844  -5.555  0.00  0.00     0.016 C 
BRANCH  19  23
ATOM     23  C   UNL d   1      28.732 -13.218  -5.281  0.00  0.00    -0.019 C 
ATOM     24  C   UNL d   1      29.111 -14.417  -5.781  0.00  0.00    -0.091 C 
ATOM     25  C   UNL d   1      28.810 -15.700  -5.067  0.00  0.00     0.042 C 
ATOM     26  C   UNL d   1      29.807 -14.565  -7.110  0.00  0.00     0.042 C 
ENDBRANCH  19  23
ENDBRANCH   1  18
TORSDOF 7
ENDMDL
