MODEL 1
REMARK VINA RESULT:    -8.738      0.000      0.000
REMARK INTER + INTRA:         -11.817
REMARK INTER:                 -10.528
REMARK INTRA:                  -1.289
REMARK CONF_INDEPENDENT:        1.790
REMARK UNBOUND:                -1.289
REMARK  6 active torsions:
REMARK  status: ('A' for Active; 'I' for Inactive)
REMARK    1  A    between atoms: C_2  and  C_4 
REMARK    2  A    between atoms: C_4  and  C_5 
REMARK    3  A    between atoms: C_5  and  C_6 
REMARK       I    between atoms: C_6  and  N_8 
REMARK    4  A    between atoms: N_8  and  N_9 
REMARK       I    between atoms: N_9  and  C_10 
REMARK    5  A    between atoms: C_10  and  C_12 
REMARK    6  A    between atoms: C_14  and  N_15 
ROOT
ATOM      1  N   UNL d   1      23.621 -18.050  -0.920  0.00  0.00    -0.263 N 
ATOM      2  C   UNL d   1      24.948 -17.869  -0.557  0.00  0.00     0.271 C 
ATOM      3  O   UNL d   1      25.526 -18.595   0.255  0.00  0.00    -0.266 OA
ATOM      4  H   UNL d   1      23.119 -17.402  -1.531  0.00  0.00     0.190 HD
ENDROOT
BRANCH   2   5
ATOM      5  C   UNL d   1      25.703 -16.734  -1.197  0.00  0.00     0.057 A 
ATOM      6  C   UNL d   1      25.353 -16.311  -2.506  0.00  0.00     0.054 A 
ATOM      7  C   UNL d   1      26.098 -15.298  -3.154  0.00  0.00     0.103 A 
ATOM      8  C   UNL d   1      27.189 -14.703  -2.514  0.00  0.00     0.038 A 
ATOM      9  C   UNL d   1      27.538 -15.123  -1.231  0.00  0.00     0.027 A 
ATOM     10  C   UNL d   1      26.811 -16.132  -0.576  0.00  0.00     0.050 A 
ATOM     11 CL   UNL d   1      27.411 -16.607   0.972  0.00  0.00    -0.083 Cl
BRANCH   7  12
ATOM     12  N   UNL d   1      25.756 -14.851  -4.519  0.00  0.00    -0.116 N 
ATOM     13  O   UNL d   1      26.478 -15.231  -5.449  0.00  0.00    -0.532 OA
ATOM     14  O   UNL d   1      24.762 -14.121  -4.654  0.00  0.00    -0.532 OA
ENDBRANCH   7  12
ENDBRANCH   2   5
BRANCH   1  15
ATOM     15  N   UNL d   1      22.791 -18.980  -0.238  0.00  0.00    -0.267 N 
ATOM     16  C   UNL d   1      21.424 -18.940  -0.483  0.00  0.00     0.236 C 
ATOM     17  O   UNL d   1      20.925 -18.103  -1.236  0.00  0.00    -0.272 OA
ATOM     18  H   UNL d   1      23.247 -19.645   0.384  0.00  0.00     0.190 HD
BRANCH  16  19
ATOM     19  C   UNL d   1      20.603 -20.017   0.223  0.00  0.00     0.105 C 
BRANCH  19  20
ATOM     20  C   UNL d   1      19.139 -19.587   0.449  0.00  0.00     0.013 C 
BRANCH  20  21
ATOM     21  C   UNL d   1      18.483 -20.210   1.699  0.00  0.00    -0.022 C 
ATOM     22  C   UNL d   1      17.806 -21.539   1.345  0.00  0.00     0.009 C 
ATOM     23  C   UNL d   1      19.506 -20.451   2.809  0.00  0.00     0.009 C 
ENDBRANCH  20  21
ENDBRANCH  19  20
ENDBRANCH  16  19
ENDBRANCH   1  15
TORSDOF 6
ENDMDL
MODEL 2
REMARK VINA RESULT:    -8.372      1.461      1.589
REMARK INTER + INTRA:         -10.798
REMARK INTER:                 -10.162
REMARK INTRA:                  -0.637
REMARK CONF_INDEPENDENT:        1.790
REMARK UNBOUND:                -0.637
REMARK  6 active torsions:
REMARK  status: ('A' for Active; 'I' for Inactive)
REMARK    1  A    between atoms: C_2  and  C_4 
REMARK    2  A    between atoms: C_4  and  C_5 
REMARK    3  A    between atoms: C_5  and  C_6 
REMARK       I    between atoms: C_6  and  N_8 
REMARK    4  A    between atoms: N_8  and  N_9 
REMARK       I    between atoms: N_9  and  C_10 
REMARK    5  A    between atoms: C_10  and  C_12 
REMARK    6  A    between atoms: C_14  and  N_15 
ROOT
ATOM      1  N   UNL d   1      23.434 -17.821  -0.363  0.00  0.00    -0.263 N 
ATOM      2  C   UNL d   1      23.733 -16.626  -1.002  0.00  0.00     0.271 C 
ATOM      3  O   UNL d   1      22.897 -15.740  -1.194  0.00  0.00    -0.266 OA
ATOM      4  H   UNL d   1      24.105 -18.586  -0.274  0.00  0.00     0.190 HD
ENDROOT
BRANCH   2   5
ATOM      5  C   UNL d   1      25.149 -16.414  -1.470  0.00  0.00     0.057 A 
ATOM      6  C   UNL d   1      25.388 -15.711  -2.679  0.00  0.00     0.054 A 
ATOM      7  C   UNL d   1      26.705 -15.567  -3.175  0.00  0.00     0.103 A 
ATOM      8  C   UNL d   1      27.787 -16.118  -2.481  0.00  0.00     0.038 A 
ATOM      9  C   UNL d   1      27.551 -16.816  -1.297  0.00  0.00     0.027 A 
ATOM     10  C   UNL d   1      26.248 -16.972  -0.795  0.00  0.00     0.050 A 
ATOM     11 CL   UNL d   1      26.103 -17.931   0.634  0.00  0.00    -0.083 Cl
BRANCH   7  12
ATOM     12  N   UNL d   1      26.974 -14.847  -4.436  0.00  0.00    -0.116 N 
ATOM     13  O   UNL d   1      27.120 -13.620  -4.380  0.00  0.00    -0.532 OA
ATOM     14  O   UNL d   1      27.042 -15.517  -5.478  0.00  0.00    -0.532 OA
ENDBRANCH   7  12
ENDBRANCH   2   5
BRANCH   1  15
ATOM     15  N   UNL d   1      22.094 -18.173  -0.050  0.00  0.00    -0.267 N 
ATOM     16  C   UNL d   1      21.397 -18.964  -0.954  0.00  0.00     0.236 C 
ATOM     17  O   UNL d   1      21.897 -19.325  -2.020  0.00  0.00    -0.272 OA
ATOM     18  H   UNL d   1      21.718 -17.841   0.837  0.00  0.00     0.190 HD
BRANCH  16  19
ATOM     19  C   UNL d   1      19.990 -19.368  -0.518  0.00  0.00     0.105 C 
BRANCH  19  20
ATOM     20  C   UNL d   1      20.002 -20.435   0.596  0.00  0.00     0.013 C 
BRANCH  20  21
ATOM     21  C   UNL d   1      18.772 -20.393   1.525  0.00  0.00    -0.022 C 
ATOM     22  C   UNL d   1      17.822 -21.556   1.211  0.00  0.00     0.009 C 
ATOM     23  C   UNL d   1      19.176 -20.462   2.998  0.00  0.00     0.009 C 
ENDBRANCH  20  21
ENDBRANCH  19  20
ENDBRANCH  16  19
ENDBRANCH   1  15
TORSDOF 6
ENDMDL
MODEL 3
REMARK VINA RESULT:    -6.788      3.082      8.022
REMARK INTER + INTRA:         -10.200
REMARK INTER:                  -8.578
REMARK INTRA:                  -1.622
REMARK CONF_INDEPENDENT:        1.790
REMARK UNBOUND:                -1.622
REMARK  6 active torsions:
REMARK  status: ('A' for Active; 'I' for Inactive)
REMARK    1  A    between atoms: C_2  and  C_4 
REMARK    2  A    between atoms: C_4  and  C_5 
REMARK    3  A    between atoms: C_5  and  C_6 
REMARK       I    between atoms: C_6  and  N_8 
REMARK    4  A    between atoms: N_8  and  N_9 
REMARK       I    between atoms: N_9  and  C_10 
REMARK    5  A    between atoms: C_10  and  C_12 
REMARK    6  A    between atoms: C_14  and  N_15 
ROOT
ATOM      1  N   UNL d   1      26.095 -15.319  -3.213  0.00  0.00    -0.263 N 
ATOM      2  C   UNL d   1      25.835 -15.236  -1.852  0.00  0.00     0.271 C 
ATOM      3  O   UNL d   1      26.100 -14.238  -1.178  0.00  0.00    -0.266 OA
ATOM      4  H   UNL d   1      25.949 -16.173  -3.755  0.00  0.00     0.190 HD
ENDROOT
BRANCH   2   5
ATOM      5  C   UNL d   1      25.195 -16.426  -1.185  0.00  0.00     0.057 A 
ATOM      6  C   UNL d   1      23.858 -16.773  -1.508  0.00  0.00     0.054 A 
ATOM      7  C   UNL d   1      23.213 -17.839  -0.839  0.00  0.00     0.103 A 
ATOM      8  C   UNL d   1      23.886 -18.562   0.152  0.00  0.00     0.038 A 
ATOM      9  C   UNL d   1      25.197 -18.216   0.475  0.00  0.00     0.027 A 
ATOM     10  C   UNL d   1      25.849 -17.156  -0.178  0.00  0.00     0.050 A 
ATOM     11 CL   UNL d   1      27.439 -16.789   0.387  0.00  0.00    -0.083 Cl
BRANCH   7  12
ATOM     12  N   UNL d   1      21.819 -18.210  -1.154  0.00  0.00    -0.116 N 
ATOM     13  O   UNL d   1      20.930 -17.390  -0.895  0.00  0.00    -0.532 OA
ATOM     14  O   UNL d   1      21.622 -19.325  -1.663  0.00  0.00    -0.532 OA
ENDBRANCH   7  12
ENDBRANCH   2   5
BRANCH   1  15
ATOM     15  N   UNL d   1      26.851 -14.319  -3.880  0.00  0.00    -0.267 N 
ATOM     16  C   UNL d   1      27.194 -14.535  -5.209  0.00  0.00     0.236 C 
ATOM     17  O   UNL d   1      26.893 -15.575  -5.795  0.00  0.00    -0.272 OA
ATOM     18  H   UNL d   1      27.088 -13.481  -3.352  0.00  0.00     0.190 HD
BRANCH  16  19
ATOM     19  C   UNL d   1      27.939 -13.386  -5.886  0.00  0.00     0.105 C 
BRANCH  19  20
ATOM     20  C   UNL d   1      27.608 -12.018  -5.257  0.00  0.00     0.013 C 
BRANCH  20  21
ATOM     21  C   UNL d   1      26.105 -11.667  -5.261  0.00  0.00    -0.022 C 
ATOM     22  C   UNL d   1      25.693 -11.053  -3.918  0.00  0.00     0.009 C 
ATOM     23  C   UNL d   1      25.758 -10.690  -6.384  0.00  0.00     0.009 C 
ENDBRANCH  20  21
ENDBRANCH  19  20
ENDBRANCH  16  19
ENDBRANCH   1  15
TORSDOF 6
ENDMDL
MODEL 4
REMARK VINA RESULT:    -6.785      2.922      8.184
REMARK INTER + INTRA:         -10.042
REMARK INTER:                  -8.575
REMARK INTRA:                  -1.467
REMARK CONF_INDEPENDENT:        1.790
REMARK UNBOUND:                -1.467
REMARK  6 active torsions:
REMARK  status: ('A' for Active; 'I' for Inactive)
REMARK    1  A    between atoms: C_2  and  C_4 
REMARK    2  A    between atoms: C_4  and  C_5 
REMARK    3  A    between atoms: C_5  and  C_6 
REMARK       I    between atoms: C_6  and  N_8 
REMARK    4  A    between atoms: N_8  and  N_9 
REMARK       I    between atoms: N_9  and  C_10 
REMARK    5  A    between atoms: C_10  and  C_12 
REMARK    6  A    between atoms: C_14  and  N_15 
ROOT
ATOM      1  N   UNL d   1      25.626 -15.398  -3.200  0.00  0.00    -0.263 N 
ATOM      2  C   UNL d   1      25.499 -15.460  -1.819  0.00  0.00     0.271 C 
ATOM      3  O   UNL d   1      25.917 -14.576  -1.067  0.00  0.00    -0.266 OA
ATOM      4  H   UNL d   1      25.352 -16.165  -3.818  0.00  0.00     0.190 HD
ENDROOT
BRANCH   2   5
ATOM      5  C   UNL d   1      24.813 -16.664  -1.230  0.00  0.00     0.057 A 
ATOM      6  C   UNL d   1      23.453 -16.918  -1.546  0.00  0.00     0.054 A 
ATOM      7  C   UNL d   1      22.768 -18.000  -0.945  0.00  0.00     0.103 A 
ATOM      8  C   UNL d   1      23.423 -18.830  -0.029  0.00  0.00     0.038 A 
ATOM      9  C   UNL d   1      24.757 -18.576   0.288  0.00  0.00     0.027 A 
ATOM     10  C   UNL d   1      25.448 -17.502  -0.298  0.00  0.00     0.050 A 
ATOM     11 CL   UNL d   1      27.067 -17.260   0.254  0.00  0.00    -0.083 Cl
BRANCH   7  12
ATOM     12  N   UNL d   1      21.351 -18.276  -1.253  0.00  0.00    -0.116 N 
ATOM     13  O   UNL d   1      21.026 -19.450  -1.472  0.00  0.00    -0.532 OA
ATOM     14  O   UNL d   1      20.567 -17.314  -1.270  0.00  0.00    -0.532 OA
ENDBRANCH   7  12
ENDBRANCH   2   5
BRANCH   1  15
ATOM     15  N   UNL d   1      26.410 -14.391  -3.823  0.00  0.00    -0.267 N 
ATOM     16  C   UNL d   1      26.759 -14.564  -5.156  0.00  0.00     0.236 C 
ATOM     17  O   UNL d   1      26.440 -15.575  -5.784  0.00  0.00    -0.272 OA
ATOM     18  H   UNL d   1      26.661 -13.579  -3.262  0.00  0.00     0.190 HD
BRANCH  16  19
ATOM     19  C   UNL d   1      27.535 -13.408  -5.784  0.00  0.00     0.105 C 
BRANCH  19  20
ATOM     20  C   UNL d   1      28.831 -13.876  -6.477  0.00  0.00     0.013 C 
BRANCH  20  21
ATOM     21  C   UNL d   1      29.329 -15.261  -6.016  0.00  0.00    -0.022 C 
ATOM     22  C   UNL d   1      30.525 -15.711  -6.863  0.00  0.00     0.009 C 
ATOM     23  C   UNL d   1      29.737 -15.250  -4.542  0.00  0.00     0.009 C 
ENDBRANCH  20  21
ENDBRANCH  19  20
ENDBRANCH  16  19
ENDBRANCH   1  15
TORSDOF 6
ENDMDL
MODEL 5
REMARK VINA RESULT:    -6.428      6.011      7.558
REMARK INTER + INTRA:          -9.476
REMARK INTER:                  -8.218
REMARK INTRA:                  -1.258
REMARK CONF_INDEPENDENT:        1.790
REMARK UNBOUND:                -1.258
REMARK  6 active torsions:
REMARK  status: ('A' for Active; 'I' for Inactive)
REMARK    1  A    between atoms: C_2  and  C_4 
REMARK    2  A    between atoms: C_4  and  C_5 
REMARK    3  A    between atoms: C_5  and  C_6 
REMARK       I    between atoms: C_6  and  N_8 
REMARK    4  A    between atoms: N_8  and  N_9 
REMARK       I    between atoms: N_9  and  C_10 
REMARK    5  A    between atoms: C_10  and  C_12 
REMARK    6  A    between atoms: C_14  and  N_15 
ROOT
ATOM      1  N   UNL d   1      27.849 -14.006   2.050  0.00  0.00    -0.263 N 
ATOM      2  C   UNL d   1      27.824 -13.805   3.422  0.00  0.00     0.271 C 
ATOM      3  O   UNL d   1      27.843 -14.730   4.237  0.00  0.00    -0.266 OA
ATOM      4  H   UNL d   1      27.753 -13.245   1.375  0.00  0.00     0.190 HD
ENDROOT
BRANCH   2   5
ATOM      5  C   UNL d   1      27.777 -12.385   3.923  0.00  0.00     0.057 A 
ATOM      6  C   UNL d   1      27.030 -11.415   3.206  0.00  0.00     0.054 A 
ATOM      7  C   UNL d   1      27.034 -10.061   3.615  0.00  0.00     0.103 A 
ATOM      8  C   UNL d   1      27.777  -9.662   4.732  0.00  0.00     0.038 A 
ATOM      9  C   UNL d   1      28.517 -10.614   5.433  0.00  0.00     0.027 A 
ATOM     10  C   UNL d   1      28.527 -11.961   5.034  0.00  0.00     0.050 A 
ATOM     11 CL   UNL d   1      29.555 -13.008   5.945  0.00  0.00    -0.083 Cl
BRANCH   7  12
ATOM     12  N   UNL d   1      26.272  -9.034   2.878  0.00  0.00    -0.116 N 
ATOM     13  O   UNL d   1      26.643  -7.858   2.975  0.00  0.00    -0.532 OA
ATOM     14  O   UNL d   1      25.304  -9.413   2.199  0.00  0.00    -0.532 OA
ENDBRANCH   7  12
ENDBRANCH   2   5
BRANCH   1  15
ATOM     15  N   UNL d   1      27.716 -15.307   1.494  0.00  0.00    -0.267 N 
ATOM     16  C   UNL d   1      27.013 -15.442   0.304  0.00  0.00     0.236 C 
ATOM     17  O   UNL d   1      26.480 -14.478  -0.247  0.00  0.00    -0.272 OA
ATOM     18  H   UNL d   1      28.163 -16.076   1.991  0.00  0.00     0.190 HD
BRANCH  16  19
ATOM     19  C   UNL d   1      26.976 -16.854  -0.277  0.00  0.00     0.105 C 
BRANCH  19  20
ATOM     20  C   UNL d   1      25.767 -17.667   0.230  0.00  0.00     0.013 C 
BRANCH  20  21
ATOM     21  C   UNL d   1      24.622 -17.802  -0.794  0.00  0.00    -0.022 C 
ATOM     22  C   UNL d   1      23.446 -18.576  -0.187  0.00  0.00     0.009 C 
ATOM     23  C   UNL d   1      24.127 -16.435  -1.268  0.00  0.00     0.009 C 
ENDBRANCH  20  21
ENDBRANCH  19  20
ENDBRANCH  16  19
ENDBRANCH   1  15
TORSDOF 6
ENDMDL
MODEL 6
REMARK VINA RESULT:    -6.206      2.085      3.175
REMARK INTER + INTRA:          -9.390
REMARK INTER:                  -7.996
REMARK INTRA:                  -1.394
REMARK CONF_INDEPENDENT:        1.790
REMARK UNBOUND:                -1.394
REMARK  6 active torsions:
REMARK  status: ('A' for Active; 'I' for Inactive)
REMARK    1  A    between atoms: C_2  and  C_4 
REMARK    2  A    between atoms: C_4  and  C_5 
REMARK    3  A    between atoms: C_5  and  C_6 
REMARK       I    between atoms: C_6  and  N_8 
REMARK    4  A    between atoms: N_8  and  N_9 
REMARK       I    between atoms: N_9  and  C_10 
REMARK    5  A    between atoms: C_10  and  C_12 
REMARK    6  A    between atoms: C_14  and  N_15 
ROOT
ATOM      1  N   UNL d   1      24.979 -15.983  -1.429  0.00  0.00    -0.263 N 
ATOM      2  C   UNL d   1      25.172 -15.121  -2.500  0.00  0.00     0.271 C 
ATOM      3  O   UNL d   1      24.243 -14.574  -3.097  0.00  0.00    -0.266 OA
ATOM      4  H   UNL d   1      25.742 -16.497  -0.986  0.00  0.00     0.190 HD
ENDROOT
BRANCH   2   5
ATOM      5  C   UNL d   1      26.589 -14.848  -2.935  0.00  0.00     0.057 A 
ATOM      6  C   UNL d   1      27.019 -15.268  -4.220  0.00  0.00     0.054 A 
ATOM      7  C   UNL d   1      28.364 -15.090  -4.619  0.00  0.00     0.103 A 
ATOM      8  C   UNL d   1      29.287 -14.498  -3.750  0.00  0.00     0.038 A 
ATOM      9  C   UNL d   1      28.866 -14.092  -2.484  0.00  0.00     0.027 A 
ATOM     10  C   UNL d   1      27.535 -14.268  -2.072  0.00  0.00     0.050 A 
ATOM     11 CL   UNL d   1      27.181 -13.795  -0.449  0.00  0.00    -0.083 Cl
BRANCH   7  12
ATOM     12  N   UNL d   1      28.834 -15.528  -5.948  0.00  0.00    -0.116 N 
ATOM     13  O   UNL d   1      29.862 -16.214  -6.000  0.00  0.00    -0.532 OA
ATOM     14  O   UNL d   1      28.167 -15.185  -6.937  0.00  0.00    -0.532 OA
ENDBRANCH   7  12
ENDBRANCH   2   5
BRANCH   1  15
ATOM     15  N   UNL d   1      23.679 -16.430  -1.070  0.00  0.00    -0.267 N 
ATOM     16  C   UNL d   1      23.569 -17.621  -0.364  0.00  0.00     0.236 C 
ATOM     17  O   UNL d   1      24.555 -18.302  -0.084  0.00  0.00    -0.272 OA
ATOM     18  H   UNL d   1      22.892 -15.840  -1.334  0.00  0.00     0.190 HD
BRANCH  16  19
ATOM     19  C   UNL d   1      22.150 -18.001   0.057  0.00  0.00     0.105 C 
BRANCH  19  20
ATOM     20  C   UNL d   1      21.685 -19.329  -0.575  0.00  0.00     0.013 C 
BRANCH  20  21
ATOM     21  C   UNL d   1      20.341 -19.852  -0.028  0.00  0.00    -0.022 C 
ATOM     22  C   UNL d   1      20.161 -19.442   1.438  0.00  0.00     0.009 C 
ATOM     23  C   UNL d   1      19.159 -19.325  -0.842  0.00  0.00     0.009 C 
ENDBRANCH  20  21
ENDBRANCH  19  20
ENDBRANCH  16  19
ENDBRANCH   1  15
TORSDOF 6
ENDMDL
MODEL 7
REMARK VINA RESULT:    -6.066      3.262      5.110
REMARK INTER + INTRA:          -9.358
REMARK INTER:                  -7.855
REMARK INTRA:                  -1.503
REMARK CONF_INDEPENDENT:        1.790
REMARK UNBOUND:                -1.503
REMARK  6 active torsions:
REMARK  status: ('A' for Active; 'I' for Inactive)
REMARK    1  A    between atoms: C_2  and  C_4 
REMARK    2  A    between atoms: C_4  and  C_5 
REMARK    3  A    between atoms: C_5  and  C_6 
REMARK       I    between atoms: C_6  and  N_8 
REMARK    4  A    between atoms: N_8  and  N_9 
REMARK       I    between atoms: N_9  and  C_10 
REMARK    5  A    between atoms: C_10  and  C_12 
REMARK    6  A    between atoms: C_14  and  N_15 
ROOT
ATOM      1  N   UNL d   1      26.395 -15.762  -2.558  0.00  0.00    -0.263 N 
ATOM      2  C   UNL d   1      25.972 -15.070  -3.684  0.00  0.00     0.271 C 
ATOM      3  O   UNL d   1      24.793 -14.772  -3.884  0.00  0.00    -0.266 OA
ATOM      4  H   UNL d   1      27.358 -16.079  -2.430  0.00  0.00     0.190 HD
ENDROOT
BRANCH   2   5
ATOM      5  C   UNL d   1      27.015 -14.668  -4.694  0.00  0.00     0.057 A 
ATOM      6  C   UNL d   1      28.055 -15.575  -5.024  0.00  0.00     0.054 A 
ATOM      7  C   UNL d   1      29.086 -15.190  -5.912  0.00  0.00     0.103 A 
ATOM      8  C   UNL d   1      29.093 -13.909  -6.475  0.00  0.00     0.038 A 
ATOM      9  C   UNL d   1      28.075 -13.015  -6.145  0.00  0.00     0.027 A 
ATOM     10  C   UNL d   1      27.047 -13.382  -5.260  0.00  0.00     0.050 A 
ATOM     11 CL   UNL d   1      25.904 -12.144  -4.880  0.00  0.00    -0.083 Cl
BRANCH   7  12
ATOM     12  N   UNL d   1      30.183 -16.115  -6.261  0.00  0.00    -0.116 N 
ATOM     13  O   UNL d   1      31.189 -15.640  -6.803  0.00  0.00    -0.532 OA
ATOM     14  O   UNL d   1      30.032 -17.316  -5.988  0.00  0.00    -0.532 OA
ENDBRANCH   7  12
ENDBRANCH   2   5
BRANCH   1  15
ATOM     15  N   UNL d   1      25.462 -16.329  -1.649  0.00  0.00    -0.267 N 
ATOM     16  C   UNL d   1      25.916 -17.303  -0.768  0.00  0.00     0.236 C 
ATOM     17  O   UNL d   1      27.080 -17.703  -0.788  0.00  0.00    -0.272 OA
ATOM     18  H   UNL d   1      24.507 -15.976  -1.677  0.00  0.00     0.190 HD
BRANCH  16  19
ATOM     19  C   UNL d   1      24.880 -17.812   0.232  0.00  0.00     0.105 C 
BRANCH  19  20
ATOM     20  C   UNL d   1      23.892 -18.812  -0.402  0.00  0.00     0.013 C 
BRANCH  20  21
ATOM     21  C   UNL d   1      22.620 -18.161  -0.983  0.00  0.00    -0.022 C 
ATOM     22  C   UNL d   1      21.373 -18.951  -0.566  0.00  0.00     0.009 C 
ATOM     23  C   UNL d   1      22.469 -16.711  -0.522  0.00  0.00     0.009 C 
ENDBRANCH  20  21
ENDBRANCH  19  20
ENDBRANCH  16  19
ENDBRANCH   1  15
TORSDOF 6
ENDMDL
MODEL 8
REMARK VINA RESULT:    -5.962      2.821      8.016
REMARK INTER + INTRA:          -9.188
REMARK INTER:                  -7.752
REMARK INTRA:                  -1.436
REMARK CONF_INDEPENDENT:        1.790
REMARK UNBOUND:                -1.436
REMARK  6 active torsions:
REMARK  status: ('A' for Active; 'I' for Inactive)
REMARK    1  A    between atoms: C_2  and  C_4 
REMARK    2  A    between atoms: C_4  and  C_5 
REMARK    3  A    between atoms: C_5  and  C_6 
REMARK       I    between atoms: C_6  and  N_8 
REMARK    4  A    between atoms: N_8  and  N_9 
REMARK       I    between atoms: N_9  and  C_10 
REMARK    5  A    between atoms: C_10  and  C_12 
REMARK    6  A    between atoms: C_14  and  N_15 
ROOT
ATOM      1  N   UNL d   1      24.638 -15.074  -2.419  0.00  0.00    -0.263 N 
ATOM      2  C   UNL d   1      24.787 -15.666  -1.173  0.00  0.00     0.271 C 
ATOM      3  O   UNL d   1      25.393 -15.129  -0.243  0.00  0.00    -0.266 OA
ATOM      4  H   UNL d   1      24.206 -15.552  -3.213  0.00  0.00     0.190 HD
ENDROOT
BRANCH   2   5
ATOM      5  C   UNL d   1      24.169 -17.024  -0.961  0.00  0.00     0.057 A 
ATOM      6  C   UNL d   1      22.794 -17.219  -1.251  0.00  0.00     0.054 A 
ATOM      7  C   UNL d   1      22.176 -18.464  -0.988  0.00  0.00     0.103 A 
ATOM      8  C   UNL d   1      22.914 -19.517  -0.438  0.00  0.00     0.038 A 
ATOM      9  C   UNL d   1      24.264 -19.323  -0.146  0.00  0.00     0.027 A 
ATOM     10  C   UNL d   1      24.889 -18.090  -0.397  0.00  0.00     0.050 A 
ATOM     11 CL   UNL d   1      26.541 -17.971   0.094  0.00  0.00    -0.083 Cl
BRANCH   7  12
ATOM     12  N   UNL d   1      20.745 -18.685  -1.273  0.00  0.00    -0.116 N 
ATOM     13  O   UNL d   1      19.941 -17.824  -0.895  0.00  0.00    -0.532 OA
ATOM     14  O   UNL d   1      20.432 -19.722  -1.880  0.00  0.00    -0.532 OA
ENDBRANCH   7  12
ENDBRANCH   2   5
BRANCH   1  15
ATOM     15  N   UNL d   1      25.334 -13.883  -2.756  0.00  0.00    -0.267 N 
ATOM     16  C   UNL d   1      25.438 -13.543  -4.099  0.00  0.00     0.236 C 
ATOM     17  O   UNL d   1      24.980 -14.263  -4.987  0.00  0.00    -0.272 OA
ATOM     18  H   UNL d   1      25.707 -13.326  -1.989  0.00  0.00     0.190 HD
BRANCH  16  19
ATOM     19  C   UNL d   1      26.130 -12.212  -4.384  0.00  0.00     0.105 C 
BRANCH  19  20
ATOM     20  C   UNL d   1      26.727 -11.575  -3.113  0.00  0.00     0.013 C 
BRANCH  20  21
ATOM     21  C   UNL d   1      26.759 -10.033  -3.134  0.00  0.00    -0.022 C 
ATOM     22  C   UNL d   1      25.735  -9.488  -4.136  0.00  0.00     0.009 C 
ATOM     23  C   UNL d   1      26.466  -9.446  -1.752  0.00  0.00     0.009 C 
ENDBRANCH  20  21
ENDBRANCH  19  20
ENDBRANCH  16  19
ENDBRANCH   1  15
TORSDOF 6
ENDMDL
