MODEL 1
REMARK VINA RESULT:    -7.764      0.000      0.000
REMARK INTER + INTRA:         -10.203
REMARK INTER:                  -9.554
REMARK INTRA:                  -0.649
REMARK CONF_INDEPENDENT:        1.790
REMARK UNBOUND:                -0.649
REMARK  6 active torsions:
REMARK  status: ('A' for Active; 'I' for Inactive)
REMARK    1  A    between atoms: C_7  and  C_8 
REMARK       I    between atoms: C_8  and  N_10 
REMARK    2  A    between atoms: N_10  and  C_11 
REMARK    3  A    between atoms: C_11  and  C_13 
REMARK    4  A    between atoms: C_13  and  O_14 
REMARK    5  A    between atoms: C_13  and  C_15 
REMARK    6  A    between atoms: C_18  and  O_19 
ROOT
ATOM      1  C   UNL d   1      22.609 -18.656  -1.329  0.00  0.00     0.114 C 
ATOM      2  C   UNL d   1      23.338 -19.734  -0.520  0.00  0.00     0.035 C 
ENDROOT
BRANCH   1   3
ATOM      3  N   UNL d   1      23.550 -17.597  -1.716  0.00  0.00    -0.350 N 
ATOM      4  C   UNL d   1      24.420 -17.023  -0.807  0.00  0.00     0.252 C 
ATOM      5  O   UNL d   1      24.472 -17.380   0.370  0.00  0.00    -0.268 OA
ATOM      6  H   UNL d   1      23.588 -17.368  -2.700  0.00  0.00     0.163 HD
BRANCH   4   7
ATOM      7  C   UNL d   1      25.317 -15.923  -1.268  0.00  0.00     0.033 A 
ATOM      8  C   UNL d   1      25.155 -15.444  -2.578  0.00  0.00     0.023 A 
ATOM      9  C   UNL d   1      25.953 -14.404  -3.076  0.00  0.00    -0.061 A 
ATOM     10  C   UNL d   1      26.934 -13.847  -2.248  0.00  0.00     0.013 A 
ATOM     11  C   UNL d   1      25.742 -13.913  -4.478  0.00  0.00     0.048 C 
ATOM     12  C   UNL d   1      27.113 -14.315  -0.940  0.00  0.00    -0.061 A 
ATOM     13  C   UNL d   1      28.151 -13.720  -0.035  0.00  0.00     0.048 C 
ATOM     14  C   UNL d   1      26.303 -15.353  -0.457  0.00  0.00     0.023 A 
ENDBRANCH   4   7
ENDBRANCH   1   3
BRANCH   1  15
ATOM     15  C   UNL d   1      21.411 -18.077  -0.509  0.00  0.00     0.173 C 
BRANCH  15  16
ATOM     16  O   UNL d   1      20.743 -17.060  -1.270  0.00  0.00    -0.389 OA
ATOM     17  H   UNL d   1      19.981 -17.476  -1.707  0.00  0.00     0.210 HD
ENDBRANCH  15  16
BRANCH  15  18
ATOM     18  C   UNL d   1      20.433 -19.157  -0.076  0.00  0.00    -0.028 A 
ATOM     19  C   UNL d   1      19.378 -19.533  -0.932  0.00  0.00     0.012 A 
ATOM     20  C   UNL d   1      18.405 -20.450  -0.520  0.00  0.00     0.037 A 
ATOM     21  C   UNL d   1      18.503 -21.018   0.744  0.00  0.00     0.065 A 
ATOM     22  C   UNL d   1      19.532 -20.661   1.605  0.00  0.00     0.037 A 
ATOM     23  C   UNL d   1      20.485 -19.729   1.203  0.00  0.00     0.012 A 
BRANCH  21  24
ATOM     24  O   UNL d   1      17.605 -21.938   1.198  0.00  0.00    -0.361 OA
ATOM     25  H   UNL d   1      17.591 -22.693   0.589  0.00  0.00     0.217 HD
ENDBRANCH  21  24
ENDBRANCH  15  18
ENDBRANCH   1  15
TORSDOF 6
ENDMDL
MODEL 2
REMARK VINA RESULT:    -7.443      3.123      5.508
REMARK INTER + INTRA:         -10.684
REMARK INTER:                  -9.233
REMARK INTRA:                  -1.452
REMARK CONF_INDEPENDENT:        1.790
REMARK UNBOUND:                -1.452
REMARK  6 active torsions:
REMARK  status: ('A' for Active; 'I' for Inactive)
REMARK    1  A    between atoms: C_7  and  C_8 
REMARK       I    between atoms: C_8  and  N_10 
REMARK    2  A    between atoms: N_10  and  C_11 
REMARK    3  A    between atoms: C_11  and  C_13 
REMARK    4  A    between atoms: C_13  and  O_14 
REMARK    5  A    between atoms: C_13  and  C_15 
REMARK    6  A    between atoms: C_18  and  O_19 
ROOT
ATOM      1  C   UNL d   1      26.743 -16.502  -0.435  0.00  0.00     0.114 C 
ATOM      2  C   UNL d   1      28.002 -16.661  -1.292  0.00  0.00     0.035 C 
ENDROOT
BRANCH   1   3
ATOM      3  N   UNL d   1      27.078 -15.832   0.829  0.00  0.00    -0.350 N 
ATOM      4  C   UNL d   1      27.031 -14.456   0.962  0.00  0.00     0.252 C 
ATOM      5  O   UNL d   1      26.686 -13.717   0.040  0.00  0.00    -0.268 OA
ATOM      6  H   UNL d   1      27.264 -16.432   1.621  0.00  0.00     0.163 HD
BRANCH   4   7
ATOM      7  C   UNL d   1      27.427 -13.846   2.266  0.00  0.00     0.033 A 
ATOM      8  C   UNL d   1      27.266 -12.460   2.422  0.00  0.00     0.023 A 
ATOM      9  C   UNL d   1      27.606 -11.819   3.622  0.00  0.00    -0.061 A 
ATOM     10  C   UNL d   1      28.124 -12.583   4.674  0.00  0.00     0.013 A 
ATOM     11  C   UNL d   1      27.409 -10.337   3.754  0.00  0.00     0.048 C 
ATOM     12  C   UNL d   1      28.295 -13.966   4.535  0.00  0.00    -0.061 A 
ATOM     13  C   UNL d   1      28.837 -14.801   5.657  0.00  0.00     0.048 C 
ATOM     14  C   UNL d   1      27.947 -14.590   3.328  0.00  0.00     0.023 A 
ENDBRANCH   4   7
ENDBRANCH   1   3
BRANCH   1  15
ATOM     15  C   UNL d   1      26.079 -17.893  -0.179  0.00  0.00     0.173 C 
BRANCH  15  16
ATOM     16  O   UNL d   1      26.342 -18.322   1.165  0.00  0.00    -0.389 OA
ATOM     17  H   UNL d   1      27.306 -18.328   1.286  0.00  0.00     0.210 HD
ENDBRANCH  15  16
BRANCH  15  18
ATOM     18  C   UNL d   1      24.584 -17.879  -0.457  0.00  0.00    -0.028 A 
ATOM     19  C   UNL d   1      23.905 -16.649  -0.579  0.00  0.00     0.012 A 
ATOM     20  C   UNL d   1      22.515 -16.605  -0.735  0.00  0.00     0.037 A 
ATOM     21  C   UNL d   1      21.803 -17.796  -0.800  0.00  0.00     0.065 A 
ATOM     22  C   UNL d   1      22.451 -19.018  -0.681  0.00  0.00     0.037 A 
ATOM     23  C   UNL d   1      23.831 -19.060  -0.500  0.00  0.00     0.012 A 
BRANCH  21  24
ATOM     24  O   UNL d   1      20.452 -17.825  -0.978  0.00  0.00    -0.361 OA
ATOM     25  H   UNL d   1      20.206 -17.164  -1.644  0.00  0.00     0.217 HD
ENDBRANCH  21  24
ENDBRANCH  15  18
ENDBRANCH   1  15
TORSDOF 6
ENDMDL
MODEL 3
REMARK VINA RESULT:    -7.406      3.040      5.567
REMARK INTER + INTRA:         -10.656
REMARK INTER:                  -9.196
REMARK INTRA:                  -1.459
REMARK CONF_INDEPENDENT:        1.790
REMARK UNBOUND:                -1.459
REMARK  6 active torsions:
REMARK  status: ('A' for Active; 'I' for Inactive)
REMARK    1  A    between atoms: C_7  and  C_8 
REMARK       I    between atoms: C_8  and  N_10 
REMARK    2  A    between atoms: N_10  and  C_11 
REMARK    3  A    between atoms: C_11  and  C_13 
REMARK    4  A    between atoms: C_13  and  O_14 
REMARK    5  A    between atoms: C_13  and  C_15 
REMARK    6  A    between atoms: C_18  and  O_19 
ROOT
ATOM      1  C   UNL d   1      26.667 -16.336  -0.616  0.00  0.00     0.114 C 
ATOM      2  C   UNL d   1      27.927 -16.466  -1.478  0.00  0.00     0.035 C 
ENDROOT
BRANCH   1   3
ATOM      3  N   UNL d   1      26.987 -15.637   0.637  0.00  0.00    -0.350 N 
ATOM      4  C   UNL d   1      26.921 -14.260   0.744  0.00  0.00     0.252 C 
ATOM      5  O   UNL d   1      26.571 -13.543  -0.193  0.00  0.00    -0.268 OA
ATOM      6  H   UNL d   1      27.177 -16.221   1.440  0.00  0.00     0.163 HD
BRANCH   4   7
ATOM      7  C   UNL d   1      27.303 -13.621   2.038  0.00  0.00     0.033 A 
ATOM      8  C   UNL d   1      27.779 -14.449   3.067  0.00  0.00     0.023 A 
ATOM      9  C   UNL d   1      28.167 -13.919   4.306  0.00  0.00    -0.061 A 
ATOM     10  C   UNL d   1      28.064 -12.539   4.514  0.00  0.00     0.013 A 
ATOM     11  C   UNL d   1      28.680 -14.836   5.378  0.00  0.00     0.048 C 
ATOM     12  C   UNL d   1      27.588 -11.698   3.501  0.00  0.00    -0.061 A 
ATOM     13  C   UNL d   1      27.485 -10.216   3.702  0.00  0.00     0.048 C 
ATOM     14  C   UNL d   1      27.208 -12.246   2.266  0.00  0.00     0.023 A 
ENDBRANCH   4   7
ENDBRANCH   1   3
BRANCH   1  15
ATOM     15  C   UNL d   1      26.050 -17.743  -0.337  0.00  0.00     0.173 C 
BRANCH  15  16
ATOM     16  O   UNL d   1      26.358 -18.158   1.002  0.00  0.00    -0.389 OA
ATOM     17  H   UNL d   1      27.321 -18.087   1.115  0.00  0.00     0.210 HD
ENDBRANCH  15  16
BRANCH  15  18
ATOM     18  C   UNL d   1      24.550 -17.774  -0.579  0.00  0.00    -0.028 A 
ATOM     19  C   UNL d   1      23.845 -16.568  -0.770  0.00  0.00     0.012 A 
ATOM     20  C   UNL d   1      22.452 -16.558  -0.894  0.00  0.00     0.037 A 
ATOM     21  C   UNL d   1      21.760 -17.762  -0.859  0.00  0.00     0.065 A 
ATOM     22  C   UNL d   1      22.433 -18.961  -0.670  0.00  0.00     0.037 A 
ATOM     23  C   UNL d   1      23.818 -18.968  -0.520  0.00  0.00     0.012 A 
BRANCH  21  24
ATOM     24  O   UNL d   1      20.406 -17.826  -1.001  0.00  0.00    -0.361 OA
ATOM     25  H   UNL d   1      20.121 -17.141  -1.626  0.00  0.00     0.217 HD
ENDBRANCH  21  24
ENDBRANCH  15  18
ENDBRANCH   1  15
TORSDOF 6
ENDMDL
MODEL 4
REMARK VINA RESULT:    -7.249      3.180      5.722
REMARK INTER + INTRA:         -10.387
REMARK INTER:                  -9.039
REMARK INTRA:                  -1.348
REMARK CONF_INDEPENDENT:        1.790
REMARK UNBOUND:                -1.348
REMARK  6 active torsions:
REMARK  status: ('A' for Active; 'I' for Inactive)
REMARK    1  A    between atoms: C_7  and  C_8 
REMARK       I    between atoms: C_8  and  N_10 
REMARK    2  A    between atoms: N_10  and  C_11 
REMARK    3  A    between atoms: C_11  and  C_13 
REMARK    4  A    between atoms: C_13  and  O_14 
REMARK    5  A    between atoms: C_13  and  C_15 
REMARK    6  A    between atoms: C_18  and  O_19 
ROOT
ATOM      1  C   UNL d   1      26.670 -16.333  -0.417  0.00  0.00     0.114 C 
ATOM      2  C   UNL d   1      27.524 -16.270  -1.688  0.00  0.00     0.035 C 
ENDROOT
BRANCH   1   3
ATOM      3  N   UNL d   1      27.477 -15.949   0.749  0.00  0.00    -0.350 N 
ATOM      4  C   UNL d   1      27.436 -14.671   1.277  0.00  0.00     0.252 C 
ATOM      5  O   UNL d   1      26.708 -13.791   0.818  0.00  0.00    -0.268 OA
ATOM      6  H   UNL d   1      28.000 -16.688   1.197  0.00  0.00     0.163 HD
BRANCH   4   7
ATOM      7  C   UNL d   1      28.317 -14.345   2.438  0.00  0.00     0.033 A 
ATOM      8  C   UNL d   1      29.693 -14.195   2.199  0.00  0.00     0.023 A 
ATOM      9  C   UNL d   1      30.581 -13.879   3.237  0.00  0.00    -0.061 A 
ATOM     10  C   UNL d   1      30.078 -13.722   4.534  0.00  0.00     0.013 A 
ATOM     11  C   UNL d   1      32.043 -13.716   2.940  0.00  0.00     0.048 C 
ATOM     12  C   UNL d   1      28.710 -13.871   4.791  0.00  0.00    -0.061 A 
ATOM     13  C   UNL d   1      28.152 -13.693   6.172  0.00  0.00     0.048 C 
ATOM     14  C   UNL d   1      27.836 -14.185   3.739  0.00  0.00     0.023 A 
ENDBRANCH   4   7
ENDBRANCH   1   3
BRANCH   1  15
ATOM     15  C   UNL d   1      26.062 -17.761  -0.240  0.00  0.00     0.173 C 
BRANCH  15  16
ATOM     16  O   UNL d   1      26.459 -18.309   1.026  0.00  0.00    -0.389 OA
ATOM     17  H   UNL d   1      27.317 -18.746   0.899  0.00  0.00     0.210 HD
ENDBRANCH  15  16
BRANCH  15  18
ATOM     18  C   UNL d   1      24.549 -17.765  -0.378  0.00  0.00    -0.028 A 
ATOM     19  C   UNL d   1      23.839 -18.981  -0.289  0.00  0.00     0.012 A 
ATOM     20  C   UNL d   1      22.459 -19.030  -0.512  0.00  0.00     0.037 A 
ATOM     21  C   UNL d   1      21.777 -17.853  -0.796  0.00  0.00     0.065 A 
ATOM     22  C   UNL d   1      22.455 -16.646  -0.891  0.00  0.00     0.037 A 
ATOM     23  C   UNL d   1      23.834 -16.602  -0.694  0.00  0.00     0.012 A 
BRANCH  21  24
ATOM     24  O   UNL d   1      20.430 -17.826  -0.997  0.00  0.00    -0.361 OA
ATOM     25  H   UNL d   1      20.222 -17.146  -1.658  0.00  0.00     0.217 HD
ENDBRANCH  21  24
ENDBRANCH  15  18
ENDBRANCH   1  15
TORSDOF 6
ENDMDL
MODEL 5
REMARK VINA RESULT:    -7.114      3.088      5.629
REMARK INTER + INTRA:         -10.229
REMARK INTER:                  -8.903
REMARK INTRA:                  -1.326
REMARK CONF_INDEPENDENT:        1.790
REMARK UNBOUND:                -1.326
REMARK  6 active torsions:
REMARK  status: ('A' for Active; 'I' for Inactive)
REMARK    1  A    between atoms: C_7  and  C_8 
REMARK       I    between atoms: C_8  and  N_10 
REMARK    2  A    between atoms: N_10  and  C_11 
REMARK    3  A    between atoms: C_11  and  C_13 
REMARK    4  A    between atoms: C_13  and  O_14 
REMARK    5  A    between atoms: C_13  and  C_15 
REMARK    6  A    between atoms: C_18  and  O_19 
ROOT
ATOM      1  C   UNL d   1      26.459 -16.331  -0.487  0.00  0.00     0.114 C 
ATOM      2  C   UNL d   1      27.205 -16.204  -1.819  0.00  0.00     0.035 C 
ENDROOT
BRANCH   1   3
ATOM      3  N   UNL d   1      27.355 -15.986   0.625  0.00  0.00    -0.350 N 
ATOM      4  C   UNL d   1      27.456 -14.694   1.108  0.00  0.00     0.252 C 
ATOM      5  O   UNL d   1      26.789 -13.766   0.652  0.00  0.00    -0.268 OA
ATOM      6  H   UNL d   1      27.831 -16.756   1.074  0.00  0.00     0.163 HD
BRANCH   4   7
ATOM      7  C   UNL d   1      28.421 -14.414   2.213  0.00  0.00     0.033 A 
ATOM      8  C   UNL d   1      27.905 -14.197   3.501  0.00  0.00     0.023 A 
ATOM      9  C   UNL d   1      28.750 -13.940   4.589  0.00  0.00    -0.061 A 
ATOM     10  C   UNL d   1      30.132 -13.891   4.376  0.00  0.00     0.013 A 
ATOM     11  C   UNL d   1      28.161 -13.723   5.952  0.00  0.00     0.048 C 
ATOM     12  C   UNL d   1      30.665 -14.101   3.098  0.00  0.00    -0.061 A 
ATOM     13  C   UNL d   1      32.145 -14.065   2.855  0.00  0.00     0.048 C 
ATOM     14  C   UNL d   1      29.804 -14.361   2.021  0.00  0.00     0.023 A 
ENDBRANCH   4   7
ENDBRANCH   1   3
BRANCH   1  15
ATOM     15  C   UNL d   1      25.882 -17.773  -0.322  0.00  0.00     0.173 C 
BRANCH  15  16
ATOM     16  O   UNL d   1      26.198 -18.282   0.982  0.00  0.00    -0.389 OA
ATOM     17  H   UNL d   1      27.059 -18.729   0.920  0.00  0.00     0.210 HD
ENDBRANCH  15  16
BRANCH  15  18
ATOM     18  C   UNL d   1      24.383 -17.828  -0.573  0.00  0.00    -0.028 A 
ATOM     19  C   UNL d   1      23.660 -16.632  -0.762  0.00  0.00     0.012 A 
ATOM     20  C   UNL d   1      22.267 -16.644  -0.895  0.00  0.00     0.037 A 
ATOM     21  C   UNL d   1      21.595 -17.860  -0.869  0.00  0.00     0.065 A 
ATOM     22  C   UNL d   1      22.286 -19.049  -0.682  0.00  0.00     0.037 A 
ATOM     23  C   UNL d   1      23.671 -19.033  -0.524  0.00  0.00     0.012 A 
BRANCH  21  24
ATOM     24  O   UNL d   1      20.243 -17.945  -1.019  0.00  0.00    -0.361 OA
ATOM     25  H   UNL d   1      19.967 -17.357  -1.740  0.00  0.00     0.217 HD
ENDBRANCH  21  24
ENDBRANCH  15  18
ENDBRANCH   1  15
TORSDOF 6
ENDMDL
MODEL 6
REMARK VINA RESULT:    -7.027      3.651      8.741
REMARK INTER + INTRA:          -9.666
REMARK INTER:                  -8.816
REMARK INTRA:                  -0.849
REMARK CONF_INDEPENDENT:        1.790
REMARK UNBOUND:                -0.849
REMARK  6 active torsions:
REMARK  status: ('A' for Active; 'I' for Inactive)
REMARK    1  A    between atoms: C_7  and  C_8 
REMARK       I    between atoms: C_8  and  N_10 
REMARK    2  A    between atoms: N_10  and  C_11 
REMARK    3  A    between atoms: C_11  and  C_13 
REMARK    4  A    between atoms: C_13  and  O_14 
REMARK    5  A    between atoms: C_13  and  C_15 
REMARK    6  A    between atoms: C_18  and  O_19 
ROOT
ATOM      1  C   UNL d   1      26.401 -12.811  -3.027  0.00  0.00     0.114 C 
ATOM      2  C   UNL d   1      27.842 -12.311  -2.881  0.00  0.00     0.035 C 
ENDROOT
BRANCH   1   3
ATOM      3  N   UNL d   1      26.213 -14.037  -2.239  0.00  0.00    -0.350 N 
ATOM      4  C   UNL d   1      25.077 -14.817  -2.360  0.00  0.00     0.252 C 
ATOM      5  O   UNL d   1      24.171 -14.543  -3.147  0.00  0.00    -0.268 OA
ATOM      6  H   UNL d   1      26.993 -14.327  -1.666  0.00  0.00     0.163 HD
BRANCH   4   7
ATOM      7  C   UNL d   1      24.941 -16.026  -1.494  0.00  0.00     0.033 A 
ATOM      8  C   UNL d   1      23.656 -16.562  -1.308  0.00  0.00     0.023 A 
ATOM      9  C   UNL d   1      23.452 -17.702  -0.517  0.00  0.00    -0.061 A 
ATOM     10  C   UNL d   1      24.554 -18.303   0.101  0.00  0.00     0.013 A 
ATOM     11  C   UNL d   1      22.065 -18.251  -0.351  0.00  0.00     0.048 C 
ATOM     12  C   UNL d   1      25.841 -17.780  -0.070  0.00  0.00    -0.061 A 
ATOM     13  C   UNL d   1      27.035 -18.419   0.575  0.00  0.00     0.048 C 
ATOM     14  C   UNL d   1      26.027 -16.640  -0.868  0.00  0.00     0.023 A 
ENDBRANCH   4   7
ENDBRANCH   1   3
BRANCH   1  15
ATOM     15  C   UNL d   1      26.056 -13.047  -4.532  0.00  0.00     0.173 C 
BRANCH  15  16
ATOM     16  O   UNL d   1      25.681 -11.807  -5.150  0.00  0.00    -0.389 OA
ATOM     17  H   UNL d   1      24.716 -11.817  -5.263  0.00  0.00     0.210 HD
ENDBRANCH  15  16
BRANCH  15  18
ATOM     18  C   UNL d   1      27.199 -13.702  -5.291  0.00  0.00    -0.028 A 
ATOM     19  C   UNL d   1      27.651 -14.982  -4.909  0.00  0.00     0.012 A 
ATOM     20  C   UNL d   1      28.764 -15.567  -5.522  0.00  0.00     0.037 A 
ATOM     21  C   UNL d   1      29.412 -14.884  -6.543  0.00  0.00     0.065 A 
ATOM     22  C   UNL d   1      28.985 -13.622  -6.934  0.00  0.00     0.037 A 
ATOM     23  C   UNL d   1      27.892 -13.029  -6.305  0.00  0.00     0.012 A 
BRANCH  21  24
ATOM     24  O   UNL d   1      30.485 -15.407  -7.201  0.00  0.00    -0.361 OA
ATOM     25  H   UNL d   1      30.344 -15.319  -8.157  0.00  0.00     0.217 HD
ENDBRANCH  21  24
ENDBRANCH  15  18
ENDBRANCH   1  15
TORSDOF 6
ENDMDL
MODEL 7
REMARK VINA RESULT:    -6.698      3.967      9.380
REMARK INTER + INTRA:          -9.752
REMARK INTER:                  -8.487
REMARK INTRA:                  -1.265
REMARK CONF_INDEPENDENT:        1.790
REMARK UNBOUND:                -1.265
REMARK  6 active torsions:
REMARK  status: ('A' for Active; 'I' for Inactive)
REMARK    1  A    between atoms: C_7  and  C_8 
REMARK       I    between atoms: C_8  and  N_10 
REMARK    2  A    between atoms: N_10  and  C_11 
REMARK    3  A    between atoms: C_11  and  C_13 
REMARK    4  A    between atoms: C_13  and  O_14 
REMARK    5  A    between atoms: C_13  and  C_15 
REMARK    6  A    between atoms: C_18  and  O_19 
ROOT
ATOM      1  C   UNL d   1      26.779 -13.247  -3.284  0.00  0.00     0.114 C 
ATOM      2  C   UNL d   1      28.291 -13.000  -3.264  0.00  0.00     0.035 C 
ENDROOT
BRANCH   1   3
ATOM      3  N   UNL d   1      26.450 -14.414  -2.454  0.00  0.00    -0.350 N 
ATOM      4  C   UNL d   1      25.183 -14.969  -2.443  0.00  0.00     0.252 C 
ATOM      5  O   UNL d   1      24.267 -14.534  -3.140  0.00  0.00    -0.268 OA
ATOM      6  H   UNL d   1      27.218 -14.842  -1.956  0.00  0.00     0.163 HD
BRANCH   4   7
ATOM      7  C   UNL d   1      24.915 -16.128  -1.540  0.00  0.00     0.033 A 
ATOM      8  C   UNL d   1      26.011 -16.747  -0.918  0.00  0.00     0.023 A 
ATOM      9  C   UNL d   1      25.836 -17.834  -0.050  0.00  0.00    -0.061 A 
ATOM     10  C   UNL d   1      24.542 -18.308   0.188  0.00  0.00     0.013 A 
ATOM     11  C   UNL d   1      27.033 -18.461   0.604  0.00  0.00     0.048 C 
ATOM     12  C   UNL d   1      23.437 -17.706  -0.426  0.00  0.00    -0.061 A 
ATOM     13  C   UNL d   1      22.042 -18.194  -0.172  0.00  0.00     0.048 C 
ATOM     14  C   UNL d   1      23.631 -16.618  -1.290  0.00  0.00     0.023 A 
ENDBRANCH   4   7
ENDBRANCH   1   3
BRANCH   1  15
ATOM     15  C   UNL d   1      26.278 -13.437  -4.752  0.00  0.00     0.173 C 
BRANCH  15  16
ATOM     16  O   UNL d   1      25.195 -12.535  -5.021  0.00  0.00    -0.389 OA
ATOM     17  H   UNL d   1      24.406 -12.885  -4.577  0.00  0.00     0.210 HD
ENDBRANCH  15  16
BRANCH  15  18
ATOM     18  C   UNL d   1      27.394 -13.260  -5.770  0.00  0.00    -0.028 A 
ATOM     19  C   UNL d   1      27.544 -12.027  -6.438  0.00  0.00     0.012 A 
ATOM     20  C   UNL d   1      28.496 -11.866  -7.451  0.00  0.00     0.037 A 
ATOM     21  C   UNL d   1      29.324 -12.933  -7.777  0.00  0.00     0.065 A 
ATOM     22  C   UNL d   1      29.192 -14.156  -7.134  0.00  0.00     0.037 A 
ATOM     23  C   UNL d   1      28.226 -14.323  -6.144  0.00  0.00     0.012 A 
BRANCH  21  24
ATOM     24  O   UNL d   1      30.289 -12.836  -8.734  0.00  0.00    -0.361 OA
ATOM     25  H   UNL d   1      30.129 -13.510  -9.414  0.00  0.00     0.217 HD
ENDBRANCH  21  24
ENDBRANCH  15  18
ENDBRANCH   1  15
TORSDOF 6
ENDMDL
MODEL 8
REMARK VINA RESULT:    -6.508      2.698      4.519
REMARK INTER + INTRA:          -9.810
REMARK INTER:                  -8.298
REMARK INTRA:                  -1.512
REMARK CONF_INDEPENDENT:        1.790
REMARK UNBOUND:                -1.512
REMARK  6 active torsions:
REMARK  status: ('A' for Active; 'I' for Inactive)
REMARK    1  A    between atoms: C_7  and  C_8 
REMARK       I    between atoms: C_8  and  N_10 
REMARK    2  A    between atoms: N_10  and  C_11 
REMARK    3  A    between atoms: C_11  and  C_13 
REMARK    4  A    between atoms: C_13  and  O_14 
REMARK    5  A    between atoms: C_13  and  C_15 
REMARK    6  A    between atoms: C_18  and  O_19 
ROOT
ATOM      1  C   UNL d   1      26.904 -17.128  -1.070  0.00  0.00     0.114 C 
ATOM      2  C   UNL d   1      28.144 -17.487  -0.244  0.00  0.00     0.035 C 
ENDROOT
BRANCH   1   3
ATOM      3  N   UNL d   1      27.264 -16.168  -2.122  0.00  0.00    -0.350 N 
ATOM      4  C   UNL d   1      26.332 -15.692  -3.027  0.00  0.00     0.252 C 
ATOM      5  O   UNL d   1      25.149 -16.027  -2.991  0.00  0.00    -0.268 OA
ATOM      6  H   UNL d   1      28.208 -15.808  -2.098  0.00  0.00     0.163 HD
BRANCH   4   7
ATOM      7  C   UNL d   1      26.784 -14.751  -4.094  0.00  0.00     0.033 A 
ATOM      8  C   UNL d   1      27.822 -15.165  -4.944  0.00  0.00     0.023 A 
ATOM      9  C   UNL d   1      28.291 -14.340  -5.975  0.00  0.00    -0.061 A 
ATOM     10  C   UNL d   1      27.714 -13.076  -6.146  0.00  0.00     0.013 A 
ATOM     11  C   UNL d   1      29.395 -14.823  -6.869  0.00  0.00     0.048 C 
ATOM     12  C   UNL d   1      26.681 -12.644  -5.306  0.00  0.00    -0.061 A 
ATOM     13  C   UNL d   1      26.043 -11.298  -5.484  0.00  0.00     0.048 C 
ATOM     14  C   UNL d   1      26.222 -13.485  -4.281  0.00  0.00     0.023 A 
ENDBRANCH   4   7
ENDBRANCH   1   3
BRANCH   1  15
ATOM     15  C   UNL d   1      25.780 -16.561  -0.146  0.00  0.00     0.173 C 
BRANCH  15  16
ATOM     16  O   UNL d   1      25.734 -15.130  -0.250  0.00  0.00    -0.389 OA
ATOM     17  H   UNL d   1      25.385 -14.913  -1.130  0.00  0.00     0.210 HD
ENDBRANCH  15  16
BRANCH  15  18
ATOM     18  C   UNL d   1      24.420 -17.167  -0.453  0.00  0.00    -0.028 A 
ATOM     19  C   UNL d   1      23.318 -16.325  -0.709  0.00  0.00     0.012 A 
ATOM     20  C   UNL d   1      22.035 -16.852  -0.895  0.00  0.00     0.037 A 
ATOM     21  C   UNL d   1      21.856 -18.229  -0.856  0.00  0.00     0.065 A 
ATOM     22  C   UNL d   1      22.926 -19.077  -0.603  0.00  0.00     0.037 A 
ATOM     23  C   UNL d   1      24.198 -18.550  -0.392  0.00  0.00     0.012 A 
BRANCH  21  24
ATOM     24  O   UNL d   1      20.639 -18.808  -1.055  0.00  0.00    -0.361 OA
ATOM     25  H   UNL d   1      19.980 -18.114  -1.214  0.00  0.00     0.217 HD
ENDBRANCH  21  24
ENDBRANCH  15  18
ENDBRANCH   1  15
TORSDOF 6
ENDMDL
MODEL 9
REMARK VINA RESULT:    -6.469      2.701      4.618
REMARK INTER + INTRA:          -9.835
REMARK INTER:                  -8.259
REMARK INTRA:                  -1.576
REMARK CONF_INDEPENDENT:        1.790
REMARK UNBOUND:                -1.576
REMARK  6 active torsions:
REMARK  status: ('A' for Active; 'I' for Inactive)
REMARK    1  A    between atoms: C_7  and  C_8 
REMARK       I    between atoms: C_8  and  N_10 
REMARK    2  A    between atoms: N_10  and  C_11 
REMARK    3  A    between atoms: C_11  and  C_13 
REMARK    4  A    between atoms: C_13  and  O_14 
REMARK    5  A    between atoms: C_13  and  C_15 
REMARK    6  A    between atoms: C_18  and  O_19 
ROOT
ATOM      1  C   UNL d   1      26.900 -16.939  -1.200  0.00  0.00     0.114 C 
ATOM      2  C   UNL d   1      28.166 -17.328  -0.430  0.00  0.00     0.035 C 
ENDROOT
BRANCH   1   3
ATOM      3  N   UNL d   1      27.222 -15.926  -2.215  0.00  0.00    -0.350 N 
ATOM      4  C   UNL d   1      26.300 -15.522  -3.163  0.00  0.00     0.252 C 
ATOM      5  O   UNL d   1      25.154 -15.969  -3.199  0.00  0.00    -0.268 OA
ATOM      6  H   UNL d   1      28.125 -15.479  -2.133  0.00  0.00     0.163 HD
BRANCH   4   7
ATOM      7  C   UNL d   1      26.716 -14.519  -4.188  0.00  0.00     0.033 A 
ATOM      8  C   UNL d   1      26.160 -13.232  -4.115  0.00  0.00     0.023 A 
ATOM      9  C   UNL d   1      26.512 -12.234  -5.036  0.00  0.00    -0.061 A 
ATOM     10  C   UNL d   1      27.427 -12.541  -6.048  0.00  0.00     0.013 A 
ATOM     11  C   UNL d   1      25.903 -10.867  -4.918  0.00  0.00     0.048 C 
ATOM     12  C   UNL d   1      27.989 -13.820  -6.139  0.00  0.00    -0.061 A 
ATOM     13  C   UNL d   1      28.982 -14.161  -7.210  0.00  0.00     0.048 C 
ATOM     14  C   UNL d   1      27.628 -14.805  -5.207  0.00  0.00     0.023 A 
ENDBRANCH   4   7
ENDBRANCH   1   3
BRANCH   1  15
ATOM     15  C   UNL d   1      25.801 -16.425  -0.217  0.00  0.00     0.173 C 
BRANCH  15  16
ATOM     16  O   UNL d   1      25.609 -15.013  -0.390  0.00  0.00    -0.389 OA
ATOM     17  H   UNL d   1      25.346 -14.866  -1.313  0.00  0.00     0.210 HD
ENDBRANCH  15  16
BRANCH  15  18
ATOM     18  C   UNL d   1      24.486 -17.172  -0.379  0.00  0.00    -0.028 A 
ATOM     19  C   UNL d   1      24.469 -18.581  -0.331  0.00  0.00     0.012 A 
ATOM     20  C   UNL d   1      23.293 -19.298  -0.576  0.00  0.00     0.037 A 
ATOM     21  C   UNL d   1      22.120 -18.603  -0.843  0.00  0.00     0.065 A 
ATOM     22  C   UNL d   1      22.114 -17.216  -0.898  0.00  0.00     0.037 A 
ATOM     23  C   UNL d   1      23.291 -16.504  -0.679  0.00  0.00     0.012 A 
BRANCH  21  24
ATOM     24  O   UNL d   1      20.935 -19.238  -1.064  0.00  0.00    -0.361 OA
ATOM     25  H   UNL d   1      20.457 -18.777  -1.772  0.00  0.00     0.217 HD
ENDBRANCH  21  24
ENDBRANCH  15  18
ENDBRANCH   1  15
TORSDOF 6
ENDMDL
