MODEL 1
REMARK VINA RESULT:   -10.896      0.000      0.000
REMARK INTER + INTRA:         -16.103
REMARK INTER:                 -14.476
REMARK INTRA:                  -1.627
REMARK CONF_INDEPENDENT:        3.580
REMARK UNBOUND:                -1.627
REMARK  12 active torsions:
REMARK  status: ('A' for Active; 'I' for Inactive)
REMARK    1  A    between atoms: C_2  and  C_3 
REMARK    2  A    between atoms: C_3  and  C_4 
REMARK       I    between atoms: C_4  and  N_6 
REMARK    3  A    between atoms: N_6  and  C_7 
REMARK    4  A    between atoms: C_12  and  N_13 
REMARK       I    between atoms: N_13  and  C_14 
REMARK    5  A    between atoms: C_14  and  C_16 
REMARK    6  A    between atoms: C_16  and  N_17 
REMARK    7  A    between atoms: N_17  and  C_18 
REMARK    8  A    between atoms: C_22  and  O_23 
REMARK    9  A    between atoms: O_23  and  C_24 
REMARK   10  A    between atoms: C_24  and  C_25 
REMARK   11  A    between atoms: C_25  and  C_26 
REMARK   12  A    between atoms: C_26  and  C_27 
ROOT
ATOM      1  C   UNL d   1      28.246 -15.190   1.333  0.00  0.00     0.223 C 
ENDROOT
BRANCH   1   2
ATOM      2  C   UNL d   1      27.999 -14.350   2.587  0.00  0.00     0.239 C 
ATOM      3  N   UNL d   1      28.809 -14.488   3.704  0.00  0.00    -0.324 N 
ATOM      4  H   UNL d   1      29.564 -15.164   3.645  0.00  0.00     0.169 HD
ATOM      5  O   UNL d   1      27.042 -13.581   2.480  0.00  0.00    -0.271 OA
BRANCH   3   6
ATOM      6  C   UNL d   1      28.700 -13.734   4.946  0.00  0.00     0.058 A 
ATOM      7  C   UNL d   1      28.317 -12.368   5.075  0.00  0.00     0.060 A 
ATOM      8  C   UNL d   1      28.278 -11.754   6.323  0.00  0.00     0.028 A 
ATOM      9 CL   UNL d   1      27.803 -11.193   3.916  0.00  0.00    -0.082 Cl
ATOM     10  C   UNL d   1      28.545 -12.444   7.480  0.00  0.00     0.031 A 
ATOM     11  C   UNL d   1      28.870 -13.792   7.442  0.00  0.00     0.036 A 
ATOM     12  C   UNL d   1      28.999 -14.430   6.177  0.00  0.00     0.060 A 
BRANCH  11  13
ATOM     13  N   UNL d   1      29.051 -14.446   8.697  0.00  0.00    -0.327 N 
ATOM     14  C   UNL d   1      28.504 -13.904   9.870  0.00  0.00     0.222 C 
ATOM     15  O   UNL d   1      27.780 -12.907   9.886  0.00  0.00    -0.273 OA
ATOM     16  H   UNL d   1      29.448 -15.375   8.718  0.00  0.00     0.169 HD
BRANCH  14  17
ATOM     17  C   UNL d   1      28.808 -14.645  11.167  0.00  0.00     0.103 C 
BRANCH  17  18
ATOM     18  C   UNL d   1      30.227 -15.245  11.114  0.00  0.00     0.005 C 
ATOM     19  C   UNL d   1      31.295 -14.299  11.633  0.00  0.00     0.005 C 
ENDBRANCH  17  18
ENDBRANCH  14  17
ENDBRANCH  11  13
ENDBRANCH   3   6
ENDBRANCH   1   2
BRANCH   1  20
ATOM     20  N   UNL d   1      27.238 -14.753   0.345  0.00  0.00    -0.381 N 
ATOM     21  H   UNL d   1      26.938 -13.776   0.471  0.00  0.00     0.160 HD
BRANCH  20  22
ATOM     22  C   UNL d   1      26.384 -15.572  -0.342  0.00  0.00     0.030 A 
ATOM     23  C   UNL d   1      25.864 -15.169  -1.574  0.00  0.00     0.029 A 
ATOM     24  C   UNL d   1      25.037 -16.018  -2.314  0.00  0.00     0.005 A 
ATOM     25  C   UNL d   1      24.746 -17.293  -1.832  0.00  0.00     0.037 A 
ATOM     26  C   UNL d   1      25.231 -17.690  -0.589  0.00  0.00     0.070 A 
ATOM     27  C   UNL d   1      26.043 -16.824   0.138  0.00  0.00     0.065 A 
BRANCH  26  28
ATOM     28  O   UNL d   1      24.864 -18.930  -0.147  0.00  0.00    -0.351 OA
BRANCH  28  29
ATOM     29  C   UNL d   1      23.548 -19.331  -0.536  0.00  0.00     0.176 C 
BRANCH  29  30
ATOM     30  C   UNL d   1      22.588 -18.291  -0.027  0.00  0.00     0.031 C 
BRANCH  30  31
ATOM     31  C   UNL d   1      21.216 -18.423  -0.677  0.00  0.00     0.041 C 
BRANCH  31  32
ATOM     32  C   UNL d   1      20.286 -19.321   0.100  0.00  0.00    -0.058 A 
ATOM     33  C   UNL d   1      19.280 -20.079  -0.520  0.00  0.00     0.007 A 
ATOM     34  C   UNL d   1      18.349 -20.782   0.233  0.00  0.00     0.001 A 
ATOM     35  C   UNL d   1      18.470 -20.820   1.616  0.00  0.00     0.000 A 
ATOM     36  C   UNL d   1      19.498 -20.120   2.247  0.00  0.00     0.001 A 
ATOM     37  C   UNL d   1      20.399 -19.367   1.494  0.00  0.00     0.007 A 
ENDBRANCH  31  32
ENDBRANCH  30  31
ENDBRANCH  29  30
ENDBRANCH  28  29
ENDBRANCH  26  28
ENDBRANCH  20  22
ENDBRANCH   1  20
TORSDOF 12
ENDMDL
MODEL 2
REMARK VINA RESULT:   -10.726      6.726     10.665
REMARK INTER + INTRA:         -16.417
REMARK INTER:                 -14.306
REMARK INTRA:                  -2.111
REMARK CONF_INDEPENDENT:        3.580
REMARK UNBOUND:                -2.111
REMARK  12 active torsions:
REMARK  status: ('A' for Active; 'I' for Inactive)
REMARK    1  A    between atoms: C_2  and  C_3 
REMARK    2  A    between atoms: C_3  and  C_4 
REMARK       I    between atoms: C_4  and  N_6 
REMARK    3  A    between atoms: N_6  and  C_7 
REMARK    4  A    between atoms: C_12  and  N_13 
REMARK       I    between atoms: N_13  and  C_14 
REMARK    5  A    between atoms: C_14  and  C_16 
REMARK    6  A    between atoms: C_16  and  N_17 
REMARK    7  A    between atoms: N_17  and  C_18 
REMARK    8  A    between atoms: C_22  and  O_23 
REMARK    9  A    between atoms: O_23  and  C_24 
REMARK   10  A    between atoms: C_24  and  C_25 
REMARK   11  A    between atoms: C_25  and  C_26 
REMARK   12  A    between atoms: C_26  and  C_27 
ROOT
ATOM      1  C   UNL d   1      25.770 -12.702  -2.951  0.00  0.00     0.223 C 
ENDROOT
BRANCH   1   2
ATOM      2  C   UNL d   1      25.344 -14.127  -2.597  0.00  0.00     0.239 C 
ATOM      3  N   UNL d   1      25.731 -14.706  -1.398  0.00  0.00    -0.324 N 
ATOM      4  H   UNL d   1      26.302 -14.141  -0.777  0.00  0.00     0.169 HD
ATOM      5  O   UNL d   1      24.652 -14.661  -3.466  0.00  0.00    -0.271 OA
BRANCH   3   6
ATOM      6  C   UNL d   1      25.373 -16.039  -0.929  0.00  0.00     0.058 A 
ATOM      7  C   UNL d   1      26.278 -17.083  -0.583  0.00  0.00     0.060 A 
ATOM      8  C   UNL d   1      25.806 -18.326  -0.171  0.00  0.00     0.028 A 
ATOM      9 CL   UNL d   1      28.004 -17.150  -0.519  0.00  0.00    -0.082 Cl
ATOM     10  C   UNL d   1      24.465 -18.581  -0.023  0.00  0.00     0.031 A 
ATOM     11  C   UNL d   1      23.523 -17.596  -0.286  0.00  0.00     0.036 A 
ATOM     12  C   UNL d   1      23.967 -16.340  -0.787  0.00  0.00     0.060 A 
BRANCH  11  13
ATOM     13  N   UNL d   1      22.159 -17.923  -0.026  0.00  0.00    -0.327 N 
ATOM     14  C   UNL d   1      21.448 -18.761  -0.897  0.00  0.00     0.222 C 
ATOM     15  O   UNL d   1      21.956 -19.325  -1.867  0.00  0.00    -0.273 OA
ATOM     16  H   UNL d   1      21.751 -17.669   0.863  0.00  0.00     0.169 HD
BRANCH  14  17
ATOM     17  C   UNL d   1      19.978 -18.997  -0.564  0.00  0.00     0.103 C 
BRANCH  17  18
ATOM     18  C   UNL d   1      19.829 -20.269   0.294  0.00  0.00     0.005 C 
ATOM     19  C   UNL d   1      18.953 -20.065   1.517  0.00  0.00     0.005 C 
ENDBRANCH  17  18
ENDBRANCH  14  17
ENDBRANCH  11  13
ENDBRANCH   3   6
ENDBRANCH   1   2
BRANCH   1  20
ATOM     20  N   UNL d   1      25.575 -12.569  -4.410  0.00  0.00    -0.381 N 
ATOM     21  H   UNL d   1      24.590 -12.646  -4.700  0.00  0.00     0.160 HD
BRANCH  20  22
ATOM     22  C   UNL d   1      26.517 -12.823  -5.370  0.00  0.00     0.030 A 
ATOM     23  C   UNL d   1      26.885 -11.823  -6.273  0.00  0.00     0.029 A 
ATOM     24  C   UNL d   1      27.887 -12.049  -7.220  0.00  0.00     0.005 A 
ATOM     25  C   UNL d   1      28.547 -13.276  -7.250  0.00  0.00     0.037 A 
ATOM     26  C   UNL d   1      28.164 -14.289  -6.376  0.00  0.00     0.070 A 
ATOM     27  C   UNL d   1      27.154 -14.048  -5.449  0.00  0.00     0.065 A 
BRANCH  26  28
ATOM     28  O   UNL d   1      28.811 -15.487  -6.493  0.00  0.00    -0.351 OA
BRANCH  28  29
ATOM     29  C   UNL d   1      29.963 -15.622  -5.657  0.00  0.00     0.176 C 
BRANCH  29  30
ATOM     30  C   UNL d   1      29.653 -16.672  -4.625  0.00  0.00     0.031 C 
BRANCH  30  31
ATOM     31  C   UNL d   1      30.731 -17.749  -4.575  0.00  0.00     0.041 C 
BRANCH  31  32
ATOM     32  C   UNL d   1      30.944 -18.423  -5.907  0.00  0.00    -0.058 A 
ATOM     33  C   UNL d   1      31.624 -17.798  -6.965  0.00  0.00     0.007 A 
ATOM     34  C   UNL d   1      31.679 -18.384  -8.223  0.00  0.00     0.001 A 
ATOM     35  C   UNL d   1      31.143 -19.650  -8.417  0.00  0.00     0.000 A 
ATOM     36  C   UNL d   1      30.514 -20.311  -7.362  0.00  0.00     0.001 A 
ATOM     37  C   UNL d   1      30.408 -19.699  -6.114  0.00  0.00     0.007 A 
ENDBRANCH  31  32
ENDBRANCH  30  31
ENDBRANCH  29  30
ENDBRANCH  28  29
ENDBRANCH  26  28
ENDBRANCH  20  22
ENDBRANCH   1  20
TORSDOF 12
ENDMDL
MODEL 3
REMARK VINA RESULT:   -10.314      2.848     10.260
REMARK INTER + INTRA:         -15.494
REMARK INTER:                 -13.894
REMARK INTRA:                  -1.600
REMARK CONF_INDEPENDENT:        3.580
REMARK UNBOUND:                -1.600
REMARK  12 active torsions:
REMARK  status: ('A' for Active; 'I' for Inactive)
REMARK    1  A    between atoms: C_2  and  C_3 
REMARK    2  A    between atoms: C_3  and  C_4 
REMARK       I    between atoms: C_4  and  N_6 
REMARK    3  A    between atoms: N_6  and  C_7 
REMARK    4  A    between atoms: C_12  and  N_13 
REMARK       I    between atoms: N_13  and  C_14 
REMARK    5  A    between atoms: C_14  and  C_16 
REMARK    6  A    between atoms: C_16  and  N_17 
REMARK    7  A    between atoms: N_17  and  C_18 
REMARK    8  A    between atoms: C_22  and  O_23 
REMARK    9  A    between atoms: O_23  and  C_24 
REMARK   10  A    between atoms: C_24  and  C_25 
REMARK   11  A    between atoms: C_25  and  C_26 
REMARK   12  A    between atoms: C_26  and  C_27 
ROOT
ATOM      1  C   UNL d   1      29.218 -17.574  -0.566  0.00  0.00     0.223 C 
ENDROOT
BRANCH   1   2
ATOM      2  C   UNL d   1      27.781 -17.270  -0.990  0.00  0.00     0.239 C 
ATOM      3  N   UNL d   1      26.717 -17.564  -0.152  0.00  0.00    -0.324 N 
ATOM      4  H   UNL d   1      26.939 -17.984   0.745  0.00  0.00     0.169 HD
ATOM      5  O   UNL d   1      27.700 -16.758  -2.109  0.00  0.00    -0.271 OA
BRANCH   3   6
ATOM      6  C   UNL d   1      25.309 -17.301  -0.422  0.00  0.00     0.058 A 
ATOM      7  C   UNL d   1      24.776 -16.166  -1.097  0.00  0.00     0.060 A 
ATOM      8  C   UNL d   1      23.403 -16.019  -1.267  0.00  0.00     0.028 A 
ATOM      9 CL   UNL d   1      25.529 -14.809  -1.860  0.00  0.00    -0.082 Cl
ATOM     10  C   UNL d   1      22.513 -16.978  -0.853  0.00  0.00     0.031 A 
ATOM     11  C   UNL d   1      22.959 -18.139  -0.237  0.00  0.00     0.036 A 
ATOM     12  C   UNL d   1      24.349 -18.284   0.026  0.00  0.00     0.060 A 
BRANCH  11  13
ATOM     13  N   UNL d   1      21.971 -19.117   0.086  0.00  0.00    -0.327 N 
ATOM     14  C   UNL d   1      20.676 -19.025  -0.445  0.00  0.00     0.222 C 
ATOM     15  O   UNL d   1      20.336 -18.175  -1.269  0.00  0.00    -0.273 OA
ATOM     16  H   UNL d   1      22.247 -19.954   0.581  0.00  0.00     0.169 HD
BRANCH  14  17
ATOM     17  C   UNL d   1      19.677 -20.083   0.013  0.00  0.00     0.103 C 
BRANCH  17  18
ATOM     18  C   UNL d   1      19.659 -20.162   1.552  0.00  0.00     0.005 C 
ATOM     19  C   UNL d   1      18.405 -20.819   2.100  0.00  0.00     0.005 C 
ENDBRANCH  17  18
ENDBRANCH  14  17
ENDBRANCH  11  13
ENDBRANCH   3   6
ENDBRANCH   1   2
BRANCH   1  20
ATOM     20  N   UNL d   1      29.639 -16.445   0.290  0.00  0.00    -0.381 N 
ATOM     21  H   UNL d   1      30.218 -16.732   1.090  0.00  0.00     0.160 HD
BRANCH  20  22
ATOM     22  C   UNL d   1      28.997 -15.241   0.398  0.00  0.00     0.030 A 
ATOM     23  C   UNL d   1      29.082 -14.305  -0.635  0.00  0.00     0.029 A 
ATOM     24  C   UNL d   1      28.386 -13.096  -0.564  0.00  0.00     0.005 A 
ATOM     25  C   UNL d   1      27.575 -12.828   0.538  0.00  0.00     0.037 A 
ATOM     26  C   UNL d   1      27.511 -13.740   1.587  0.00  0.00     0.070 A 
ATOM     27  C   UNL d   1      28.224 -14.933   1.503  0.00  0.00     0.065 A 
BRANCH  26  28
ATOM     28  O   UNL d   1      26.744 -13.394   2.664  0.00  0.00    -0.351 OA
BRANCH  28  29
ATOM     29  C   UNL d   1      27.488 -13.075   3.843  0.00  0.00     0.176 C 
BRANCH  29  30
ATOM     30  C   UNL d   1      27.418 -14.266   4.758  0.00  0.00     0.031 C 
BRANCH  30  31
ATOM     31  C   UNL d   1      28.728 -14.478   5.509  0.00  0.00     0.041 C 
BRANCH  31  32
ATOM     32  C   UNL d   1      28.857 -13.589   6.720  0.00  0.00    -0.058 A 
ATOM     33  C   UNL d   1      29.258 -14.080   7.973  0.00  0.00     0.007 A 
ATOM     34  C   UNL d   1      29.228 -13.270   9.101  0.00  0.00     0.001 A 
ATOM     35  C   UNL d   1      28.894 -11.928   8.975  0.00  0.00     0.000 A 
ATOM     36  C   UNL d   1      28.549 -11.408   7.728  0.00  0.00     0.001 A 
ATOM     37  C   UNL d   1      28.523 -12.235   6.605  0.00  0.00     0.007 A 
ENDBRANCH  31  32
ENDBRANCH  30  31
ENDBRANCH  29  30
ENDBRANCH  28  29
ENDBRANCH  26  28
ENDBRANCH  20  22
ENDBRANCH   1  20
TORSDOF 12
ENDMDL
MODEL 4
REMARK VINA RESULT:   -10.139      6.591      9.137
REMARK INTER + INTRA:         -15.347
REMARK INTER:                 -13.718
REMARK INTRA:                  -1.629
REMARK CONF_INDEPENDENT:        3.580
REMARK UNBOUND:                -1.629
REMARK  12 active torsions:
REMARK  status: ('A' for Active; 'I' for Inactive)
REMARK    1  A    between atoms: C_2  and  C_3 
REMARK    2  A    between atoms: C_3  and  C_4 
REMARK       I    between atoms: C_4  and  N_6 
REMARK    3  A    between atoms: N_6  and  C_7 
REMARK    4  A    between atoms: C_12  and  N_13 
REMARK       I    between atoms: N_13  and  C_14 
REMARK    5  A    between atoms: C_14  and  C_16 
REMARK    6  A    between atoms: C_16  and  N_17 
REMARK    7  A    between atoms: N_17  and  C_18 
REMARK    8  A    between atoms: C_22  and  O_23 
REMARK    9  A    between atoms: O_23  and  C_24 
REMARK   10  A    between atoms: C_24  and  C_25 
REMARK   11  A    between atoms: C_25  and  C_26 
REMARK   12  A    between atoms: C_26  and  C_27 
ROOT
ATOM      1  C   UNL d   1      25.169 -13.804  -3.553  0.00  0.00     0.223 C 
ENDROOT
BRANCH   1   2
ATOM      2  C   UNL d   1      26.144 -14.583  -4.437  0.00  0.00     0.239 C 
ATOM      3  N   UNL d   1      27.513 -14.477  -4.248  0.00  0.00    -0.324 N 
ATOM      4  H   UNL d   1      27.829 -13.865  -3.501  0.00  0.00     0.169 HD
ATOM      5  O   UNL d   1      25.584 -15.276  -5.289  0.00  0.00    -0.271 OA
BRANCH   3   6
ATOM      6  C   UNL d   1      28.545 -15.182  -4.998  0.00  0.00     0.058 A 
ATOM      7  C   UNL d   1      29.068 -14.809  -6.269  0.00  0.00     0.060 A 
ATOM      8  C   UNL d   1      30.038 -15.587  -6.895  0.00  0.00     0.028 A 
ATOM      9 CL   UNL d   1      28.765 -13.452  -7.297  0.00  0.00    -0.082 Cl
ATOM     10  C   UNL d   1      30.572 -16.702  -6.298  0.00  0.00     0.031 A 
ATOM     11  C   UNL d   1      30.154 -17.097  -5.035  0.00  0.00     0.036 A 
ATOM     12  C   UNL d   1      29.106 -16.373  -4.402  0.00  0.00     0.060 A 
BRANCH  11  13
ATOM     13  N   UNL d   1      30.822 -18.219  -4.459  0.00  0.00    -0.327 N 
ATOM     14  C   UNL d   1      30.736 -19.485  -5.056  0.00  0.00     0.222 C 
ATOM     15  O   UNL d   1      30.173 -19.694  -6.131  0.00  0.00    -0.273 OA
ATOM     16  H   UNL d   1      31.474 -18.070  -3.701  0.00  0.00     0.169 HD
BRANCH  14  17
ATOM     17  C   UNL d   1      31.433 -20.629  -4.326  0.00  0.00     0.103 C 
BRANCH  17  18
ATOM     18  C   UNL d   1      31.531 -20.314  -2.821  0.00  0.00     0.005 C 
ATOM     19  C   UNL d   1      31.466 -21.554  -1.947  0.00  0.00     0.005 C 
ENDBRANCH  17  18
ENDBRANCH  14  17
ENDBRANCH  11  13
ENDBRANCH   3   6
ENDBRANCH   1   2
BRANCH   1  20
ATOM     20  N   UNL d   1      24.478 -14.811  -2.722  0.00  0.00    -0.381 N 
ATOM     21  H   UNL d   1      23.492 -14.582  -2.537  0.00  0.00     0.160 HD
BRANCH  20  22
ATOM     22  C   UNL d   1      25.080 -15.679  -1.851  0.00  0.00     0.030 A 
ATOM     23  C   UNL d   1      26.295 -15.341  -1.253  0.00  0.00     0.029 A 
ATOM     24  C   UNL d   1      26.892 -16.191  -0.318  0.00  0.00     0.005 A 
ATOM     25  C   UNL d   1      26.257 -17.378   0.044  0.00  0.00     0.037 A 
ATOM     26  C   UNL d   1      25.063 -17.738  -0.572  0.00  0.00     0.070 A 
ATOM     27  C   UNL d   1      24.491 -16.884  -1.511  0.00  0.00     0.065 A 
BRANCH  26  28
ATOM     28  O   UNL d   1      24.519 -18.940  -0.215  0.00  0.00    -0.351 OA
BRANCH  28  29
ATOM     29  C   UNL d   1      23.275 -19.239  -0.853  0.00  0.00     0.176 C 
BRANCH  29  30
ATOM     30  C   UNL d   1      22.221 -18.376  -0.218  0.00  0.00     0.031 C 
BRANCH  30  31
ATOM     31  C   UNL d   1      20.848 -18.612  -0.838  0.00  0.00     0.041 C 
BRANCH  31  32
ATOM     32  C   UNL d   1      19.938 -19.422   0.051  0.00  0.00    -0.058 A 
ATOM     33  C   UNL d   1      20.178 -19.583   1.425  0.00  0.00     0.007 A 
ATOM     34  C   UNL d   1      19.407 -20.450   2.188  0.00  0.00     0.001 A 
ATOM     35  C   UNL d   1      18.320 -21.093   1.610  0.00  0.00     0.000 A 
ATOM     36  C   UNL d   1      18.030 -20.900   0.260  0.00  0.00     0.001 A 
ATOM     37  C   UNL d   1      18.839 -20.074  -0.520  0.00  0.00     0.007 A 
ENDBRANCH  31  32
ENDBRANCH  30  31
ENDBRANCH  29  30
ENDBRANCH  28  29
ENDBRANCH  26  28
ENDBRANCH  20  22
ENDBRANCH   1  20
TORSDOF 12
ENDMDL
MODEL 5
REMARK VINA RESULT:    -9.660      6.701     10.414
REMARK INTER + INTRA:         -15.588
REMARK INTER:                 -13.239
REMARK INTRA:                  -2.348
REMARK CONF_INDEPENDENT:        3.580
REMARK UNBOUND:                -2.348
REMARK  12 active torsions:
REMARK  status: ('A' for Active; 'I' for Inactive)
REMARK    1  A    between atoms: C_2  and  C_3 
REMARK    2  A    between atoms: C_3  and  C_4 
REMARK       I    between atoms: C_4  and  N_6 
REMARK    3  A    between atoms: N_6  and  C_7 
REMARK    4  A    between atoms: C_12  and  N_13 
REMARK       I    between atoms: N_13  and  C_14 
REMARK    5  A    between atoms: C_14  and  C_16 
REMARK    6  A    between atoms: C_16  and  N_17 
REMARK    7  A    between atoms: N_17  and  C_18 
REMARK    8  A    between atoms: C_22  and  O_23 
REMARK    9  A    between atoms: O_23  and  C_24 
REMARK   10  A    between atoms: C_24  and  C_25 
REMARK   11  A    between atoms: C_25  and  C_26 
REMARK   12  A    between atoms: C_26  and  C_27 
ROOT
ATOM      1  C   UNL d   1      25.910 -12.694  -2.829  0.00  0.00     0.223 C 
ENDROOT
BRANCH   1   2
ATOM      2  C   UNL d   1      25.410 -14.100  -2.498  0.00  0.00     0.239 C 
ATOM      3  N   UNL d   1      25.846 -14.759  -1.359  0.00  0.00    -0.324 N 
ATOM      4  H   UNL d   1      26.504 -14.264  -0.764  0.00  0.00     0.169 HD
ATOM      5  O   UNL d   1      24.615 -14.544  -3.329  0.00  0.00    -0.271 OA
BRANCH   3   6
ATOM      6  C   UNL d   1      25.429 -16.083  -0.915  0.00  0.00     0.058 A 
ATOM      7  C   UNL d   1      26.286 -17.152  -0.526  0.00  0.00     0.060 A 
ATOM      8  C   UNL d   1      25.761 -18.383  -0.145  0.00  0.00     0.028 A 
ATOM      9 CL   UNL d   1      28.004 -17.264  -0.369  0.00  0.00    -0.082 Cl
ATOM     10  C   UNL d   1      24.408 -18.603  -0.071  0.00  0.00     0.031 A 
ATOM     11  C   UNL d   1      23.508 -17.593  -0.381  0.00  0.00     0.036 A 
ATOM     12  C   UNL d   1      24.010 -16.348  -0.851  0.00  0.00     0.060 A 
BRANCH  11  13
ATOM     13  N   UNL d   1      22.124 -17.886  -0.196  0.00  0.00    -0.327 N 
ATOM     14  C   UNL d   1      21.447 -18.729  -1.091  0.00  0.00     0.222 C 
ATOM     15  O   UNL d   1      22.000 -19.325  -2.016  0.00  0.00    -0.273 OA
ATOM     16  H   UNL d   1      21.668 -17.604   0.660  0.00  0.00     0.169 HD
BRANCH  14  17
ATOM     17  C   UNL d   1      19.955 -18.927  -0.842  0.00  0.00     0.103 C 
BRANCH  17  18
ATOM     18  C   UNL d   1      19.726 -19.495   0.572  0.00  0.00     0.005 C 
ATOM     19  C   UNL d   1      19.686 -21.013   0.605  0.00  0.00     0.005 C 
ENDBRANCH  17  18
ENDBRANCH  14  17
ENDBRANCH  11  13
ENDBRANCH   3   6
ENDBRANCH   1   2
BRANCH   1  20
ATOM     20  N   UNL d   1      25.668 -12.504  -4.274  0.00  0.00    -0.381 N 
ATOM     21  H   UNL d   1      24.675 -12.574  -4.535  0.00  0.00     0.160 HD
BRANCH  20  22
ATOM     22  C   UNL d   1      26.580 -12.715  -5.273  0.00  0.00     0.030 A 
ATOM     23  C   UNL d   1      26.947 -11.667  -6.120  0.00  0.00     0.029 A 
ATOM     24  C   UNL d   1      27.920 -11.853  -7.106  0.00  0.00     0.005 A 
ATOM     25  C   UNL d   1      28.551 -13.089  -7.232  0.00  0.00     0.037 A 
ATOM     26  C   UNL d   1      28.167 -14.148  -6.415  0.00  0.00     0.070 A 
ATOM     27  C   UNL d   1      27.187 -13.946  -5.447  0.00  0.00     0.065 A 
BRANCH  26  28
ATOM     28  O   UNL d   1      28.783 -15.349  -6.625  0.00  0.00    -0.351 OA
BRANCH  28  29
ATOM     29  C   UNL d   1      30.194 -15.339  -6.394  0.00  0.00     0.176 C 
BRANCH  29  30
ATOM     30  C   UNL d   1      30.420 -15.724  -4.957  0.00  0.00     0.031 C 
BRANCH  30  31
ATOM     31  C   UNL d   1      29.654 -16.988  -4.584  0.00  0.00     0.041 C 
BRANCH  31  32
ATOM     32  C   UNL d   1      30.557 -18.178  -4.380  0.00  0.00    -0.058 A 
ATOM     33  C   UNL d   1      30.404 -19.370  -5.106  0.00  0.00     0.007 A 
ATOM     34  C   UNL d   1      31.156 -20.496  -4.796  0.00  0.00     0.001 A 
ATOM     35  C   UNL d   1      32.144 -20.418  -3.823  0.00  0.00     0.000 A 
ATOM     36  C   UNL d   1      32.350 -19.225  -3.131  0.00  0.00     0.001 A 
ATOM     37  C   UNL d   1      31.556 -18.111  -3.402  0.00  0.00     0.007 A 
ENDBRANCH  31  32
ENDBRANCH  30  31
ENDBRANCH  29  30
ENDBRANCH  28  29
ENDBRANCH  26  28
ENDBRANCH  20  22
ENDBRANCH   1  20
TORSDOF 12
ENDMDL
MODEL 6
REMARK VINA RESULT:    -9.507      3.702     10.103
REMARK INTER + INTRA:         -15.370
REMARK INTER:                 -13.087
REMARK INTRA:                  -2.283
REMARK CONF_INDEPENDENT:        3.580
REMARK UNBOUND:                -2.283
REMARK  12 active torsions:
REMARK  status: ('A' for Active; 'I' for Inactive)
REMARK    1  A    between atoms: C_2  and  C_3 
REMARK    2  A    between atoms: C_3  and  C_4 
REMARK       I    between atoms: C_4  and  N_6 
REMARK    3  A    between atoms: N_6  and  C_7 
REMARK    4  A    between atoms: C_12  and  N_13 
REMARK       I    between atoms: N_13  and  C_14 
REMARK    5  A    between atoms: C_14  and  C_16 
REMARK    6  A    between atoms: C_16  and  N_17 
REMARK    7  A    between atoms: N_17  and  C_18 
REMARK    8  A    between atoms: C_22  and  O_23 
REMARK    9  A    between atoms: O_23  and  C_24 
REMARK   10  A    between atoms: C_24  and  C_25 
REMARK   11  A    between atoms: C_25  and  C_26 
REMARK   12  A    between atoms: C_26  and  C_27 
ROOT
ATOM      1  C   UNL d   1      25.441 -13.232  -4.168  0.00  0.00     0.223 C 
ENDROOT
BRANCH   1   2
ATOM      2  C   UNL d   1      25.324 -14.629  -3.558  0.00  0.00     0.239 C 
ATOM      3  N   UNL d   1      25.031 -14.795  -2.213  0.00  0.00    -0.324 N 
ATOM      4  H   UNL d   1      24.898 -13.951  -1.664  0.00  0.00     0.169 HD
ATOM      5  O   UNL d   1      25.515 -15.535  -4.372  0.00  0.00    -0.271 OA
BRANCH   3   6
ATOM      6  C   UNL d   1      24.866 -16.064  -1.516  0.00  0.00     0.058 A 
ATOM      7  C   UNL d   1      25.907 -16.949  -1.115  0.00  0.00     0.060 A 
ATOM      8  C   UNL d   1      25.613 -18.150  -0.476  0.00  0.00     0.028 A 
ATOM      9 CL   UNL d   1      27.629 -16.840  -1.223  0.00  0.00    -0.082 Cl
ATOM     10  C   UNL d   1      24.327 -18.505  -0.152  0.00  0.00     0.031 A 
ATOM     11  C   UNL d   1      23.263 -17.668  -0.459  0.00  0.00     0.036 A 
ATOM     12  C   UNL d   1      23.520 -16.471  -1.185  0.00  0.00     0.060 A 
BRANCH  11  13
ATOM     13  N   UNL d   1      21.972 -18.079  -0.012  0.00  0.00    -0.327 N 
ATOM     14  C   UNL d   1      21.152 -18.870  -0.830  0.00  0.00     0.222 C 
ATOM     15  O   UNL d   1      21.510 -19.324  -1.917  0.00  0.00    -0.273 OA
ATOM     16  H   UNL d   1      21.709 -17.922   0.951  0.00  0.00     0.169 HD
BRANCH  14  17
ATOM     17  C   UNL d   1      19.766 -19.201  -0.286  0.00  0.00     0.103 C 
BRANCH  17  18
ATOM     18  C   UNL d   1      19.807 -20.533   0.490  0.00  0.00     0.005 C 
ATOM     19  C   UNL d   1      18.445 -21.191   0.618  0.00  0.00     0.005 C 
ENDBRANCH  17  18
ENDBRANCH  14  17
ENDBRANCH  11  13
ENDBRANCH   3   6
ENDBRANCH   1   2
BRANCH   1  20
ATOM     20  N   UNL d   1      26.869 -12.863  -4.071  0.00  0.00    -0.381 N 
ATOM     21  H   UNL d   1      27.263 -12.521  -4.958  0.00  0.00     0.160 HD
BRANCH  20  22
ATOM     22  C   UNL d   1      27.759 -13.343  -3.149  0.00  0.00     0.030 A 
ATOM     23  C   UNL d   1      28.938 -13.961  -3.568  0.00  0.00     0.029 A 
ATOM     24  C   UNL d   1      29.882 -14.404  -2.638  0.00  0.00     0.005 A 
ATOM     25  C   UNL d   1      29.660 -14.205  -1.276  0.00  0.00     0.037 A 
ATOM     26  C   UNL d   1      28.472 -13.620  -0.849  0.00  0.00     0.070 A 
ATOM     27  C   UNL d   1      27.538 -13.198  -1.791  0.00  0.00     0.065 A 
BRANCH  26  28
ATOM     28  O   UNL d   1      28.288 -13.504   0.501  0.00  0.00    -0.351 OA
BRANCH  28  29
ATOM     29  C   UNL d   1      26.940 -13.238   0.894  0.00  0.00     0.176 C 
BRANCH  29  30
ATOM     30  C   UNL d   1      26.883 -13.309   2.395  0.00  0.00     0.031 C 
BRANCH  30  31
ATOM     31  C   UNL d   1      28.152 -13.920   2.979  0.00  0.00     0.041 C 
BRANCH  31  32
ATOM     32  C   UNL d   1      28.308 -13.642   4.453  0.00  0.00    -0.058 A 
ATOM     33  C   UNL d   1      28.147 -12.358   4.997  0.00  0.00     0.007 A 
ATOM     34  C   UNL d   1      28.438 -12.106   6.331  0.00  0.00     0.001 A 
ATOM     35  C   UNL d   1      28.796 -13.156   7.167  0.00  0.00     0.000 A 
ATOM     36  C   UNL d   1      28.904 -14.449   6.658  0.00  0.00     0.001 A 
ATOM     37  C   UNL d   1      28.669 -14.692   5.305  0.00  0.00     0.007 A 
ENDBRANCH  31  32
ENDBRANCH  30  31
ENDBRANCH  29  30
ENDBRANCH  28  29
ENDBRANCH  26  28
ENDBRANCH  20  22
ENDBRANCH   1  20
TORSDOF 12
ENDMDL
MODEL 7
REMARK VINA RESULT:    -9.450      6.755     10.370
REMARK INTER + INTRA:         -16.218
REMARK INTER:                 -13.030
REMARK INTRA:                  -3.189
REMARK CONF_INDEPENDENT:        3.580
REMARK UNBOUND:                -3.189
REMARK  12 active torsions:
REMARK  status: ('A' for Active; 'I' for Inactive)
REMARK    1  A    between atoms: C_2  and  C_3 
REMARK    2  A    between atoms: C_3  and  C_4 
REMARK       I    between atoms: C_4  and  N_6 
REMARK    3  A    between atoms: N_6  and  C_7 
REMARK    4  A    between atoms: C_12  and  N_13 
REMARK       I    between atoms: N_13  and  C_14 
REMARK    5  A    between atoms: C_14  and  C_16 
REMARK    6  A    between atoms: C_16  and  N_17 
REMARK    7  A    between atoms: N_17  and  C_18 
REMARK    8  A    between atoms: C_22  and  O_23 
REMARK    9  A    between atoms: O_23  and  C_24 
REMARK   10  A    between atoms: C_24  and  C_25 
REMARK   11  A    between atoms: C_25  and  C_26 
REMARK   12  A    between atoms: C_26  and  C_27 
ROOT
ATOM      1  C   UNL d   1      25.563 -12.644  -3.063  0.00  0.00     0.223 C 
ENDROOT
BRANCH   1   2
ATOM      2  C   UNL d   1      25.167 -14.069  -2.674  0.00  0.00     0.239 C 
ATOM      3  N   UNL d   1      25.636 -14.642  -1.503  0.00  0.00    -0.324 N 
ATOM      4  H   UNL d   1      26.246 -14.072  -0.924  0.00  0.00     0.169 HD
ATOM      5  O   UNL d   1      24.419 -14.608  -3.493  0.00  0.00    -0.271 OA
BRANCH   3   6
ATOM      6  C   UNL d   1      25.315 -15.973  -1.005  0.00  0.00     0.058 A 
ATOM      7  C   UNL d   1      26.247 -16.988  -0.647  0.00  0.00     0.060 A 
ATOM      8  C   UNL d   1      25.809 -18.234  -0.207  0.00  0.00     0.028 A 
ATOM      9 CL   UNL d   1      27.975 -17.012  -0.597  0.00  0.00    -0.082 Cl
ATOM     10  C   UNL d   1      24.476 -18.518  -0.042  0.00  0.00     0.031 A 
ATOM     11  C   UNL d   1      23.509 -17.562  -0.316  0.00  0.00     0.036 A 
ATOM     12  C   UNL d   1      23.918 -16.306  -0.845  0.00  0.00     0.060 A 
BRANCH  11  13
ATOM     13  N   UNL d   1      22.156 -17.917  -0.038  0.00  0.00    -0.327 N 
ATOM     14  C   UNL d   1      21.450 -18.770  -0.899  0.00  0.00     0.222 C 
ATOM     15  O   UNL d   1      21.958 -19.324  -1.875  0.00  0.00    -0.273 OA
ATOM     16  H   UNL d   1      21.754 -17.671   0.856  0.00  0.00     0.169 HD
BRANCH  14  17
ATOM     17  C   UNL d   1      19.991 -19.037  -0.547  0.00  0.00     0.103 C 
BRANCH  17  18
ATOM     18  C   UNL d   1      19.865 -20.376   0.206  0.00  0.00     0.005 C 
ATOM     19  C   UNL d   1      18.427 -20.757   0.510  0.00  0.00     0.005 C 
ENDBRANCH  17  18
ENDBRANCH  14  17
ENDBRANCH  11  13
ENDBRANCH   3   6
ENDBRANCH   1   2
BRANCH   1  20
ATOM     20  N   UNL d   1      25.492 -12.588  -4.538  0.00  0.00    -0.381 N 
ATOM     21  H   UNL d   1      24.542 -12.732  -4.907  0.00  0.00     0.160 HD
BRANCH  20  22
ATOM     22  C   UNL d   1      26.527 -12.833  -5.399  0.00  0.00     0.030 A 
ATOM     23  C   UNL d   1      27.105 -11.784  -6.117  0.00  0.00     0.029 A 
ATOM     24  C   UNL d   1      28.201 -12.010  -6.955  0.00  0.00     0.005 A 
ATOM     25  C   UNL d   1      28.741 -13.291  -7.058  0.00  0.00     0.037 A 
ATOM     26  C   UNL d   1      28.150 -14.348  -6.372  0.00  0.00     0.070 A 
ATOM     27  C   UNL d   1      27.051 -14.104  -5.553  0.00  0.00     0.065 A 
BRANCH  26  28
ATOM     28  O   UNL d   1      28.692 -15.588  -6.559  0.00  0.00    -0.351 OA
BRANCH  28  29
ATOM     29  C   UNL d   1      30.117 -15.635  -6.450  0.00  0.00     0.176 C 
BRANCH  29  30
ATOM     30  C   UNL d   1      30.494 -17.033  -6.046  0.00  0.00     0.031 C 
BRANCH  30  31
ATOM     31  C   UNL d   1      30.403 -17.230  -4.537  0.00  0.00     0.041 C 
BRANCH  31  32
ATOM     32  C   UNL d   1      30.121 -15.946  -3.798  0.00  0.00    -0.058 A 
ATOM     33  C   UNL d   1      31.139 -15.052  -3.429  0.00  0.00     0.007 A 
ATOM     34  C   UNL d   1      30.868 -13.953  -2.625  0.00  0.00     0.001 A 
ATOM     35  C   UNL d   1      29.557 -13.673  -2.262  0.00  0.00     0.000 A 
ATOM     36  C   UNL d   1      28.525 -14.517  -2.667  0.00  0.00     0.001 A 
ATOM     37  C   UNL d   1      28.804 -15.653  -3.426  0.00  0.00     0.007 A 
ENDBRANCH  31  32
ENDBRANCH  30  31
ENDBRANCH  29  30
ENDBRANCH  28  29
ENDBRANCH  26  28
ENDBRANCH  20  22
ENDBRANCH   1  20
TORSDOF 12
ENDMDL
MODEL 8
REMARK VINA RESULT:    -9.345      6.747     11.251
REMARK INTER + INTRA:         -15.437
REMARK INTER:                 -12.925
REMARK INTRA:                  -2.512
REMARK CONF_INDEPENDENT:        3.580
REMARK UNBOUND:                -2.512
REMARK  12 active torsions:
REMARK  status: ('A' for Active; 'I' for Inactive)
REMARK    1  A    between atoms: C_2  and  C_3 
REMARK    2  A    between atoms: C_3  and  C_4 
REMARK       I    between atoms: C_4  and  N_6 
REMARK    3  A    between atoms: N_6  and  C_7 
REMARK    4  A    between atoms: C_12  and  N_13 
REMARK       I    between atoms: N_13  and  C_14 
REMARK    5  A    between atoms: C_14  and  C_16 
REMARK    6  A    between atoms: C_16  and  N_17 
REMARK    7  A    between atoms: N_17  and  C_18 
REMARK    8  A    between atoms: C_22  and  O_23 
REMARK    9  A    between atoms: O_23  and  C_24 
REMARK   10  A    between atoms: C_24  and  C_25 
REMARK   11  A    between atoms: C_25  and  C_26 
REMARK   12  A    between atoms: C_26  and  C_27 
ROOT
ATOM      1  C   UNL d   1      25.837 -12.925  -3.313  0.00  0.00     0.223 C 
ENDROOT
BRANCH   1   2
ATOM      2  C   UNL d   1      25.416 -14.321  -2.851  0.00  0.00     0.239 C 
ATOM      3  N   UNL d   1      25.742 -14.778  -1.584  0.00  0.00    -0.324 N 
ATOM      4  H   UNL d   1      26.266 -14.145  -0.987  0.00  0.00     0.169 HD
ATOM      5  O   UNL d   1      24.786 -14.949  -3.705  0.00  0.00    -0.271 OA
BRANCH   3   6
ATOM      6  C   UNL d   1      25.381 -16.069  -1.013  0.00  0.00     0.058 A 
ATOM      7  C   UNL d   1      26.283 -17.079  -0.573  0.00  0.00     0.060 A 
ATOM      8  C   UNL d   1      25.808 -18.286  -0.068  0.00  0.00     0.028 A 
ATOM      9 CL   UNL d   1      28.009 -17.136  -0.481  0.00  0.00    -0.082 Cl
ATOM     10  C   UNL d   1      24.466 -18.532   0.083  0.00  0.00     0.031 A 
ATOM     11  C   UNL d   1      23.526 -17.575  -0.271  0.00  0.00     0.036 A 
ATOM     12  C   UNL d   1      23.974 -16.362  -0.866  0.00  0.00     0.060 A 
BRANCH  11  13
ATOM     13  N   UNL d   1      22.160 -17.885  -0.003  0.00  0.00    -0.327 N 
ATOM     14  C   UNL d   1      21.439 -18.733  -0.857  0.00  0.00     0.222 C 
ATOM     15  O   UNL d   1      21.942 -19.321  -1.815  0.00  0.00    -0.273 OA
ATOM     16  H   UNL d   1      21.754 -17.609   0.881  0.00  0.00     0.169 HD
BRANCH  14  17
ATOM     17  C   UNL d   1      19.968 -18.949  -0.517  0.00  0.00     0.103 C 
BRANCH  17  18
ATOM     18  C   UNL d   1      19.839 -19.860   0.719  0.00  0.00     0.005 C 
ATOM     19  C   UNL d   1      18.742 -20.901   0.582  0.00  0.00     0.005 C 
ENDBRANCH  17  18
ENDBRANCH  14  17
ENDBRANCH  11  13
ENDBRANCH   3   6
ENDBRANCH   1   2
BRANCH   1  20
ATOM     20  N   UNL d   1      25.841 -12.968  -4.790  0.00  0.00    -0.381 N 
ATOM     21  H   UNL d   1      24.920 -13.184  -5.195  0.00  0.00     0.160 HD
BRANCH  20  22
ATOM     22  C   UNL d   1      26.932 -13.213  -5.580  0.00  0.00     0.030 A 
ATOM     23  C   UNL d   1      27.505 -12.179  -6.324  0.00  0.00     0.029 A 
ATOM     24  C   UNL d   1      28.653 -12.401  -7.089  0.00  0.00     0.005 A 
ATOM     25  C   UNL d   1      29.250 -13.661  -7.092  0.00  0.00     0.037 A 
ATOM     26  C   UNL d   1      28.666 -14.704  -6.381  0.00  0.00     0.070 A 
ATOM     27  C   UNL d   1      27.515 -14.466  -5.635  0.00  0.00     0.065 A 
BRANCH  26  28
ATOM     28  O   UNL d   1      29.268 -15.928  -6.470  0.00  0.00    -0.351 OA
BRANCH  28  29
ATOM     29  C   UNL d   1      29.713 -16.461  -5.220  0.00  0.00     0.176 C 
BRANCH  29  30
ATOM     30  C   UNL d   1      30.428 -17.752  -5.507  0.00  0.00     0.031 C 
BRANCH  30  31
ATOM     31  C   UNL d   1      31.906 -17.525  -5.802  0.00  0.00     0.041 C 
BRANCH  31  32
ATOM     32  C   UNL d   1      32.151 -16.298  -6.644  0.00  0.00    -0.058 A 
ATOM     33  C   UNL d   1      32.239 -16.354  -8.044  0.00  0.00     0.007 A 
ATOM     34  C   UNL d   1      32.607 -15.236  -8.782  0.00  0.00     0.001 A 
ATOM     35  C   UNL d   1      32.795 -14.019  -8.139  0.00  0.00     0.000 A 
ATOM     36  C   UNL d   1      32.655 -13.931  -6.755  0.00  0.00     0.001 A 
ATOM     37  C   UNL d   1      32.342 -15.066  -6.008  0.00  0.00     0.007 A 
ENDBRANCH  31  32
ENDBRANCH  30  31
ENDBRANCH  29  30
ENDBRANCH  28  29
ENDBRANCH  26  28
ENDBRANCH  20  22
ENDBRANCH   1  20
TORSDOF 12
ENDMDL
MODEL 9
REMARK VINA RESULT:    -8.471      6.853     10.755
REMARK INTER + INTRA:         -15.491
REMARK INTER:                 -12.050
REMARK INTRA:                  -3.441
REMARK CONF_INDEPENDENT:        3.580
REMARK UNBOUND:                -3.441
REMARK  12 active torsions:
REMARK  status: ('A' for Active; 'I' for Inactive)
REMARK    1  A    between atoms: C_2  and  C_3 
REMARK    2  A    between atoms: C_3  and  C_4 
REMARK       I    between atoms: C_4  and  N_6 
REMARK    3  A    between atoms: N_6  and  C_7 
REMARK    4  A    between atoms: C_12  and  N_13 
REMARK       I    between atoms: N_13  and  C_14 
REMARK    5  A    between atoms: C_14  and  C_16 
REMARK    6  A    between atoms: C_16  and  N_17 
REMARK    7  A    between atoms: N_17  and  C_18 
REMARK    8  A    between atoms: C_22  and  O_23 
REMARK    9  A    between atoms: O_23  and  C_24 
REMARK   10  A    between atoms: C_24  and  C_25 
REMARK   11  A    between atoms: C_25  and  C_26 
REMARK   12  A    between atoms: C_26  and  C_27 
ROOT
ATOM      1  C   UNL d   1      25.552 -12.702  -3.284  0.00  0.00     0.223 C 
ENDROOT
BRANCH   1   2
ATOM      2  C   UNL d   1      25.263 -14.156  -2.908  0.00  0.00     0.239 C 
ATOM      3  N   UNL d   1      25.474 -14.610  -1.615  0.00  0.00    -0.324 N 
ATOM      4  H   UNL d   1      25.823 -13.934  -0.941  0.00  0.00     0.169 HD
ATOM      5  O   UNL d   1      24.844 -14.830  -3.851  0.00  0.00    -0.271 OA
BRANCH   3   6
ATOM      6  C   UNL d   1      25.215 -15.955  -1.121  0.00  0.00     0.058 A 
ATOM      7  C   UNL d   1      26.194 -16.936  -0.790  0.00  0.00     0.060 A 
ATOM      8  C   UNL d   1      25.813 -18.201  -0.351  0.00  0.00     0.028 A 
ATOM      9 CL   UNL d   1      27.922 -16.893  -0.776  0.00  0.00    -0.082 Cl
ATOM     10  C   UNL d   1      24.496 -18.538  -0.160  0.00  0.00     0.031 A 
ATOM     11  C   UNL d   1      23.487 -17.618  -0.407  0.00  0.00     0.036 A 
ATOM     12  C   UNL d   1      23.836 -16.344  -0.934  0.00  0.00     0.060 A 
BRANCH  11  13
ATOM     13  N   UNL d   1      22.155 -18.028  -0.104  0.00  0.00    -0.327 N 
ATOM     14  C   UNL d   1      21.439 -18.845  -0.992  0.00  0.00     0.222 C 
ATOM     15  O   UNL d   1      21.925 -19.323  -2.018  0.00  0.00    -0.273 OA
ATOM     16  H   UNL d   1      21.780 -17.849   0.818  0.00  0.00     0.169 HD
BRANCH  14  17
ATOM     17  C   UNL d   1      20.001 -19.174  -0.605  0.00  0.00     0.103 C 
BRANCH  17  18
ATOM     18  C   UNL d   1      19.984 -20.143   0.594  0.00  0.00     0.005 C 
ATOM     19  C   UNL d   1      19.251 -19.587   1.801  0.00  0.00     0.005 C 
ENDBRANCH  17  18
ENDBRANCH  14  17
ENDBRANCH  11  13
ENDBRANCH   3   6
ENDBRANCH   1   2
BRANCH   1  20
ATOM     20  N   UNL d   1      25.548 -12.654  -4.761  0.00  0.00    -0.381 N 
ATOM     21  H   UNL d   1      25.456 -13.581  -5.200  0.00  0.00     0.160 HD
BRANCH  20  22
ATOM     22  C   UNL d   1      26.093 -11.663  -5.531  0.00  0.00     0.030 A 
ATOM     23  C   UNL d   1      25.743 -10.329  -5.308  0.00  0.00     0.029 A 
ATOM     24  C   UNL d   1      26.336  -9.302  -6.047  0.00  0.00     0.005 A 
ATOM     25  C   UNL d   1      27.306  -9.605  -7.001  0.00  0.00     0.037 A 
ATOM     26  C   UNL d   1      27.636 -10.934  -7.253  0.00  0.00     0.070 A 
ATOM     27  C   UNL d   1      27.024 -11.943  -6.515  0.00  0.00     0.065 A 
BRANCH  26  28
ATOM     28  O   UNL d   1      28.552 -11.169  -8.239  0.00  0.00    -0.351 OA
BRANCH  28  29
ATOM     29  C   UNL d   1      28.779 -12.553  -8.519  0.00  0.00     0.176 C 
BRANCH  29  30
ATOM     30  C   UNL d   1      30.058 -12.949  -7.835  0.00  0.00     0.031 C 
BRANCH  30  31
ATOM     31  C   UNL d   1      29.968 -14.348  -7.237  0.00  0.00     0.041 C 
BRANCH  31  32
ATOM     32  C   UNL d   1      29.402 -14.350  -5.839  0.00  0.00    -0.058 A 
ATOM     33  C   UNL d   1      29.782 -13.404  -4.874  0.00  0.00     0.007 A 
ATOM     34  C   UNL d   1      29.355 -13.517  -3.557  0.00  0.00     0.001 A 
ATOM     35  C   UNL d   1      28.459 -14.519  -3.208  0.00  0.00     0.000 A 
ATOM     36  C   UNL d   1      28.024 -15.433  -4.166  0.00  0.00     0.001 A 
ATOM     37  C   UNL d   1      28.498 -15.355  -5.476  0.00  0.00     0.007 A 
ENDBRANCH  31  32
ENDBRANCH  30  31
ENDBRANCH  29  30
ENDBRANCH  28  29
ENDBRANCH  26  28
ENDBRANCH  20  22
ENDBRANCH   1  20
TORSDOF 12
ENDMDL
