MODEL 1
REMARK VINA RESULT:    -8.456      0.000      0.000
REMARK INTER + INTRA:         -10.777
REMARK INTER:                  -9.947
REMARK INTRA:                  -0.830
REMARK CONF_INDEPENDENT:        1.492
REMARK UNBOUND:                -0.830
REMARK  5 active torsions:
REMARK  status: ('A' for Active; 'I' for Inactive)
REMARK    1  A    between atoms: O_1  and  C_2 
REMARK    2  A    between atoms: C_4  and  N_5 
REMARK    3  A    between atoms: N_5  and  C_6 
REMARK    4  A    between atoms: C_13  and  N_14 
REMARK    5  A    between atoms: N_14  and  C_15 
ROOT
ATOM      1  C   UNL d   1      24.019 -18.665  -0.145  0.00  0.00     0.142 C 
ATOM      2  C   UNL d   1      24.363 -18.014  -1.466  0.00  0.00     0.059 C 
ATOM      3  C   UNL d   1      23.715 -16.597  -1.383  0.00  0.00     0.086 C 
ATOM      4  C   UNL d   1      22.657 -16.664  -0.254  0.00  0.00     0.052 C 
ATOM      5  C   UNL d   1      22.609 -18.138   0.190  0.00  0.00     0.112 C 
ENDROOT
BRANCH   3   6
ATOM      6  N   UNL d   1      24.738 -15.597  -1.225  0.00  0.00    -0.385 N 
ATOM      7  H   UNL d   1      24.885 -15.181  -0.316  0.00  0.00     0.160 HD
BRANCH   6   8
ATOM      8  C   UNL d   1      25.314 -15.024  -2.356  0.00  0.00     0.028 C 
ATOM      9  C   UNL d   1      24.694 -14.031  -3.145  0.00  0.00     0.029 C 
ATOM     10  C   UNL d   1      25.157 -13.719  -4.422  0.00  0.00     0.002 C 
ATOM     11  C   UNL d   1      26.329 -14.302  -4.880  0.00  0.00     0.000 C 
ATOM     12  C   UNL d   1      27.015 -15.203  -4.068  0.00  0.00     0.002 C 
ATOM     13  C   UNL d   1      26.504 -15.569  -2.824  0.00  0.00     0.029 C 
ENDBRANCH   6   8
ENDBRANCH   3   6
BRANCH   1  14
ATOM     14  O   UNL d   1      24.989 -18.215   0.811  0.00  0.00    -0.393 OA
ATOM     15  H   UNL d   1      25.851 -18.578   0.528  0.00  0.00     0.210 HD
ENDBRANCH   1  14
BRANCH   5  16
ATOM     16  N   UNL d   1      21.474 -18.936  -0.388  0.00  0.00    -0.383 N 
ATOM     17  H   UNL d   1      21.513 -19.035  -1.398  0.00  0.00     0.160 HD
BRANCH  16  18
ATOM     18  C   UNL d   1      20.400 -19.529   0.248  0.00  0.00     0.028 C 
ATOM     19  C   UNL d   1      19.316 -20.032  -0.433  0.00  0.00     0.029 C 
ATOM     20  C   UNL d   1      18.280 -20.825   0.006  0.00  0.00     0.002 C 
ATOM     21  C   UNL d   1      18.195 -21.014   1.359  0.00  0.00     0.000 C 
ATOM     22  C   UNL d   1      19.164 -20.404   2.160  0.00  0.00     0.002 C 
ATOM     23  C   UNL d   1      20.277 -19.703   1.621  0.00  0.00     0.029 C 
ENDBRANCH  16  18
ENDBRANCH   5  16
TORSDOF 5
ENDMDL
MODEL 2
REMARK VINA RESULT:    -7.695      1.578      2.301
REMARK INTER + INTRA:         -10.011
REMARK INTER:                  -9.186
REMARK INTRA:                  -0.825
REMARK CONF_INDEPENDENT:        1.492
REMARK UNBOUND:                -0.825
REMARK  5 active torsions:
REMARK  status: ('A' for Active; 'I' for Inactive)
REMARK    1  A    between atoms: O_1  and  C_2 
REMARK    2  A    between atoms: C_4  and  N_5 
REMARK    3  A    between atoms: N_5  and  C_6 
REMARK    4  A    between atoms: C_13  and  N_14 
REMARK    5  A    between atoms: N_14  and  C_15 
ROOT
ATOM      1  C   UNL d   1      24.105 -18.489  -0.608  0.00  0.00     0.142 C 
ATOM      2  C   UNL d   1      24.390 -17.754  -1.898  0.00  0.00     0.059 C 
ATOM      3  C   UNL d   1      23.864 -16.306  -1.646  0.00  0.00     0.086 C 
ATOM      4  C   UNL d   1      22.899 -16.395  -0.438  0.00  0.00     0.052 C 
ATOM      5  C   UNL d   1      22.772 -17.894  -0.109  0.00  0.00     0.112 C 
ENDROOT
BRANCH   3   6
ATOM      6  N   UNL d   1      24.972 -15.399  -1.499  0.00  0.00    -0.385 N 
ATOM      7  H   UNL d   1      24.908 -14.473  -1.898  0.00  0.00     0.160 HD
BRANCH   6   8
ATOM      8  C   UNL d   1      26.201 -15.887  -1.061  0.00  0.00     0.028 C 
ATOM      9  C   UNL d   1      26.643 -15.836   0.279  0.00  0.00     0.029 C 
ATOM     10  C   UNL d   1      27.979 -16.041   0.615  0.00  0.00     0.002 C 
ATOM     11  C   UNL d   1      28.873 -16.434  -0.369  0.00  0.00     0.000 C 
ATOM     12  C   UNL d   1      28.430 -16.597  -1.680  0.00  0.00     0.002 C 
ATOM     13  C   UNL d   1      27.109 -16.313  -2.022  0.00  0.00     0.029 C 
ENDBRANCH   6   8
ENDBRANCH   3   6
BRANCH   1  14
ATOM     14  O   UNL d   1      25.181 -18.194   0.293  0.00  0.00    -0.393 OA
ATOM     15  H   UNL d   1      25.966 -18.669  -0.044  0.00  0.00     0.210 HD
ENDBRANCH   1  14
BRANCH   5  16
ATOM     16  N   UNL d   1      21.535 -18.557  -0.648  0.00  0.00    -0.383 N 
ATOM     17  H   UNL d   1      21.438 -18.490  -1.657  0.00  0.00     0.160 HD
BRANCH  16  18
ATOM     18  C   UNL d   1      20.525 -19.217   0.026  0.00  0.00     0.028 C 
ATOM     19  C   UNL d   1      19.395 -19.687  -0.601  0.00  0.00     0.029 C 
ATOM     20  C   UNL d   1      18.409 -20.531  -0.143  0.00  0.00     0.002 C 
ATOM     21  C   UNL d   1      18.439 -20.825   1.194  0.00  0.00     0.000 C 
ATOM     22  C   UNL d   1      19.463 -20.260   1.958  0.00  0.00     0.002 C 
ATOM     23  C   UNL d   1      20.519 -19.497   1.386  0.00  0.00     0.029 C 
ENDBRANCH  16  18
ENDBRANCH   5  16
TORSDOF 5
ENDMDL
MODEL 3
REMARK VINA RESULT:    -7.299      3.421      8.476
REMARK INTER + INTRA:          -9.906
REMARK INTER:                  -8.790
REMARK INTRA:                  -1.115
REMARK CONF_INDEPENDENT:        1.492
REMARK UNBOUND:                -1.115
REMARK  5 active torsions:
REMARK  status: ('A' for Active; 'I' for Inactive)
REMARK    1  A    between atoms: O_1  and  C_2 
REMARK    2  A    between atoms: C_4  and  N_5 
REMARK    3  A    between atoms: N_5  and  C_6 
REMARK    4  A    between atoms: C_13  and  N_14 
REMARK    5  A    between atoms: N_14  and  C_15 
ROOT
ATOM      1  C   UNL d   1      25.530 -14.541  -4.644  0.00  0.00     0.142 C 
ATOM      2  C   UNL d   1      25.903 -15.660  -3.698  0.00  0.00     0.059 C 
ATOM      3  C   UNL d   1      26.471 -14.934  -2.439  0.00  0.00     0.086 C 
ATOM      4  C   UNL d   1      26.834 -13.497  -2.889  0.00  0.00     0.052 C 
ATOM      5  C   UNL d   1      26.609 -13.463  -4.412  0.00  0.00     0.112 C 
ENDROOT
BRANCH   3   6
ATOM      6  N   UNL d   1      25.536 -15.033  -1.349  0.00  0.00    -0.385 N 
ATOM      7  H   UNL d   1      25.510 -14.301  -0.654  0.00  0.00     0.160 HD
BRANCH   6   8
ATOM      8  C   UNL d   1      24.886 -16.243  -1.116  0.00  0.00     0.028 C 
ATOM      9  C   UNL d   1      23.488 -16.423  -1.208  0.00  0.00     0.029 C 
ATOM     10  C   UNL d   1      22.860 -17.542  -0.667  0.00  0.00     0.002 C 
ATOM     11  C   UNL d   1      23.633 -18.568  -0.144  0.00  0.00     0.000 C 
ATOM     12  C   UNL d   1      25.022 -18.455  -0.145  0.00  0.00     0.002 C 
ATOM     13  C   UNL d   1      25.639 -17.297  -0.615  0.00  0.00     0.029 C 
ENDBRANCH   6   8
ENDBRANCH   3   6
BRANCH   1  14
ATOM     14  O   UNL d   1      24.231 -14.075  -4.255  0.00  0.00    -0.393 OA
ATOM     15  H   UNL d   1      23.868 -13.587  -5.020  0.00  0.00     0.210 HD
ENDBRANCH   1  14
BRANCH   5  16
ATOM     16  N   UNL d   1      27.855 -13.617  -5.239  0.00  0.00    -0.383 N 
ATOM     17  H   UNL d   1      28.081 -12.800  -5.799  0.00  0.00     0.160 HD
BRANCH  16  18
ATOM     18  C   UNL d   1      28.709 -14.697  -5.352  0.00  0.00     0.028 C 
ATOM     19  C   UNL d   1      29.086 -15.465  -4.275  0.00  0.00     0.029 C 
ATOM     20  C   UNL d   1      29.743 -16.674  -4.231  0.00  0.00     0.002 C 
ATOM     21  C   UNL d   1      30.266 -17.120  -5.414  0.00  0.00     0.000 C 
ATOM     22  C   UNL d   1      30.078 -16.325  -6.547  0.00  0.00     0.002 C 
ATOM     23  C   UNL d   1      29.279 -15.148  -6.536  0.00  0.00     0.029 C 
ENDBRANCH  16  18
ENDBRANCH   5  16
TORSDOF 5
ENDMDL
MODEL 4
REMARK VINA RESULT:    -7.285      4.798      6.455
REMARK INTER + INTRA:          -9.774
REMARK INTER:                  -8.776
REMARK INTRA:                  -0.998
REMARK CONF_INDEPENDENT:        1.492
REMARK UNBOUND:                -0.998
REMARK  5 active torsions:
REMARK  status: ('A' for Active; 'I' for Inactive)
REMARK    1  A    between atoms: O_1  and  C_2 
REMARK    2  A    between atoms: C_4  and  N_5 
REMARK    3  A    between atoms: N_5  and  C_6 
REMARK    4  A    between atoms: C_13  and  N_14 
REMARK    5  A    between atoms: N_14  and  C_15 
ROOT
ATOM      1  C   UNL d   1      28.723 -16.380  -0.896  0.00  0.00     0.142 C 
ATOM      2  C   UNL d   1      28.524 -14.966  -0.398  0.00  0.00     0.059 C 
ATOM      3  C   UNL d   1      27.800 -15.135   0.974  0.00  0.00     0.086 C 
ATOM      4  C   UNL d   1      27.204 -16.565   0.982  0.00  0.00     0.052 C 
ATOM      5  C   UNL d   1      27.465 -17.137  -0.424  0.00  0.00     0.112 C 
ENDROOT
BRANCH   3   6
ATOM      6  N   UNL d   1      28.705 -14.826   2.050  0.00  0.00    -0.385 N 
ATOM      7  H   UNL d   1      29.604 -15.287   2.086  0.00  0.00     0.160 HD
BRANCH   6   8
ATOM      8  C   UNL d   1      28.236 -14.123   3.157  0.00  0.00     0.028 C 
ATOM      9  C   UNL d   1      27.939 -12.743   3.152  0.00  0.00     0.029 C 
ATOM     10  C   UNL d   1      27.780 -12.027   4.337  0.00  0.00     0.002 C 
ATOM     11  C   UNL d   1      27.781 -12.706   5.546  0.00  0.00     0.000 C 
ATOM     12  C   UNL d   1      27.963 -14.088   5.561  0.00  0.00     0.002 C 
ATOM     13  C   UNL d   1      28.200 -14.785   4.378  0.00  0.00     0.029 C 
ENDBRANCH   6   8
ENDBRANCH   3   6
BRANCH   1  14
ATOM     14  O   UNL d   1      29.908 -16.886  -0.268  0.00  0.00    -0.393 OA
ATOM     15  H   UNL d   1      29.641 -17.680   0.235  0.00  0.00     0.210 HD
ENDBRANCH   1  14
BRANCH   5  16
ATOM     16  N   UNL d   1      26.291 -17.075  -1.360  0.00  0.00    -0.383 N 
ATOM     17  H   UNL d   1      26.539 -16.836  -2.316  0.00  0.00     0.160 HD
BRANCH  16  18
ATOM     18  C   UNL d   1      24.949 -17.278  -1.104  0.00  0.00     0.028 C 
ATOM     19  C   UNL d   1      24.451 -18.474  -0.644  0.00  0.00     0.029 C 
ATOM     20  C   UNL d   1      23.206 -18.788  -0.147  0.00  0.00     0.002 C 
ATOM     21  C   UNL d   1      22.243 -17.824  -0.278  0.00  0.00     0.000 C 
ATOM     22  C   UNL d   1      22.610 -16.621  -0.887  0.00  0.00     0.002 C 
ATOM     23  C   UNL d   1      23.949 -16.326  -1.263  0.00  0.00     0.029 C 
ENDBRANCH  16  18
ENDBRANCH   5  16
TORSDOF 5
ENDMDL
MODEL 5
REMARK VINA RESULT:    -7.241      0.993      7.954
REMARK INTER + INTRA:          -9.579
REMARK INTER:                  -8.733
REMARK INTRA:                  -0.847
REMARK CONF_INDEPENDENT:        1.492
REMARK UNBOUND:                -0.847
REMARK  5 active torsions:
REMARK  status: ('A' for Active; 'I' for Inactive)
REMARK    1  A    between atoms: O_1  and  C_2 
REMARK    2  A    between atoms: C_4  and  N_5 
REMARK    3  A    between atoms: N_5  and  C_6 
REMARK    4  A    between atoms: C_13  and  N_14 
REMARK    5  A    between atoms: N_14  and  C_15 
ROOT
ATOM      1  C   UNL d   1      24.786 -16.918  -0.185  0.00  0.00     0.142 C 
ATOM      2  C   UNL d   1      23.334 -16.987   0.230  0.00  0.00     0.059 C 
ATOM      3  C   UNL d   1      22.687 -17.987  -0.779  0.00  0.00     0.086 C 
ATOM      4  C   UNL d   1      23.654 -18.078  -1.985  0.00  0.00     0.052 C 
ATOM      5  C   UNL d   1      24.755 -17.033  -1.722  0.00  0.00     0.112 C 
ENDROOT
BRANCH   3   6
ATOM      6  N   UNL d   1      22.390 -19.231  -0.118  0.00  0.00    -0.385 N 
ATOM      7  H   UNL d   1      23.151 -19.823   0.184  0.00  0.00     0.160 HD
BRANCH   6   8
ATOM      8  C   UNL d   1      21.089 -19.727  -0.150  0.00  0.00     0.028 C 
ATOM      9  C   UNL d   1      20.136 -19.392  -1.137  0.00  0.00     0.029 C 
ATOM     10  C   UNL d   1      18.779 -19.653  -0.959  0.00  0.00     0.002 C 
ATOM     11  C   UNL d   1      18.367 -20.375   0.151  0.00  0.00     0.000 C 
ATOM     12  C   UNL d   1      19.309 -20.809   1.081  0.00  0.00     0.002 C 
ATOM     13  C   UNL d   1      20.655 -20.476   0.936  0.00  0.00     0.029 C 
ENDBRANCH   6   8
ENDBRANCH   3   6
BRANCH   1  14
ATOM     14  O   UNL d   1      25.450 -18.039   0.413  0.00  0.00    -0.393 OA
ATOM     15  H   UNL d   1      26.406 -17.839   0.398  0.00  0.00     0.210 HD
ENDBRANCH   1  14
BRANCH   5  16
ATOM     16  N   UNL d   1      24.583 -15.734  -2.458  0.00  0.00    -0.383 N 
ATOM     17  H   UNL d   1      23.706 -15.260  -2.258  0.00  0.00     0.160 HD
BRANCH  16  18
ATOM     18  C   UNL d   1      25.425 -15.114  -3.360  0.00  0.00     0.028 C 
ATOM     19  C   UNL d   1      25.101 -13.938  -3.995  0.00  0.00     0.029 C 
ATOM     20  C   UNL d   1      25.882 -13.087  -4.745  0.00  0.00     0.002 C 
ATOM     21  C   UNL d   1      27.131 -13.543  -5.071  0.00  0.00     0.000 C 
ATOM     22  C   UNL d   1      27.499 -14.808  -4.607  0.00  0.00     0.002 C 
ATOM     23  C   UNL d   1      26.682 -15.575  -3.731  0.00  0.00     0.029 C 
ENDBRANCH  16  18
ENDBRANCH   5  16
TORSDOF 5
ENDMDL
MODEL 6
REMARK VINA RESULT:    -7.184      3.024      5.281
REMARK INTER + INTRA:          -9.576
REMARK INTER:                  -8.676
REMARK INTRA:                  -0.901
REMARK CONF_INDEPENDENT:        1.492
REMARK UNBOUND:                -0.901
REMARK  5 active torsions:
REMARK  status: ('A' for Active; 'I' for Inactive)
REMARK    1  A    between atoms: O_1  and  C_2 
REMARK    2  A    between atoms: C_4  and  N_5 
REMARK    3  A    between atoms: N_5  and  C_6 
REMARK    4  A    between atoms: C_13  and  N_14 
REMARK    5  A    between atoms: N_14  and  C_15 
ROOT
ATOM      1  C   UNL d   1      24.781 -14.367  -3.252  0.00  0.00     0.142 C 
ATOM      2  C   UNL d   1      25.490 -13.139  -2.728  0.00  0.00     0.059 C 
ATOM      3  C   UNL d   1      26.988 -13.364  -3.103  0.00  0.00     0.086 C 
ATOM      4  C   UNL d   1      27.145 -14.878  -3.391  0.00  0.00     0.052 C 
ATOM      5  C   UNL d   1      25.787 -15.516  -3.039  0.00  0.00     0.112 C 
ENDROOT
BRANCH   3   6
ATOM      6  N   UNL d   1      27.366 -12.480  -4.174  0.00  0.00    -0.385 N 
ATOM      7  H   UNL d   1      28.309 -12.516  -4.535  0.00  0.00     0.160 HD
BRANCH   6   8
ATOM      8  C   UNL d   1      26.531 -11.415  -4.507  0.00  0.00     0.028 C 
ATOM      9  C   UNL d   1      25.910 -11.258  -5.764  0.00  0.00     0.029 C 
ATOM     10  C   UNL d   1      25.351 -10.042  -6.155  0.00  0.00     0.002 C 
ATOM     11  C   UNL d   1      25.286  -9.001  -5.241  0.00  0.00     0.000 C 
ATOM     12  C   UNL d   1      25.797  -9.176  -3.957  0.00  0.00     0.002 C 
ATOM     13  C   UNL d   1      26.424 -10.368  -3.599  0.00  0.00     0.029 C 
ENDBRANCH   6   8
ENDBRANCH   3   6
BRANCH   1  14
ATOM     14  O   UNL d   1      24.524 -14.144  -4.645  0.00  0.00    -0.393 OA
ATOM     15  H   UNL d   1      23.679 -13.657  -4.700  0.00  0.00     0.210 HD
ENDBRANCH   1  14
BRANCH   5  16
ATOM     16  N   UNL d   1      25.729 -16.177  -1.691  0.00  0.00    -0.383 N 
ATOM     17  H   UNL d   1      26.585 -16.087  -1.151  0.00  0.00     0.160 HD
BRANCH  16  18
ATOM     18  C   UNL d   1      24.701 -16.886  -1.101  0.00  0.00     0.028 C 
ATOM     19  C   UNL d   1      23.452 -16.351  -0.892  0.00  0.00     0.029 C 
ATOM     20  C   UNL d   1      22.274 -16.960  -0.520  0.00  0.00     0.002 C 
ATOM     21  C   UNL d   1      22.368 -18.267  -0.124  0.00  0.00     0.000 C 
ATOM     22  C   UNL d   1      23.633 -18.859  -0.144  0.00  0.00     0.002 C 
ATOM     23  C   UNL d   1      24.784 -18.201  -0.660  0.00  0.00     0.029 C 
ENDBRANCH  16  18
ENDBRANCH   5  16
TORSDOF 5
ENDMDL
MODEL 7
REMARK VINA RESULT:    -7.098      3.909      6.169
REMARK INTER + INTRA:          -9.450
REMARK INTER:                  -8.589
REMARK INTRA:                  -0.861
REMARK CONF_INDEPENDENT:        1.492
REMARK UNBOUND:                -0.861
REMARK  5 active torsions:
REMARK  status: ('A' for Active; 'I' for Inactive)
REMARK    1  A    between atoms: O_1  and  C_2 
REMARK    2  A    between atoms: C_4  and  N_5 
REMARK    3  A    between atoms: N_5  and  C_6 
REMARK    4  A    between atoms: C_13  and  N_14 
REMARK    5  A    between atoms: N_14  and  C_15 
ROOT
ATOM      1  C   UNL d   1      24.581 -14.072  -3.324  0.00  0.00     0.142 C 
ATOM      2  C   UNL d   1      25.438 -12.833  -3.199  0.00  0.00     0.059 C 
ATOM      3  C   UNL d   1      26.427 -12.919  -4.403  0.00  0.00     0.086 C 
ATOM      4  C   UNL d   1      26.414 -14.394  -4.875  0.00  0.00     0.052 C 
ATOM      5  C   UNL d   1      25.541 -15.154  -3.859  0.00  0.00     0.112 C 
ENDROOT
BRANCH   3   6
ATOM      6  N   UNL d   1      26.079 -11.938  -5.397  0.00  0.00    -0.385 N 
ATOM      7  H   UNL d   1      25.154 -11.532  -5.387  0.00  0.00     0.160 HD
BRANCH   6   8
ATOM      8  C   UNL d   1      26.905 -11.767  -6.505  0.00  0.00     0.028 C 
ATOM      9  C   UNL d   1      26.530 -11.068  -7.674  0.00  0.00     0.029 C 
ATOM     10  C   UNL d   1      27.251 -11.190  -8.859  0.00  0.00     0.002 C 
ATOM     11  C   UNL d   1      28.439 -11.906  -8.861  0.00  0.00     0.000 C 
ATOM     12  C   UNL d   1      28.881 -12.512  -7.686  0.00  0.00     0.002 C 
ATOM     13  C   UNL d   1      28.113 -12.452  -6.524  0.00  0.00     0.029 C 
ENDBRANCH   6   8
ENDBRANCH   3   6
BRANCH   1  14
ATOM     14  O   UNL d   1      23.545 -13.775  -4.270  0.00  0.00    -0.393 OA
ATOM     15  H   UNL d   1      23.971 -13.308  -5.015  0.00  0.00     0.210 HD
ENDBRANCH   1  14
BRANCH   5  16
ATOM     16  N   UNL d   1      26.307 -15.906  -2.807  0.00  0.00    -0.383 N 
ATOM     17  H   UNL d   1      27.314 -15.800  -2.875  0.00  0.00     0.160 HD
BRANCH  16  18
ATOM     18  C   UNL d   1      25.841 -16.718  -1.789  0.00  0.00     0.028 C 
ATOM     19  C   UNL d   1      26.650 -17.187  -0.782  0.00  0.00     0.029 C 
ATOM     20  C   UNL d   1      26.326 -17.816   0.399  0.00  0.00     0.002 C 
ATOM     21  C   UNL d   1      25.021 -18.201   0.540  0.00  0.00     0.000 C 
ATOM     22  C   UNL d   1      24.144 -17.913  -0.509  0.00  0.00     0.002 C 
ATOM     23  C   UNL d   1      24.528 -17.148  -1.645  0.00  0.00     0.029 C 
ENDBRANCH  16  18
ENDBRANCH   5  16
TORSDOF 5
ENDMDL
MODEL 8
REMARK VINA RESULT:    -7.042      2.833      4.994
REMARK INTER + INTRA:          -9.272
REMARK INTER:                  -8.534
REMARK INTRA:                  -0.738
REMARK CONF_INDEPENDENT:        1.492
REMARK UNBOUND:                -0.738
REMARK  5 active torsions:
REMARK  status: ('A' for Active; 'I' for Inactive)
REMARK    1  A    between atoms: O_1  and  C_2 
REMARK    2  A    between atoms: C_4  and  N_5 
REMARK    3  A    between atoms: N_5  and  C_6 
REMARK    4  A    between atoms: C_13  and  N_14 
REMARK    5  A    between atoms: N_14  and  C_15 
ROOT
ATOM      1  C   UNL d   1      24.786 -14.179  -3.260  0.00  0.00     0.142 C 
ATOM      2  C   UNL d   1      25.897 -13.245  -2.841  0.00  0.00     0.059 C 
ATOM      3  C   UNL d   1      27.205 -14.063  -3.075  0.00  0.00     0.086 C 
ATOM      4  C   UNL d   1      26.781 -15.550  -3.163  0.00  0.00     0.052 C 
ATOM      5  C   UNL d   1      25.276 -15.579  -2.836  0.00  0.00     0.112 C 
ENDROOT
BRANCH   3   6
ATOM      6  N   UNL d   1      27.912 -13.544  -4.216  0.00  0.00    -0.385 N 
ATOM      7  H   UNL d   1      27.711 -12.608  -4.537  0.00  0.00     0.160 HD
BRANCH   6   8
ATOM      8  C   UNL d   1      28.648 -14.415  -5.018  0.00  0.00     0.028 C 
ATOM      9  C   UNL d   1      29.411 -15.495  -4.523  0.00  0.00     0.029 C 
ATOM     10  C   UNL d   1      30.366 -16.134  -5.310  0.00  0.00     0.002 C 
ATOM     11  C   UNL d   1      30.481 -15.791  -6.650  0.00  0.00     0.000 C 
ATOM     12  C   UNL d   1      29.658 -14.801  -7.182  0.00  0.00     0.002 C 
ATOM     13  C   UNL d   1      28.759 -14.112  -6.369  0.00  0.00     0.029 C 
ENDBRANCH   6   8
ENDBRANCH   3   6
BRANCH   1  14
ATOM     14  O   UNL d   1      24.662 -14.075  -4.685  0.00  0.00    -0.393 OA
ATOM     15  H   UNL d   1      24.027 -13.354  -4.860  0.00  0.00     0.210 HD
ENDBRANCH   1  14
BRANCH   5  16
ATOM     16  N   UNL d   1      24.943 -15.972  -1.424  0.00  0.00    -0.383 N 
ATOM     17  H   UNL d   1      25.409 -15.409  -0.719  0.00  0.00     0.160 HD
BRANCH  16  18
ATOM     18  C   UNL d   1      24.120 -16.981  -0.962  0.00  0.00     0.028 C 
ATOM     19  C   UNL d   1      22.752 -16.856  -0.900  0.00  0.00     0.029 C 
ATOM     20  C   UNL d   1      21.781 -17.805  -0.671  0.00  0.00     0.002 C 
ATOM     21  C   UNL d   1      22.223 -19.037  -0.271  0.00  0.00     0.000 C 
ATOM     22  C   UNL d   1      23.603 -19.220  -0.144  0.00  0.00     0.002 C 
ATOM     23  C   UNL d   1      24.548 -18.226  -0.519  0.00  0.00     0.029 C 
ENDBRANCH  16  18
ENDBRANCH   5  16
TORSDOF 5
ENDMDL
MODEL 9
REMARK VINA RESULT:    -7.001      4.751      7.912
REMARK INTER + INTRA:          -9.440
REMARK INTER:                  -8.492
REMARK INTRA:                  -0.948
REMARK CONF_INDEPENDENT:        1.492
REMARK UNBOUND:                -0.948
REMARK  5 active torsions:
REMARK  status: ('A' for Active; 'I' for Inactive)
REMARK    1  A    between atoms: O_1  and  C_2 
REMARK    2  A    between atoms: C_4  and  N_5 
REMARK    3  A    between atoms: N_5  and  C_6 
REMARK    4  A    between atoms: C_13  and  N_14 
REMARK    5  A    between atoms: N_14  and  C_15 
ROOT
ATOM      1  C   UNL d   1      28.876 -15.930  -0.443  0.00  0.00     0.142 C 
ATOM      2  C   UNL d   1      28.137 -17.218  -0.160  0.00  0.00     0.059 C 
ATOM      3  C   UNL d   1      26.673 -16.769   0.142  0.00  0.00     0.086 C 
ATOM      4  C   UNL d   1      26.739 -15.259   0.479  0.00  0.00     0.052 C 
ATOM      5  C   UNL d   1      28.237 -14.899   0.509  0.00  0.00     0.112 C 
ENDROOT
BRANCH   3   6
ATOM      6  N   UNL d   1      25.811 -17.130  -0.953  0.00  0.00    -0.385 N 
ATOM      7  H   UNL d   1      26.101 -16.920  -1.898  0.00  0.00     0.160 HD
BRANCH   6   8
ATOM      8  C   UNL d   1      24.495 -17.503  -0.692  0.00  0.00     0.028 C 
ATOM      9  C   UNL d   1      24.077 -18.832  -0.463  0.00  0.00     0.029 C 
ATOM     10  C   UNL d   1      22.733 -19.194  -0.520  0.00  0.00     0.002 C 
ATOM     11  C   UNL d   1      21.771 -18.208  -0.675  0.00  0.00     0.000 C 
ATOM     12  C   UNL d   1      22.160 -16.876  -0.793  0.00  0.00     0.002 C 
ATOM     13  C   UNL d   1      23.510 -16.530  -0.814  0.00  0.00     0.029 C 
ENDBRANCH   6   8
ENDBRANCH   3   6
BRANCH   1  14
ATOM     14  O   UNL d   1      28.635 -15.597  -1.817  0.00  0.00    -0.393 OA
ATOM     15  H   UNL d   1      29.507 -15.575  -2.257  0.00  0.00     0.210 HD
ENDBRANCH   1  14
BRANCH   5  16
ATOM     16  N   UNL d   1      28.844 -14.834   1.883  0.00  0.00    -0.383 N 
ATOM     17  H   UNL d   1      29.690 -15.387   1.986  0.00  0.00     0.160 HD
BRANCH  16  18
ATOM     18  C   UNL d   1      28.413 -14.153   3.005  0.00  0.00     0.028 C 
ATOM     19  C   UNL d   1      28.155 -14.777   4.202  0.00  0.00     0.029 C 
ATOM     20  C   UNL d   1      27.927 -14.246   5.452  0.00  0.00     0.002 C 
ATOM     21  C   UNL d   1      27.754 -12.890   5.509  0.00  0.00     0.000 C 
ATOM     22  C   UNL d   1      27.836 -12.175   4.311  0.00  0.00     0.002 C 
ATOM     23  C   UNL d   1      28.198 -12.782   3.077  0.00  0.00     0.029 C 
ENDBRANCH  16  18
ENDBRANCH   5  16
TORSDOF 5
ENDMDL
