MODEL 1
REMARK VINA RESULT:    -8.020      0.000      0.000
REMARK INTER + INTRA:         -13.422
REMARK INTER:                 -10.704
REMARK INTRA:                  -2.718
REMARK CONF_INDEPENDENT:        2.685
REMARK UNBOUND:                -2.718
REMARK  9 active torsions:
REMARK  status: ('A' for Active; 'I' for Inactive)
REMARK    1  A    between atoms: C_2  and  O_3 
REMARK    2  A    between atoms: O_3  and  C_4 
REMARK    3  A    between atoms: C_10  and  C_11 
REMARK       I    between atoms: C_11  and  N_13 
REMARK    4  A    between atoms: N_13  and  C_14 
REMARK    5  A    between atoms: C_14  and  N_16 
REMARK    6  A    between atoms: N_16  and  N_17 
REMARK       I    between atoms: N_17  and  C_18 
REMARK    7  A    between atoms: C_18  and  C_20 
REMARK    8  A    between atoms: C_20  and  O_21 
REMARK    9  A    between atoms: O_21  and  C_22 
ROOT
ATOM      1  C   UNL d   1      27.202 -13.263  -2.875  0.00  0.00     0.193 C 
ATOM      2  S   UNL d   1      28.171 -11.988  -2.338  0.00  0.00    -0.039 SA
ENDROOT
BRANCH   1   3
ATOM      3  N   UNL d   1      26.746 -14.333  -2.065  0.00  0.00    -0.298 N 
ATOM      4  C   UNL d   1      25.701 -15.247  -2.361  0.00  0.00     0.260 C 
ATOM      5  O   UNL d   1      25.049 -15.213  -3.408  0.00  0.00    -0.267 OA
ATOM      6  H   UNL d   1      27.181 -14.466  -1.159  0.00  0.00     0.171 HD
BRANCH   4   7
ATOM      7  C   UNL d   1      25.314 -16.358  -1.415  0.00  0.00     0.067 A 
ATOM      8  C   UNL d   1      23.996 -16.878  -1.536  0.00  0.00     0.039 A 
ATOM      9  C   UNL d   1      23.542 -17.918  -0.721  0.00  0.00     0.012 A 
ATOM     10  C   UNL d   1      24.386 -18.468   0.230  0.00  0.00     0.022 A 
ATOM     11 BR   UNL d   1      21.776 -18.575  -0.895  0.00  0.00    -0.051 Br
ATOM     12  C   UNL d   1      25.686 -17.968   0.367  0.00  0.00     0.039 A 
ATOM     13  C   UNL d   1      26.157 -16.923  -0.453  0.00  0.00     0.084 A 
BRANCH  13  14
ATOM     14  O   UNL d   1      27.394 -16.364  -0.277  0.00  0.00    -0.350 OA
BRANCH  14  15
ATOM     15  C   UNL d   1      28.489 -17.189  -0.682  0.00  0.00     0.171 C 
ATOM     16  C   UNL d   1      29.156 -16.482  -1.848  0.00  0.00     0.034 C 
ENDBRANCH  14  15
ENDBRANCH  13  14
ENDBRANCH   4   7
ENDBRANCH   1   3
BRANCH   1  17
ATOM     17  N   UNL d   1      26.794 -13.292  -4.223  0.00  0.00    -0.273 N 
ATOM     18  H   UNL d   1      25.831 -13.288  -4.558  0.00  0.00     0.189 HD
BRANCH  17  19
ATOM     19  N   UNL d   1      27.811 -13.357  -5.276  0.00  0.00    -0.266 N 
ATOM     20  C   UNL d   1      28.044 -14.526  -5.997  0.00  0.00     0.260 C 
ATOM     21  O   UNL d   1      27.392 -15.546  -5.769  0.00  0.00    -0.269 OA
ATOM     22  H   UNL d   1      28.322 -12.488  -5.432  0.00  0.00     0.190 HD
BRANCH  20  23
ATOM     23  C   UNL d   1      29.170 -14.451  -7.090  0.00  0.00     0.280 C 
BRANCH  23  24
ATOM     24  O   UNL d   1      30.406 -14.994  -6.592  0.00  0.00    -0.342 OA
BRANCH  24  25
ATOM     25  C   UNL d   1      30.464 -16.340  -6.333  0.00  0.00     0.070 A 
ATOM     26  C   UNL d   1      30.306 -16.718  -4.996  0.00  0.00     0.038 A 
ATOM     27  C   UNL d   1      30.392 -18.063  -4.617  0.00  0.00     0.027 A 
ATOM     28  C   UNL d   1      30.666 -19.048  -5.569  0.00  0.00     0.040 A 
ATOM     29 CL   UNL d   1      30.726 -20.686  -5.019  0.00  0.00    -0.084 Cl
ATOM     30  C   UNL d   1      30.880 -18.690  -6.910  0.00  0.00    -0.038 A 
ATOM     31  C   UNL d   1      31.219 -19.700  -7.975  0.00  0.00     0.050 C 
ATOM     32  C   UNL d   1      30.780 -17.323  -7.276  0.00  0.00     0.045 A 
ENDBRANCH  24  25
ENDBRANCH  23  24
ENDBRANCH  20  23
ENDBRANCH  17  19
ENDBRANCH   1  17
TORSDOF 9
ENDMDL
MODEL 2
REMARK VINA RESULT:    -7.744      5.101      7.971
REMARK INTER + INTRA:         -12.996
REMARK INTER:                 -10.429
REMARK INTRA:                  -2.567
REMARK CONF_INDEPENDENT:        2.685
REMARK UNBOUND:                -2.567
REMARK  9 active torsions:
REMARK  status: ('A' for Active; 'I' for Inactive)
REMARK    1  A    between atoms: C_2  and  O_3 
REMARK    2  A    between atoms: O_3  and  C_4 
REMARK    3  A    between atoms: C_10  and  C_11 
REMARK       I    between atoms: C_11  and  N_13 
REMARK    4  A    between atoms: N_13  and  C_14 
REMARK    5  A    between atoms: C_14  and  N_16 
REMARK    6  A    between atoms: N_16  and  N_17 
REMARK       I    between atoms: N_17  and  C_18 
REMARK    7  A    between atoms: C_18  and  C_20 
REMARK    8  A    between atoms: C_20  and  O_21 
REMARK    9  A    between atoms: O_21  and  C_22 
ROOT
ATOM      1  C   UNL d   1      26.643 -12.895  -2.300  0.00  0.00     0.193 C 
ATOM      2  S   UNL d   1      26.020 -12.402  -3.791  0.00  0.00    -0.039 SA
ENDROOT
BRANCH   1   3
ATOM      3  N   UNL d   1      26.251 -14.066  -1.604  0.00  0.00    -0.298 N 
ATOM      4  C   UNL d   1      25.332 -15.055  -2.039  0.00  0.00     0.260 C 
ATOM      5  O   UNL d   1      24.749 -15.006  -3.126  0.00  0.00    -0.267 OA
ATOM      6  H   UNL d   1      26.639 -14.224  -0.680  0.00  0.00     0.171 HD
BRANCH   4   7
ATOM      7  C   UNL d   1      25.004 -16.270  -1.205  0.00  0.00     0.067 A 
ATOM      8  C   UNL d   1      23.713 -16.839  -1.373  0.00  0.00     0.039 A 
ATOM      9  C   UNL d   1      23.315 -17.974  -0.662  0.00  0.00     0.012 A 
ATOM     10  C   UNL d   1      24.191 -18.573   0.229  0.00  0.00     0.022 A 
ATOM     11 BR   UNL d   1      21.581 -18.696  -0.895  0.00  0.00    -0.051 Br
ATOM     12  C   UNL d   1      25.466 -18.026   0.412  0.00  0.00     0.039 A 
ATOM     13  C   UNL d   1      25.881 -16.884  -0.304  0.00  0.00     0.084 A 
BRANCH  13  14
ATOM     14  O   UNL d   1      27.091 -16.286  -0.078  0.00  0.00    -0.350 OA
BRANCH  14  15
ATOM     15  C   UNL d   1      28.216 -16.981  -0.622  0.00  0.00     0.171 C 
ATOM     16  C   UNL d   1      29.010 -15.962  -1.417  0.00  0.00     0.034 C 
ENDBRANCH  14  15
ENDBRANCH  13  14
ENDBRANCH   4   7
ENDBRANCH   1   3
BRANCH   1  17
ATOM     17  N   UNL d   1      27.633 -12.109  -1.679  0.00  0.00    -0.273 N 
ATOM     18  H   UNL d   1      27.995 -11.219  -2.020  0.00  0.00     0.189 HD
BRANCH  17  19
ATOM     19  N   UNL d   1      28.247 -12.586  -0.435  0.00  0.00    -0.266 N 
ATOM     20  C   UNL d   1      27.494 -12.798   0.718  0.00  0.00     0.260 C 
ATOM     21  O   UNL d   1      26.280 -12.592   0.723  0.00  0.00    -0.269 OA
ATOM     22  H   UNL d   1      29.253 -12.746  -0.489  0.00  0.00     0.190 HD
BRANCH  20  23
ATOM     23  C   UNL d   1      28.287 -13.301   1.977  0.00  0.00     0.280 C 
BRANCH  23  24
ATOM     24  O   UNL d   1      27.401 -13.517   3.089  0.00  0.00    -0.342 OA
BRANCH  24  25
ATOM     25  C   UNL d   1      27.933 -13.497   4.355  0.00  0.00     0.070 A 
ATOM     26  C   UNL d   1      28.337 -14.730   4.874  0.00  0.00     0.038 A 
ATOM     27  C   UNL d   1      28.852 -14.826   6.172  0.00  0.00     0.027 A 
ATOM     28  C   UNL d   1      28.943 -13.691   6.980  0.00  0.00     0.040 A 
ATOM     29 CL   UNL d   1      29.618 -13.894   8.559  0.00  0.00    -0.084 Cl
ATOM     30  C   UNL d   1      28.497 -12.448   6.501  0.00  0.00    -0.038 A 
ATOM     31  C   UNL d   1      28.531 -11.196   7.339  0.00  0.00     0.050 C 
ATOM     32  C   UNL d   1      27.986 -12.369   5.180  0.00  0.00     0.045 A 
ENDBRANCH  24  25
ENDBRANCH  23  24
ENDBRANCH  20  23
ENDBRANCH  17  19
ENDBRANCH   1  17
TORSDOF 9
ENDMDL
MODEL 3
REMARK VINA RESULT:    -7.591      5.649      7.742
REMARK INTER + INTRA:         -13.094
REMARK INTER:                 -10.276
REMARK INTRA:                  -2.818
REMARK CONF_INDEPENDENT:        2.685
REMARK UNBOUND:                -2.818
REMARK  9 active torsions:
REMARK  status: ('A' for Active; 'I' for Inactive)
REMARK    1  A    between atoms: C_2  and  O_3 
REMARK    2  A    between atoms: O_3  and  C_4 
REMARK    3  A    between atoms: C_10  and  C_11 
REMARK       I    between atoms: C_11  and  N_13 
REMARK    4  A    between atoms: N_13  and  C_14 
REMARK    5  A    between atoms: C_14  and  N_16 
REMARK    6  A    between atoms: N_16  and  N_17 
REMARK       I    between atoms: N_17  and  C_18 
REMARK    7  A    between atoms: C_18  and  C_20 
REMARK    8  A    between atoms: C_20  and  O_21 
REMARK    9  A    between atoms: O_21  and  C_22 
ROOT
ATOM      1  C   UNL d   1      26.465 -13.840  -4.723  0.00  0.00     0.193 C 
ATOM      2  S   UNL d   1      27.832 -13.621  -5.691  0.00  0.00    -0.039 SA
ENDROOT
BRANCH   1   3
ATOM      3  N   UNL d   1      26.348 -14.800  -3.687  0.00  0.00    -0.298 N 
ATOM      4  C   UNL d   1      25.187 -15.106  -2.930  0.00  0.00     0.260 C 
ATOM      5  O   UNL d   1      24.100 -14.548  -3.101  0.00  0.00    -0.267 OA
ATOM      6  H   UNL d   1      27.176 -15.321  -3.423  0.00  0.00     0.171 HD
BRANCH   4   7
ATOM      7  C   UNL d   1      25.187 -16.164  -1.853  0.00  0.00     0.067 A 
ATOM      8  C   UNL d   1      23.942 -16.783  -1.556  0.00  0.00     0.039 A 
ATOM      9  C   UNL d   1      23.835 -17.785  -0.589  0.00  0.00     0.012 A 
ATOM     10  C   UNL d   1      24.962 -18.200   0.103  0.00  0.00     0.022 A 
ATOM     11 BR   UNL d   1      22.159 -18.575  -0.205  0.00  0.00    -0.051 Br
ATOM     12  C   UNL d   1      26.196 -17.601  -0.172  0.00  0.00     0.039 A 
ATOM     13  C   UNL d   1      26.318 -16.592  -1.150  0.00  0.00     0.084 A 
BRANCH  13  14
ATOM     14  O   UNL d   1      27.498 -15.937  -1.373  0.00  0.00    -0.350 OA
BRANCH  14  15
ATOM     15  C   UNL d   1      28.041 -15.270  -0.230  0.00  0.00     0.171 C 
ATOM     16  C   UNL d   1      26.983 -14.290   0.242  0.00  0.00     0.034 C 
ENDBRANCH  14  15
ENDBRANCH  13  14
ENDBRANCH   4   7
ENDBRANCH   1   3
BRANCH   1  17
ATOM     17  N   UNL d   1      25.341 -13.016  -4.932  0.00  0.00    -0.273 N 
ATOM     18  H   UNL d   1      24.375 -13.330  -5.021  0.00  0.00     0.189 HD
BRANCH  17  19
ATOM     19  N   UNL d   1      25.530 -11.568  -5.063  0.00  0.00    -0.266 N 
ATOM     20  C   UNL d   1      26.027 -10.798  -4.014  0.00  0.00     0.260 C 
ATOM     21  O   UNL d   1      26.328 -11.318  -2.939  0.00  0.00    -0.269 OA
ATOM     22  H   UNL d   1      25.272 -11.184  -5.972  0.00  0.00     0.190 HD
BRANCH  20  23
ATOM     23  C   UNL d   1      26.169  -9.259  -4.295  0.00  0.00     0.280 C 
BRANCH  23  24
ATOM     24  O   UNL d   1      25.872  -8.958  -5.669  0.00  0.00    -0.342 OA
BRANCH  24  25
ATOM     25  C   UNL d   1      24.819  -8.119  -5.936  0.00  0.00     0.070 A 
ATOM     26  C   UNL d   1      23.762  -8.145  -5.021  0.00  0.00     0.038 A 
ATOM     27  C   UNL d   1      22.621  -7.360  -5.222  0.00  0.00     0.027 A 
ATOM     28  C   UNL d   1      22.508  -6.559  -6.360  0.00  0.00     0.040 A 
ATOM     29 CL   UNL d   1      21.078  -5.600  -6.516  0.00  0.00    -0.084 Cl
ATOM     30  C   UNL d   1      23.532  -6.553  -7.321  0.00  0.00    -0.038 A 
ATOM     31  C   UNL d   1      23.451  -5.742  -8.589  0.00  0.00     0.050 C 
ATOM     32  C   UNL d   1      24.685  -7.348  -7.095  0.00  0.00     0.045 A 
ENDBRANCH  24  25
ENDBRANCH  23  24
ENDBRANCH  20  23
ENDBRANCH  17  19
ENDBRANCH   1  17
TORSDOF 9
ENDMDL
MODEL 4
REMARK VINA RESULT:    -7.444      1.960      2.587
REMARK INTER + INTRA:         -13.248
REMARK INTER:                 -10.129
REMARK INTRA:                  -3.119
REMARK CONF_INDEPENDENT:        2.685
REMARK UNBOUND:                -3.119
REMARK  9 active torsions:
REMARK  status: ('A' for Active; 'I' for Inactive)
REMARK    1  A    between atoms: C_2  and  O_3 
REMARK    2  A    between atoms: O_3  and  C_4 
REMARK    3  A    between atoms: C_10  and  C_11 
REMARK       I    between atoms: C_11  and  N_13 
REMARK    4  A    between atoms: N_13  and  C_14 
REMARK    5  A    between atoms: C_14  and  N_16 
REMARK    6  A    between atoms: N_16  and  N_17 
REMARK       I    between atoms: N_17  and  C_18 
REMARK    7  A    between atoms: C_18  and  C_20 
REMARK    8  A    between atoms: C_20  and  O_21 
REMARK    9  A    between atoms: O_21  and  C_22 
ROOT
ATOM      1  C   UNL d   1      27.211 -14.321  -4.670  0.00  0.00     0.193 C 
ATOM      2  S   UNL d   1      26.450 -12.840  -4.953  0.00  0.00    -0.039 SA
ENDROOT
BRANCH   1   3
ATOM      3  N   UNL d   1      26.921 -15.190  -3.588  0.00  0.00    -0.298 N 
ATOM      4  C   UNL d   1      25.660 -15.399  -2.971  0.00  0.00     0.260 C 
ATOM      5  O   UNL d   1      24.628 -14.824  -3.329  0.00  0.00    -0.267 OA
ATOM      6  H   UNL d   1      27.686 -15.713  -3.177  0.00  0.00     0.171 HD
BRANCH   4   7
ATOM      7  C   UNL d   1      25.476 -16.365  -1.827  0.00  0.00     0.067 A 
ATOM      8  C   UNL d   1      24.176 -16.911  -1.645  0.00  0.00     0.039 A 
ATOM      9  C   UNL d   1      23.903 -17.828  -0.627  0.00  0.00     0.012 A 
ATOM     10  C   UNL d   1      24.914 -18.227   0.233  0.00  0.00     0.022 A 
ATOM     11 BR   UNL d   1      22.157 -18.521  -0.400  0.00  0.00    -0.051 Br
ATOM     12  C   UNL d   1      26.200 -17.699   0.073  0.00  0.00     0.039 A 
ATOM     13  C   UNL d   1      26.489 -16.777  -0.955  0.00  0.00     0.084 A 
BRANCH  13  14
ATOM     14  O   UNL d   1      27.718 -16.186  -1.074  0.00  0.00    -0.350 OA
BRANCH  14  15
ATOM     15  C   UNL d   1      28.173 -15.503   0.097  0.00  0.00     0.171 C 
ATOM     16  C   UNL d   1      27.166 -14.403   0.375  0.00  0.00     0.034 C 
ENDBRANCH  14  15
ENDBRANCH  13  14
ENDBRANCH   4   7
ENDBRANCH   1   3
BRANCH   1  17
ATOM     17  N   UNL d   1      28.209 -14.758  -5.562  0.00  0.00    -0.273 N 
ATOM     18  H   UNL d   1      28.445 -14.330  -6.457  0.00  0.00     0.189 HD
BRANCH  17  19
ATOM     19  N   UNL d   1      28.994 -15.950  -5.227  0.00  0.00    -0.266 N 
ATOM     20  C   UNL d   1      29.745 -16.027  -4.055  0.00  0.00     0.260 C 
ATOM     21  O   UNL d   1      29.766 -15.086  -3.260  0.00  0.00    -0.269 OA
ATOM     22  H   UNL d   1      28.942 -16.704  -5.912  0.00  0.00     0.190 HD
BRANCH  20  23
ATOM     23  C   UNL d   1      30.542 -17.361  -3.831  0.00  0.00     0.280 C 
BRANCH  23  24
ATOM     24  O   UNL d   1      30.028 -18.413  -4.666  0.00  0.00    -0.342 OA
BRANCH  24  25
ATOM     25  C   UNL d   1      30.550 -18.554  -5.928  0.00  0.00     0.070 A 
ATOM     26  C   UNL d   1      30.405 -19.813  -6.519  0.00  0.00     0.038 A 
ATOM     27  C   UNL d   1      30.940 -20.075  -7.785  0.00  0.00     0.027 A 
ATOM     28  C   UNL d   1      31.654 -19.088  -8.468  0.00  0.00     0.040 A 
ATOM     29 CL   UNL d   1      32.255 -19.487 -10.039  0.00  0.00    -0.084 Cl
ATOM     30  C   UNL d   1      31.858 -17.831  -7.875  0.00  0.00    -0.038 A 
ATOM     31  C   UNL d   1      32.653 -16.738  -8.542  0.00  0.00     0.050 C 
ATOM     32  C   UNL d   1      31.301 -17.581  -6.594  0.00  0.00     0.045 A 
ENDBRANCH  24  25
ENDBRANCH  23  24
ENDBRANCH  20  23
ENDBRANCH  17  19
ENDBRANCH   1  17
TORSDOF 9
ENDMDL
MODEL 5
REMARK VINA RESULT:    -7.399      1.950      2.514
REMARK INTER + INTRA:         -14.023
REMARK INTER:                 -10.084
REMARK INTRA:                  -3.939
REMARK CONF_INDEPENDENT:        2.685
REMARK UNBOUND:                -3.939
REMARK  9 active torsions:
REMARK  status: ('A' for Active; 'I' for Inactive)
REMARK    1  A    between atoms: C_2  and  O_3 
REMARK    2  A    between atoms: O_3  and  C_4 
REMARK    3  A    between atoms: C_10  and  C_11 
REMARK       I    between atoms: C_11  and  N_13 
REMARK    4  A    between atoms: N_13  and  C_14 
REMARK    5  A    between atoms: C_14  and  N_16 
REMARK    6  A    between atoms: N_16  and  N_17 
REMARK       I    between atoms: N_17  and  C_18 
REMARK    7  A    between atoms: C_18  and  C_20 
REMARK    8  A    between atoms: C_20  and  O_21 
REMARK    9  A    between atoms: O_21  and  C_22 
ROOT
ATOM      1  C   UNL d   1      25.900 -12.030  -3.261  0.00  0.00     0.193 C 
ATOM      2  S   UNL d   1      26.196 -10.436  -2.786  0.00  0.00    -0.039 SA
ENDROOT
BRANCH   1   3
ATOM      3  N   UNL d   1      25.871 -13.146  -2.387  0.00  0.00    -0.298 N 
ATOM      4  C   UNL d   1      25.338 -14.433  -2.658  0.00  0.00     0.260 C 
ATOM      5  O   UNL d   1      24.822 -14.738  -3.737  0.00  0.00    -0.267 OA
ATOM      6  H   UNL d   1      26.245 -13.030  -1.452  0.00  0.00     0.171 HD
BRANCH   4   7
ATOM      7  C   UNL d   1      25.377 -15.549  -1.643  0.00  0.00     0.067 A 
ATOM      8  C   UNL d   1      24.348 -16.526  -1.717  0.00  0.00     0.039 A 
ATOM      9  C   UNL d   1      24.301 -17.609  -0.836  0.00  0.00     0.012 A 
ATOM     10  C   UNL d   1      25.277 -17.749   0.138  0.00  0.00     0.022 A 
ATOM     11 BR   UNL d   1      22.905 -18.882  -0.950  0.00  0.00    -0.051 Br
ATOM     12  C   UNL d   1      26.298 -16.796   0.230  0.00  0.00     0.039 A 
ATOM     13  C   UNL d   1      26.359 -15.702  -0.658  0.00  0.00     0.084 A 
BRANCH  13  14
ATOM     14  O   UNL d   1      27.299 -14.716  -0.530  0.00  0.00    -0.350 OA
BRANCH  14  15
ATOM     15  C   UNL d   1      27.642 -14.384   0.818  0.00  0.00     0.171 C 
ATOM     16  C   UNL d   1      26.655 -13.324   1.268  0.00  0.00     0.034 C 
ENDBRANCH  14  15
ENDBRANCH  13  14
ENDBRANCH   4   7
ENDBRANCH   1   3
BRANCH   1  17
ATOM     17  N   UNL d   1      25.653 -12.304  -4.620  0.00  0.00    -0.273 N 
ATOM     18  H   UNL d   1      24.887 -11.928  -5.179  0.00  0.00     0.189 HD
BRANCH  17  19
ATOM     19  N   UNL d   1      26.538 -13.228  -5.336  0.00  0.00    -0.266 N 
ATOM     20  C   UNL d   1      27.672 -12.780  -6.010  0.00  0.00     0.260 C 
ATOM     21  O   UNL d   1      27.966 -11.584  -6.021  0.00  0.00    -0.269 OA
ATOM     22  H   UNL d   1      26.256 -14.207  -5.295  0.00  0.00     0.190 HD
BRANCH  20  23
ATOM     23  C   UNL d   1      28.522 -13.882  -6.739  0.00  0.00     0.280 C 
BRANCH  23  24
ATOM     24  O   UNL d   1      28.083 -15.200  -6.366  0.00  0.00    -0.342 OA
BRANCH  24  25
ATOM     25  C   UNL d   1      28.654 -15.785  -5.263  0.00  0.00     0.070 A 
ATOM     26  C   UNL d   1      28.205 -15.328  -4.020  0.00  0.00     0.038 A 
ATOM     27  C   UNL d   1      28.753 -15.829  -2.834  0.00  0.00     0.027 A 
ATOM     28  C   UNL d   1      29.781 -16.773  -2.874  0.00  0.00     0.040 A 
ATOM     29 CL   UNL d   1      30.379 -17.359  -1.361  0.00  0.00    -0.084 Cl
ATOM     30  C   UNL d   1      30.285 -17.211  -4.110  0.00  0.00    -0.038 A 
ATOM     31  C   UNL d   1      31.419 -18.198  -4.219  0.00  0.00     0.050 C 
ATOM     32  C   UNL d   1      29.711 -16.700  -5.302  0.00  0.00     0.045 A 
ENDBRANCH  24  25
ENDBRANCH  23  24
ENDBRANCH  20  23
ENDBRANCH  17  19
ENDBRANCH   1  17
TORSDOF 9
ENDMDL
MODEL 6
REMARK VINA RESULT:    -7.249      4.292      6.894
REMARK INTER + INTRA:         -13.069
REMARK INTER:                  -9.934
REMARK INTRA:                  -3.135
REMARK CONF_INDEPENDENT:        2.685
REMARK UNBOUND:                -3.135
REMARK  9 active torsions:
REMARK  status: ('A' for Active; 'I' for Inactive)
REMARK    1  A    between atoms: C_2  and  O_3 
REMARK    2  A    between atoms: O_3  and  C_4 
REMARK    3  A    between atoms: C_10  and  C_11 
REMARK       I    between atoms: C_11  and  N_13 
REMARK    4  A    between atoms: N_13  and  C_14 
REMARK    5  A    between atoms: C_14  and  N_16 
REMARK    6  A    between atoms: N_16  and  N_17 
REMARK       I    between atoms: N_17  and  C_18 
REMARK    7  A    between atoms: C_18  and  C_20 
REMARK    8  A    between atoms: C_20  and  O_21 
REMARK    9  A    between atoms: O_21  and  C_22 
ROOT
ATOM      1  C   UNL d   1      27.441 -13.953  -4.221  0.00  0.00     0.193 C 
ATOM      2  S   UNL d   1      27.874 -14.395  -5.793  0.00  0.00    -0.039 SA
ENDROOT
BRANCH   1   3
ATOM      3  N   UNL d   1      27.096 -14.861  -3.189  0.00  0.00    -0.298 N 
ATOM      4  C   UNL d   1      25.798 -15.331  -2.859  0.00  0.00     0.260 C 
ATOM      5  O   UNL d   1      24.780 -14.990  -3.467  0.00  0.00    -0.267 OA
ATOM      6  H   UNL d   1      27.837 -15.209  -2.590  0.00  0.00     0.171 HD
BRANCH   4   7
ATOM      7  C   UNL d   1      25.560 -16.311  -1.736  0.00  0.00     0.067 A 
ATOM      8  C   UNL d   1      24.262 -16.883  -1.643  0.00  0.00     0.039 A 
ATOM      9  C   UNL d   1      23.942 -17.814  -0.651  0.00  0.00     0.012 A 
ATOM     10  C   UNL d   1      24.903 -18.201   0.268  0.00  0.00     0.022 A 
ATOM     11 BR   UNL d   1      22.198 -18.542  -0.543  0.00  0.00    -0.051 Br
ATOM     12  C   UNL d   1      26.186 -17.648   0.195  0.00  0.00     0.039 A 
ATOM     13  C   UNL d   1      26.523 -16.712  -0.804  0.00  0.00     0.084 A 
BRANCH  13  14
ATOM     14  O   UNL d   1      27.745 -16.097  -0.840  0.00  0.00    -0.350 OA
BRANCH  14  15
ATOM     15  C   UNL d   1      28.516 -16.223   0.357  0.00  0.00     0.171 C 
ATOM     16  C   UNL d   1      29.972 -16.257  -0.067  0.00  0.00     0.034 C 
ENDBRANCH  14  15
ENDBRANCH  13  14
ENDBRANCH   4   7
ENDBRANCH   1   3
BRANCH   1  17
ATOM     17  N   UNL d   1      27.418 -12.588  -3.876  0.00  0.00    -0.273 N 
ATOM     18  H   UNL d   1      27.608 -11.806  -4.502  0.00  0.00     0.189 HD
BRANCH  17  19
ATOM     19  N   UNL d   1      27.121 -12.206  -2.491  0.00  0.00    -0.266 N 
ATOM     20  C   UNL d   1      27.852 -12.714  -1.420  0.00  0.00     0.260 C 
ATOM     21  O   UNL d   1      28.779 -13.503  -1.608  0.00  0.00    -0.269 OA
ATOM     22  H   UNL d   1      26.349 -11.548  -2.385  0.00  0.00     0.190 HD
BRANCH  20  23
ATOM     23  C   UNL d   1      27.417 -12.224   0.008  0.00  0.00     0.280 C 
BRANCH  23  24
ATOM     24  O   UNL d   1      27.140 -13.339   0.872  0.00  0.00    -0.342 OA
BRANCH  24  25
ATOM     25  C   UNL d   1      27.405 -13.203   2.212  0.00  0.00     0.070 A 
ATOM     26  C   UNL d   1      27.471 -11.893   2.698  0.00  0.00     0.038 A 
ATOM     27  C   UNL d   1      27.778 -11.642   4.040  0.00  0.00     0.027 A 
ATOM     28  C   UNL d   1      28.052 -12.698   4.910  0.00  0.00     0.040 A 
ATOM     29 CL   UNL d   1      28.393 -12.300   6.558  0.00  0.00    -0.084 Cl
ATOM     30  C   UNL d   1      28.043 -14.021   4.437  0.00  0.00    -0.038 A 
ATOM     31  C   UNL d   1      28.370 -15.200   5.316  0.00  0.00     0.050 C 
ATOM     32  C   UNL d   1      27.721 -14.256   3.075  0.00  0.00     0.045 A 
ENDBRANCH  24  25
ENDBRANCH  23  24
ENDBRANCH  20  23
ENDBRANCH  17  19
ENDBRANCH   1  17
TORSDOF 9
ENDMDL
MODEL 7
REMARK VINA RESULT:    -7.213      1.698      2.335
REMARK INTER + INTRA:         -12.974
REMARK INTER:                  -9.897
REMARK INTRA:                  -3.077
REMARK CONF_INDEPENDENT:        2.685
REMARK UNBOUND:                -3.077
REMARK  9 active torsions:
REMARK  status: ('A' for Active; 'I' for Inactive)
REMARK    1  A    between atoms: C_2  and  O_3 
REMARK    2  A    between atoms: O_3  and  C_4 
REMARK    3  A    between atoms: C_10  and  C_11 
REMARK       I    between atoms: C_11  and  N_13 
REMARK    4  A    between atoms: N_13  and  C_14 
REMARK    5  A    between atoms: C_14  and  N_16 
REMARK    6  A    between atoms: N_16  and  N_17 
REMARK       I    between atoms: N_17  and  C_18 
REMARK    7  A    between atoms: C_18  and  C_20 
REMARK    8  A    between atoms: C_20  and  O_21 
REMARK    9  A    between atoms: O_21  and  C_22 
ROOT
ATOM      1  C   UNL d   1      26.691 -13.769  -4.731  0.00  0.00     0.193 C 
ATOM      2  S   UNL d   1      25.726 -12.391  -4.886  0.00  0.00    -0.039 SA
ENDROOT
BRANCH   1   3
ATOM      3  N   UNL d   1      26.551 -14.749  -3.716  0.00  0.00    -0.298 N 
ATOM      4  C   UNL d   1      25.379 -15.057  -2.979  0.00  0.00     0.260 C 
ATOM      5  O   UNL d   1      24.300 -14.483  -3.151  0.00  0.00    -0.267 OA
ATOM      6  H   UNL d   1      27.370 -15.286  -3.454  0.00  0.00     0.171 HD
BRANCH   4   7
ATOM      7  C   UNL d   1      25.354 -16.137  -1.925  0.00  0.00     0.067 A 
ATOM      8  C   UNL d   1      24.096 -16.738  -1.645  0.00  0.00     0.039 A 
ATOM      9  C   UNL d   1      23.965 -17.758  -0.701  0.00  0.00     0.012 A 
ATOM     10  C   UNL d   1      25.081 -18.209  -0.013  0.00  0.00     0.022 A 
ATOM     11 BR   UNL d   1      22.273 -18.524  -0.339  0.00  0.00    -0.051 Br
ATOM     12  C   UNL d   1      26.328 -17.629  -0.271  0.00  0.00     0.039 A 
ATOM     13  C   UNL d   1      26.473 -16.602  -1.226  0.00  0.00     0.084 A 
BRANCH  13  14
ATOM     14  O   UNL d   1      27.667 -15.965  -1.431  0.00  0.00    -0.350 OA
BRANCH  14  15
ATOM     15  C   UNL d   1      28.699 -16.311  -0.504  0.00  0.00     0.171 C 
ATOM     16  C   UNL d   1      29.626 -17.270  -1.226  0.00  0.00     0.034 C 
ENDBRANCH  14  15
ENDBRANCH  13  14
ENDBRANCH   4   7
ENDBRANCH   1   3
BRANCH   1  17
ATOM     17  N   UNL d   1      27.718 -13.994  -5.668  0.00  0.00    -0.273 N 
ATOM     18  H   UNL d   1      27.978 -13.374  -6.435  0.00  0.00     0.189 HD
BRANCH  17  19
ATOM     19  N   UNL d   1      28.500 -15.232  -5.588  0.00  0.00    -0.266 N 
ATOM     20  C   UNL d   1      29.337 -15.500  -4.507  0.00  0.00     0.260 C 
ATOM     21  O   UNL d   1      29.441 -14.698  -3.578  0.00  0.00    -0.269 OA
ATOM     22  H   UNL d   1      28.378 -15.866  -6.377  0.00  0.00     0.190 HD
BRANCH  20  23
ATOM     23  C   UNL d   1      30.119 -16.862  -4.560  0.00  0.00     0.280 C 
BRANCH  23  24
ATOM     24  O   UNL d   1      30.030 -17.454  -5.868  0.00  0.00    -0.342 OA
BRANCH  24  25
ATOM     25  C   UNL d   1      30.569 -18.703  -6.051  0.00  0.00     0.070 A 
ATOM     26  C   UNL d   1      30.973 -19.016  -7.353  0.00  0.00     0.038 A 
ATOM     27  C   UNL d   1      31.496 -20.279  -7.656  0.00  0.00     0.027 A 
ATOM     28  C   UNL d   1      31.594 -21.258  -6.665  0.00  0.00     0.040 A 
ATOM     29 CL   UNL d   1      32.278 -22.779  -7.120  0.00  0.00    -0.084 Cl
ATOM     30  C   UNL d   1      31.148 -20.987  -5.361  0.00  0.00    -0.038 A 
ATOM     31  C   UNL d   1      31.190 -22.014  -4.259  0.00  0.00     0.050 C 
ATOM     32  C   UNL d   1      30.630 -19.699  -5.071  0.00  0.00     0.045 A 
ENDBRANCH  24  25
ENDBRANCH  23  24
ENDBRANCH  20  23
ENDBRANCH  17  19
ENDBRANCH   1  17
TORSDOF 9
ENDMDL
MODEL 8
REMARK VINA RESULT:    -5.386      2.711      4.558
REMARK INTER + INTRA:         -13.027
REMARK INTER:                  -8.071
REMARK INTRA:                  -4.956
REMARK CONF_INDEPENDENT:        2.685
REMARK UNBOUND:                -4.956
REMARK  9 active torsions:
REMARK  status: ('A' for Active; 'I' for Inactive)
REMARK    1  A    between atoms: C_2  and  O_3 
REMARK    2  A    between atoms: O_3  and  C_4 
REMARK    3  A    between atoms: C_10  and  C_11 
REMARK       I    between atoms: C_11  and  N_13 
REMARK    4  A    between atoms: N_13  and  C_14 
REMARK    5  A    between atoms: C_14  and  N_16 
REMARK    6  A    between atoms: N_16  and  N_17 
REMARK       I    between atoms: N_17  and  C_18 
REMARK    7  A    between atoms: C_18  and  C_20 
REMARK    8  A    between atoms: C_20  and  O_21 
REMARK    9  A    between atoms: O_21  and  C_22 
ROOT
ATOM      1  C   UNL d   1      28.155 -13.387  -6.711  0.00  0.00     0.193 C 
ATOM      2  S   UNL d   1      27.780 -12.041  -7.660  0.00  0.00    -0.039 SA
ENDROOT
BRANCH   1   3
ATOM      3  N   UNL d   1      27.755 -13.568  -5.363  0.00  0.00    -0.298 N 
ATOM      4  C   UNL d   1      26.987 -14.636  -4.833  0.00  0.00     0.260 C 
ATOM      5  O   UNL d   1      26.567 -15.574  -5.518  0.00  0.00    -0.267 OA
ATOM      6  H   UNL d   1      28.013 -12.856  -4.689  0.00  0.00     0.171 HD
BRANCH   4   7
ATOM      7  C   UNL d   1      26.633 -14.722  -3.368  0.00  0.00     0.067 A 
ATOM      8  C   UNL d   1      25.842 -15.830  -2.959  0.00  0.00     0.039 A 
ATOM      9  C   UNL d   1      25.473 -16.012  -1.624  0.00  0.00     0.012 A 
ATOM     10  C   UNL d   1      25.883 -15.101  -0.663  0.00  0.00     0.022 A 
ATOM     11 BR   UNL d   1      24.404 -17.489  -1.115  0.00  0.00    -0.051 Br
ATOM     12  C   UNL d   1      26.659 -14.002  -1.047  0.00  0.00     0.039 A 
ATOM     13  C   UNL d   1      27.043 -13.810  -2.390  0.00  0.00     0.084 A 
BRANCH  13  14
ATOM     14  O   UNL d   1      27.729 -12.698  -2.797  0.00  0.00    -0.350 OA
BRANCH  14  15
ATOM     15  C   UNL d   1      27.027 -11.464  -2.629  0.00  0.00     0.171 C 
ATOM     16  C   UNL d   1      25.906 -11.461  -3.651  0.00  0.00     0.034 C 
ENDBRANCH  14  15
ENDBRANCH  13  14
ENDBRANCH   4   7
ENDBRANCH   1   3
BRANCH   1  17
ATOM     17  N   UNL d   1      28.916 -14.431  -7.274  0.00  0.00    -0.273 N 
ATOM     18  H   UNL d   1      29.196 -14.510  -8.251  0.00  0.00     0.189 HD
BRANCH  17  19
ATOM     19  N   UNL d   1      29.350 -15.540  -6.418  0.00  0.00    -0.266 N 
ATOM     20  C   UNL d   1      30.535 -16.231  -6.661  0.00  0.00     0.260 C 
ATOM     21  O   UNL d   1      31.260 -15.923  -7.608  0.00  0.00    -0.269 OA
ATOM     22  H   UNL d   1      28.720 -15.755  -5.645  0.00  0.00     0.190 HD
BRANCH  20  23
ATOM     23  C   UNL d   1      30.867 -17.401  -5.667  0.00  0.00     0.280 C 
BRANCH  23  24
ATOM     24  O   UNL d   1      29.819 -17.566  -4.697  0.00  0.00    -0.342 OA
BRANCH  24  25
ATOM     25  C   UNL d   1      29.830 -16.757  -3.588  0.00  0.00     0.070 A 
ATOM     26  C   UNL d   1      30.594 -15.590  -3.682  0.00  0.00     0.038 A 
ATOM     27  C   UNL d   1      30.707 -14.718  -2.593  0.00  0.00     0.027 A 
ATOM     28  C   UNL d   1      30.079 -15.017  -1.382  0.00  0.00     0.040 A 
ATOM     29 CL   UNL d   1      30.247 -13.872  -0.098  0.00  0.00    -0.084 Cl
ATOM     30  C   UNL d   1      29.347 -16.208  -1.244  0.00  0.00    -0.038 A 
ATOM     31  C   UNL d   1      28.681 -16.607   0.047  0.00  0.00     0.050 C 
ATOM     32  C   UNL d   1      29.236 -17.075  -2.362  0.00  0.00     0.045 A 
ENDBRANCH  24  25
ENDBRANCH  23  24
ENDBRANCH  20  23
ENDBRANCH  17  19
ENDBRANCH   1  17
TORSDOF 9
ENDMDL
MODEL 9
REMARK VINA RESULT:    -5.100      3.590      4.713
REMARK INTER + INTRA:         -12.967
REMARK INTER:                  -7.785
REMARK INTRA:                  -5.182
REMARK CONF_INDEPENDENT:        2.685
REMARK UNBOUND:                -5.182
REMARK  9 active torsions:
REMARK  status: ('A' for Active; 'I' for Inactive)
REMARK    1  A    between atoms: C_2  and  O_3 
REMARK    2  A    between atoms: O_3  and  C_4 
REMARK    3  A    between atoms: C_10  and  C_11 
REMARK       I    between atoms: C_11  and  N_13 
REMARK    4  A    between atoms: N_13  and  C_14 
REMARK    5  A    between atoms: C_14  and  N_16 
REMARK    6  A    between atoms: N_16  and  N_17 
REMARK       I    between atoms: N_17  and  C_18 
REMARK    7  A    between atoms: C_18  and  C_20 
REMARK    8  A    between atoms: C_20  and  O_21 
REMARK    9  A    between atoms: O_21  and  C_22 
ROOT
ATOM      1  C   UNL d   1      25.888 -11.260  -3.376  0.00  0.00     0.193 C 
ATOM      2  S   UNL d   1      25.905  -9.597  -3.085  0.00  0.00    -0.039 SA
ENDROOT
BRANCH   1   3
ATOM      3  N   UNL d   1      26.160 -12.258  -2.406  0.00  0.00    -0.298 N 
ATOM      4  C   UNL d   1      27.133 -12.208  -1.375  0.00  0.00     0.260 C 
ATOM      5  O   UNL d   1      27.882 -11.243  -1.197  0.00  0.00    -0.267 OA
ATOM      6  H   UNL d   1      25.629 -13.121  -2.447  0.00  0.00     0.171 HD
BRANCH   4   7
ATOM      7  C   UNL d   1      27.319 -13.337  -0.391  0.00  0.00     0.067 A 
ATOM      8  C   UNL d   1      28.161 -13.087   0.727  0.00  0.00     0.039 A 
ATOM      9  C   UNL d   1      28.387 -14.058   1.705  0.00  0.00     0.012 A 
ATOM     10  C   UNL d   1      27.780 -15.300   1.599  0.00  0.00     0.022 A 
ATOM     11 BR   UNL d   1      29.529 -13.700   3.172  0.00  0.00    -0.051 Br
ATOM     12  C   UNL d   1      26.950 -15.567   0.504  0.00  0.00     0.039 A 
ATOM     13  C   UNL d   1      26.710 -14.592  -0.486  0.00  0.00     0.084 A 
BRANCH  13  14
ATOM     14  O   UNL d   1      25.971 -14.863  -1.606  0.00  0.00    -0.350 OA
BRANCH  14  15
ATOM     15  C   UNL d   1      25.582 -16.231  -1.753  0.00  0.00     0.171 C 
ATOM     16  C   UNL d   1      24.147 -16.327  -1.270  0.00  0.00     0.034 C 
ENDBRANCH  14  15
ENDBRANCH  13  14
ENDBRANCH   4   7
ENDBRANCH   1   3
BRANCH   1  17
ATOM     17  N   UNL d   1      25.577 -11.725  -4.669  0.00  0.00    -0.273 N 
ATOM     18  H   UNL d   1      25.039 -11.224  -5.374  0.00  0.00     0.189 HD
BRANCH  17  19
ATOM     19  N   UNL d   1      26.028 -13.060  -5.076  0.00  0.00    -0.266 N 
ATOM     20  C   UNL d   1      25.382 -14.215  -4.642  0.00  0.00     0.260 C 
ATOM     21  O   UNL d   1      24.400 -14.145  -3.900  0.00  0.00    -0.269 OA
ATOM     22  H   UNL d   1      26.841 -13.067  -5.693  0.00  0.00     0.190 HD
BRANCH  20  23
ATOM     23  C   UNL d   1      25.980 -15.575  -5.151  0.00  0.00     0.280 C 
BRANCH  23  24
ATOM     24  O   UNL d   1      27.393 -15.455  -5.395  0.00  0.00    -0.342 OA
BRANCH  24  25
ATOM     25  C   UNL d   1      28.212 -15.165  -4.333  0.00  0.00     0.070 A 
ATOM     26  C   UNL d   1      28.853 -13.923  -4.369  0.00  0.00     0.038 A 
ATOM     27  C   UNL d   1      29.743 -13.547  -3.356  0.00  0.00     0.027 A 
ATOM     28  C   UNL d   1      30.027 -14.422  -2.306  0.00  0.00     0.040 A 
ATOM     29 CL   UNL d   1      31.115 -13.866  -1.083  0.00  0.00    -0.084 Cl
ATOM     30  C   UNL d   1      29.436 -15.696  -2.272  0.00  0.00    -0.038 A 
ATOM     31  C   UNL d   1      29.733 -16.700  -1.188  0.00  0.00     0.050 C 
ATOM     32  C   UNL d   1      28.530 -16.056  -3.303  0.00  0.00     0.045 A 
ENDBRANCH  24  25
ENDBRANCH  23  24
ENDBRANCH  20  23
ENDBRANCH  17  19
ENDBRANCH   1  17
TORSDOF 9
ENDMDL
