MODEL 1
REMARK VINA RESULT:    -8.636      0.000      0.000
REMARK INTER + INTRA:         -11.731
REMARK INTER:                 -11.321
REMARK INTRA:                  -0.410
REMARK CONF_INDEPENDENT:        2.685
REMARK UNBOUND:                -0.410
REMARK  9 active torsions:
REMARK  status: ('A' for Active; 'I' for Inactive)
REMARK    1  A    between atoms: C_2  and  S_3 
REMARK    2  A    between atoms: C_2  and  C_11 
REMARK    3  A    between atoms: S_3  and  C_4 
REMARK    4  A    between atoms: C_4  and  C_5 
REMARK       I    between atoms: C_11  and  N_13 
REMARK    5  A    between atoms: N_13  and  N_14 
REMARK    6  A    between atoms: C_15  and  C_16 
REMARK    7  A    between atoms: C_17  and  O_18 
REMARK    8  A    between atoms: C_20  and  O_21 
REMARK    9  A    between atoms: C_23  and  O_24 
ROOT
ATOM      1  C   UNL d   1      23.667 -16.955  -0.913  0.00  0.00     0.251 C 
ATOM      2  O   UNL d   1      22.596 -16.331  -0.894  0.00  0.00    -0.270 OA
ATOM      3  N   UNL d   1      23.737 -18.348  -0.849  0.00  0.00    -0.246 N 
ATOM      4  H   UNL d   1      24.627 -18.833  -0.857  0.00  0.00     0.192 HD
ENDROOT
BRANCH   3   5
ATOM      5  N   UNL d   1      22.568 -19.041  -0.683  0.00  0.00    -0.184 NA
ATOM      6  C   UNL d   1      21.736 -18.690   0.244  0.00  0.00     0.155 C 
BRANCH   6   7
ATOM      7  C   UNL d   1      20.485 -19.468   0.470  0.00  0.00     0.049 A 
ATOM      8  C   UNL d   1      19.662 -19.885  -0.589  0.00  0.00     0.082 A 
ATOM      9  C   UNL d   1      18.461 -20.567  -0.337  0.00  0.00     0.074 A 
ATOM     10  C   UNL d   1      18.119 -20.892   0.973  0.00  0.00     0.071 A 
ATOM     11  C   UNL d   1      18.918 -20.487   2.035  0.00  0.00     0.074 A 
ATOM     12  C   UNL d   1      20.084 -19.761   1.782  0.00  0.00     0.082 A 
BRANCH   8  13
ATOM     13  O   UNL d   1      19.965 -19.698  -1.910  0.00  0.00    -0.360 OA
ATOM     14  H   UNL d   1      19.193 -19.332  -2.374  0.00  0.00     0.217 HD
ENDBRANCH   8  13
BRANCH  10  15
ATOM     15  O   UNL d   1      17.002 -21.617   1.268  0.00  0.00    -0.361 OA
ATOM     16  H   UNL d   1      16.650 -22.013   0.454  0.00  0.00     0.217 HD
ENDBRANCH  10  15
BRANCH  12  17
ATOM     17  O   UNL d   1      20.805 -19.278   2.840  0.00  0.00    -0.360 OA
ATOM     18  H   UNL d   1      21.360 -19.981   3.211  0.00  0.00     0.217 HD
ENDBRANCH  12  17
ENDBRANCH   6   7
ENDBRANCH   3   5
BRANCH   1  19
ATOM     19  C   UNL d   1      25.017 -16.210  -1.051  0.00  0.00     0.137 C 
ATOM     20  C   UNL d   1      26.122 -17.029  -0.373  0.00  0.00     0.031 C 
BRANCH  19  21
ATOM     21  S   UNL d   1      25.348 -15.954  -2.849  0.00  0.00    -0.150 SA
BRANCH  21  22
ATOM     22  C   UNL d   1      25.981 -14.240  -2.897  0.00  0.00     0.113 C 
BRANCH  22  23
ATOM     23  C   UNL d   1      26.721 -13.993  -4.194  0.00  0.00    -0.049 A 
ATOM     24  C   UNL d   1      27.205 -15.071  -4.954  0.00  0.00     0.008 A 
ATOM     25  C   UNL d   1      27.946 -14.845  -6.115  0.00  0.00     0.001 A 
ATOM     26  C   UNL d   1      28.153 -13.544  -6.568  0.00  0.00     0.000 A 
ATOM     27  C   UNL d   1      27.642 -12.467  -5.845  0.00  0.00     0.001 A 
ATOM     28  C   UNL d   1      26.936 -12.688  -4.661  0.00  0.00     0.008 A 
ENDBRANCH  22  23
ENDBRANCH  21  22
ENDBRANCH  19  21
ENDBRANCH   1  19
TORSDOF 9
ENDMDL
MODEL 2
REMARK VINA RESULT:    -8.115      3.224     10.209
REMARK INTER + INTRA:         -11.917
REMARK INTER:                 -10.800
REMARK INTRA:                  -1.117
REMARK CONF_INDEPENDENT:        2.685
REMARK UNBOUND:                -1.117
REMARK  9 active torsions:
REMARK  status: ('A' for Active; 'I' for Inactive)
REMARK    1  A    between atoms: C_2  and  S_3 
REMARK    2  A    between atoms: C_2  and  C_11 
REMARK    3  A    between atoms: S_3  and  C_4 
REMARK    4  A    between atoms: C_4  and  C_5 
REMARK       I    between atoms: C_11  and  N_13 
REMARK    5  A    between atoms: N_13  and  N_14 
REMARK    6  A    between atoms: C_15  and  C_16 
REMARK    7  A    between atoms: C_17  and  O_18 
REMARK    8  A    between atoms: C_20  and  O_21 
REMARK    9  A    between atoms: C_23  and  O_24 
ROOT
ATOM      1  C   UNL d   1      24.477 -16.789  -1.451  0.00  0.00     0.251 C 
ATOM      2  O   UNL d   1      25.514 -17.451  -1.603  0.00  0.00    -0.270 OA
ATOM      3  N   UNL d   1      24.198 -15.633  -2.184  0.00  0.00    -0.246 N 
ATOM      4  H   UNL d   1      23.346 -15.105  -2.034  0.00  0.00     0.192 HD
ENDROOT
BRANCH   3   5
ATOM      5  N   UNL d   1      25.155 -15.180  -3.053  0.00  0.00    -0.184 NA
ATOM      6  C   UNL d   1      25.048 -14.000  -3.573  0.00  0.00     0.155 C 
BRANCH   6   7
ATOM      7  C   UNL d   1      26.054 -13.517  -4.560  0.00  0.00     0.049 A 
ATOM      8  C   UNL d   1      26.839 -14.397  -5.321  0.00  0.00     0.082 A 
ATOM      9  C   UNL d   1      27.817 -13.907  -6.201  0.00  0.00     0.074 A 
ATOM     10  C   UNL d   1      27.963 -12.533  -6.367  0.00  0.00     0.071 A 
ATOM     11  C   UNL d   1      27.200 -11.644  -5.621  0.00  0.00     0.074 A 
ATOM     12  C   UNL d   1      26.264 -12.137  -4.708  0.00  0.00     0.082 A 
BRANCH   8  13
ATOM     13  O   UNL d   1      26.699 -15.759  -5.298  0.00  0.00    -0.360 OA
ATOM     14  H   UNL d   1      26.217 -16.024  -4.497  0.00  0.00     0.217 HD
ENDBRANCH   8  13
BRANCH  10  15
ATOM     15  O   UNL d   1      28.847 -12.004  -7.262  0.00  0.00    -0.361 OA
ATOM     16  H   UNL d   1      28.367 -11.711  -8.055  0.00  0.00     0.217 HD
ENDBRANCH  10  15
BRANCH  12  17
ATOM     17  O   UNL d   1      25.595 -11.255  -3.905  0.00  0.00    -0.360 OA
ATOM     18  H   UNL d   1      24.729 -11.049  -4.288  0.00  0.00     0.217 HD
ENDBRANCH  12  17
ENDBRANCH   6   7
ENDBRANCH   3   5
BRANCH   1  19
ATOM     19  C   UNL d   1      23.389 -17.237  -0.446  0.00  0.00     0.137 C 
ATOM     20  C   UNL d   1      22.198 -16.272  -0.520  0.00  0.00     0.031 C 
BRANCH  19  21
ATOM     21  S   UNL d   1      22.904 -18.970  -0.859  0.00  0.00    -0.150 SA
BRANCH  21  22
ATOM     22  C   UNL d   1      21.132 -18.801  -1.270  0.00  0.00     0.113 C 
BRANCH  22  23
ATOM     23  C   UNL d   1      20.283 -19.434  -0.188  0.00  0.00    -0.049 A 
ATOM     24  C   UNL d   1      20.654 -19.325   1.162  0.00  0.00     0.008 A 
ATOM     25  C   UNL d   1      19.912 -19.966   2.156  0.00  0.00     0.001 A 
ATOM     26  C   UNL d   1      18.753 -20.661   1.821  0.00  0.00     0.000 A 
ATOM     27  C   UNL d   1      18.351 -20.741   0.489  0.00  0.00     0.001 A 
ATOM     28  C   UNL d   1      19.114 -20.137  -0.511  0.00  0.00     0.008 A 
ENDBRANCH  22  23
ENDBRANCH  21  22
ENDBRANCH  19  21
ENDBRANCH   1  19
TORSDOF 9
ENDMDL
MODEL 3
REMARK VINA RESULT:    -8.029      2.201      3.234
REMARK INTER + INTRA:         -11.429
REMARK INTER:                 -10.714
REMARK INTRA:                  -0.715
REMARK CONF_INDEPENDENT:        2.685
REMARK UNBOUND:                -0.715
REMARK  9 active torsions:
REMARK  status: ('A' for Active; 'I' for Inactive)
REMARK    1  A    between atoms: C_2  and  S_3 
REMARK    2  A    between atoms: C_2  and  C_11 
REMARK    3  A    between atoms: S_3  and  C_4 
REMARK    4  A    between atoms: C_4  and  C_5 
REMARK       I    between atoms: C_11  and  N_13 
REMARK    5  A    between atoms: N_13  and  N_14 
REMARK    6  A    between atoms: C_15  and  C_16 
REMARK    7  A    between atoms: C_17  and  O_18 
REMARK    8  A    between atoms: C_20  and  O_21 
REMARK    9  A    between atoms: C_23  and  O_24 
ROOT
ATOM      1  C   UNL d   1      24.377 -17.754  -0.381  0.00  0.00     0.251 C 
ATOM      2  O   UNL d   1      24.410 -18.935  -0.007  0.00  0.00    -0.270 OA
ATOM      3  N   UNL d   1      23.188 -17.075  -0.654  0.00  0.00    -0.246 N 
ATOM      4  H   UNL d   1      23.190 -16.111  -0.968  0.00  0.00     0.192 HD
ENDROOT
BRANCH   3   5
ATOM      5  N   UNL d   1      22.016 -17.778  -0.572  0.00  0.00    -0.184 NA
ATOM      6  C   UNL d   1      21.797 -18.552   0.441  0.00  0.00     0.155 C 
BRANCH   6   7
ATOM      7  C   UNL d   1      20.549 -19.363   0.516  0.00  0.00     0.049 A 
ATOM      8  C   UNL d   1      19.828 -19.734  -0.630  0.00  0.00     0.082 A 
ATOM      9  C   UNL d   1      18.625 -20.450  -0.520  0.00  0.00     0.074 A 
ATOM     10  C   UNL d   1      18.181 -20.854   0.736  0.00  0.00     0.071 A 
ATOM     11  C   UNL d   1      18.878 -20.495   1.883  0.00  0.00     0.074 A 
ATOM     12  C   UNL d   1      20.045 -19.736   1.771  0.00  0.00     0.082 A 
BRANCH   8  13
ATOM     13  O   UNL d   1      20.237 -19.468  -1.909  0.00  0.00    -0.360 OA
ATOM     14  H   UNL d   1      19.479 -19.523  -2.514  0.00  0.00     0.217 HD
ENDBRANCH   8  13
BRANCH  10  15
ATOM     15  O   UNL d   1      17.059 -21.614   0.894  0.00  0.00    -0.361 OA
ATOM     16  H   UNL d   1      17.247 -22.527   0.620  0.00  0.00     0.217 HD
ENDBRANCH  10  15
BRANCH  12  17
ATOM     17  O   UNL d   1      20.663 -19.301   2.911  0.00  0.00    -0.360 OA
ATOM     18  H   UNL d   1      21.352 -19.929   3.175  0.00  0.00     0.217 HD
ENDBRANCH  12  17
ENDBRANCH   6   7
ENDBRANCH   3   5
BRANCH   1  19
ATOM     19  C   UNL d   1      25.680 -16.934  -0.534  0.00  0.00     0.137 C 
ATOM     20  C   UNL d   1      26.889 -17.845  -0.283  0.00  0.00     0.031 C 
BRANCH  19  21
ATOM     21  S   UNL d   1      25.703 -16.203  -2.230  0.00  0.00    -0.150 SA
BRANCH  21  22
ATOM     22  C   UNL d   1      26.202 -14.474  -1.911  0.00  0.00     0.113 C 
BRANCH  22  23
ATOM     23  C   UNL d   1      27.095 -14.405  -0.692  0.00  0.00    -0.049 A 
ATOM     24  C   UNL d   1      28.442 -14.795  -0.772  0.00  0.00     0.008 A 
ATOM     25  C   UNL d   1      29.250 -14.798   0.366  0.00  0.00     0.001 A 
ATOM     26  C   UNL d   1      28.743 -14.345   1.582  0.00  0.00     0.000 A 
ATOM     27  C   UNL d   1      27.419 -13.915   1.666  0.00  0.00     0.001 A 
ATOM     28  C   UNL d   1      26.597 -13.951   0.538  0.00  0.00     0.008 A 
ENDBRANCH  22  23
ENDBRANCH  21  22
ENDBRANCH  19  21
ENDBRANCH   1  19
TORSDOF 9
ENDMDL
MODEL 4
REMARK VINA RESULT:    -8.006      3.321     10.188
REMARK INTER + INTRA:         -11.657
REMARK INTER:                 -10.690
REMARK INTRA:                  -0.967
REMARK CONF_INDEPENDENT:        2.685
REMARK UNBOUND:                -0.967
REMARK  9 active torsions:
REMARK  status: ('A' for Active; 'I' for Inactive)
REMARK    1  A    between atoms: C_2  and  S_3 
REMARK    2  A    between atoms: C_2  and  C_11 
REMARK    3  A    between atoms: S_3  and  C_4 
REMARK    4  A    between atoms: C_4  and  C_5 
REMARK       I    between atoms: C_11  and  N_13 
REMARK    5  A    between atoms: N_13  and  N_14 
REMARK    6  A    between atoms: C_15  and  C_16 
REMARK    7  A    between atoms: C_17  and  O_18 
REMARK    8  A    between atoms: C_20  and  O_21 
REMARK    9  A    between atoms: C_23  and  O_24 
ROOT
ATOM      1  C   UNL d   1      24.802 -16.704  -1.431  0.00  0.00     0.251 C 
ATOM      2  O   UNL d   1      25.925 -17.229  -1.439  0.00  0.00    -0.270 OA
ATOM      3  N   UNL d   1      24.394 -15.764  -2.380  0.00  0.00    -0.246 N 
ATOM      4  H   UNL d   1      23.472 -15.344  -2.345  0.00  0.00     0.192 HD
ENDROOT
BRANCH   3   5
ATOM      5  N   UNL d   1      25.311 -15.356  -3.311  0.00  0.00    -0.184 NA
ATOM      6  C   UNL d   1      25.355 -14.115  -3.674  0.00  0.00     0.155 C 
BRANCH   6   7
ATOM      7  C   UNL d   1      26.313 -13.669  -4.725  0.00  0.00     0.049 A 
ATOM      8  C   UNL d   1      26.413 -12.327  -5.126  0.00  0.00     0.082 A 
ATOM      9  C   UNL d   1      27.286 -11.951  -6.159  0.00  0.00     0.074 A 
ATOM     10  C   UNL d   1      28.109 -12.909  -6.744  0.00  0.00     0.071 A 
ATOM     11  C   UNL d   1      28.024 -14.243  -6.365  0.00  0.00     0.074 A 
ATOM     12  C   UNL d   1      27.115 -14.621  -5.374  0.00  0.00     0.082 A 
BRANCH   8  13
ATOM     13  O   UNL d   1      25.717 -11.303  -4.542  0.00  0.00    -0.360 OA
ATOM     14  H   UNL d   1      24.776 -11.538  -4.484  0.00  0.00     0.217 HD
ENDBRANCH   8  13
BRANCH  10  15
ATOM     15  O   UNL d   1      29.026 -12.585  -7.700  0.00  0.00    -0.361 OA
ATOM     16  H   UNL d   1      28.967 -13.220  -8.433  0.00  0.00     0.217 HD
ENDBRANCH  10  15
BRANCH  12  17
ATOM     17  O   UNL d   1      26.967 -15.949  -5.085  0.00  0.00    -0.360 OA
ATOM     18  H   UNL d   1      26.034 -16.150  -4.913  0.00  0.00     0.217 HD
ENDBRANCH  12  17
ENDBRANCH   6   7
ENDBRANCH   3   5
BRANCH   1  19
ATOM     19  C   UNL d   1      23.749 -17.100  -0.368  0.00  0.00     0.137 C 
ATOM     20  C   UNL d   1      22.517 -16.196  -0.510  0.00  0.00     0.031 C 
BRANCH  19  21
ATOM     21  S   UNL d   1      23.332 -18.882  -0.609  0.00  0.00    -0.150 SA
BRANCH  21  22
ATOM     22  C   UNL d   1      21.630 -18.807  -1.271  0.00  0.00     0.113 C 
BRANCH  22  23
ATOM     23  C   UNL d   1      20.651 -19.359  -0.257  0.00  0.00    -0.049 A 
ATOM     24  C   UNL d   1      20.952 -19.324   1.114  0.00  0.00     0.008 A 
ATOM     25  C   UNL d   1      20.083 -19.894   2.047  0.00  0.00     0.001 A 
ATOM     26  C   UNL d   1      18.872 -20.441   1.627  0.00  0.00     0.000 A 
ATOM     27  C   UNL d   1      18.543 -20.444   0.273  0.00  0.00     0.001 A 
ATOM     28  C   UNL d   1      19.429 -19.913  -0.666  0.00  0.00     0.008 A 
ENDBRANCH  22  23
ENDBRANCH  21  22
ENDBRANCH  19  21
ENDBRANCH   1  19
TORSDOF 9
ENDMDL
MODEL 5
REMARK VINA RESULT:    -7.945      1.108      1.582
REMARK INTER + INTRA:         -11.645
REMARK INTER:                 -10.629
REMARK INTRA:                  -1.015
REMARK CONF_INDEPENDENT:        2.685
REMARK UNBOUND:                -1.015
REMARK  9 active torsions:
REMARK  status: ('A' for Active; 'I' for Inactive)
REMARK    1  A    between atoms: C_2  and  S_3 
REMARK    2  A    between atoms: C_2  and  C_11 
REMARK    3  A    between atoms: S_3  and  C_4 
REMARK    4  A    between atoms: C_4  and  C_5 
REMARK       I    between atoms: C_11  and  N_13 
REMARK    5  A    between atoms: N_13  and  N_14 
REMARK    6  A    between atoms: C_15  and  C_16 
REMARK    7  A    between atoms: C_17  and  O_18 
REMARK    8  A    between atoms: C_20  and  O_21 
REMARK    9  A    between atoms: C_23  and  O_24 
ROOT
ATOM      1  C   UNL d   1      24.347 -17.785  -0.350  0.00  0.00     0.251 C 
ATOM      2  O   UNL d   1      24.354 -18.915   0.160  0.00  0.00    -0.270 OA
ATOM      3  N   UNL d   1      23.177 -17.141  -0.759  0.00  0.00    -0.246 N 
ATOM      4  H   UNL d   1      23.201 -16.220  -1.182  0.00  0.00     0.192 HD
ENDROOT
BRANCH   3   5
ATOM      5  N   UNL d   1      21.998 -17.830  -0.654  0.00  0.00    -0.184 NA
ATOM      6  C   UNL d   1      21.775 -18.574   0.380  0.00  0.00     0.155 C 
BRANCH   6   7
ATOM      7  C   UNL d   1      20.519 -19.370   0.480  0.00  0.00     0.049 A 
ATOM      8  C   UNL d   1      19.783 -19.753  -0.653  0.00  0.00     0.082 A 
ATOM      9  C   UNL d   1      18.574 -20.454  -0.519  0.00  0.00     0.074 A 
ATOM     10  C   UNL d   1      18.137 -20.831   0.748  0.00  0.00     0.071 A 
ATOM     11  C   UNL d   1      18.848 -20.459   1.882  0.00  0.00     0.074 A 
ATOM     12  C   UNL d   1      20.023 -19.715   1.746  0.00  0.00     0.082 A 
BRANCH   8  13
ATOM     13  O   UNL d   1      20.184 -19.514  -1.940  0.00  0.00    -0.360 OA
ATOM     14  H   UNL d   1      20.876 -18.832  -1.945  0.00  0.00     0.217 HD
ENDBRANCH   8  13
BRANCH  10  15
ATOM     15  O   UNL d   1      17.008 -21.575   0.930  0.00  0.00    -0.361 OA
ATOM     16  H   UNL d   1      16.971 -22.274   0.256  0.00  0.00     0.217 HD
ENDBRANCH  10  15
BRANCH  12  17
ATOM     17  O   UNL d   1      20.655 -19.267   2.873  0.00  0.00    -0.360 OA
ATOM     18  H   UNL d   1      21.614 -19.256   2.733  0.00  0.00     0.217 HD
ENDBRANCH  12  17
ENDBRANCH   6   7
ENDBRANCH   3   5
BRANCH   1  19
ATOM     19  C   UNL d   1      25.661 -16.988  -0.532  0.00  0.00     0.137 C 
ATOM     20  C   UNL d   1      26.844 -17.838  -0.051  0.00  0.00     0.031 C 
BRANCH  19  21
ATOM     21  S   UNL d   1      25.815 -16.533  -2.315  0.00  0.00    -0.150 SA
BRANCH  21  22
ATOM     22  C   UNL d   1      27.181 -15.319  -2.300  0.00  0.00     0.113 C 
BRANCH  22  23
ATOM     23  C   UNL d   1      26.889 -14.195  -3.271  0.00  0.00    -0.049 A 
ATOM     24  C   UNL d   1      25.849 -13.286  -3.016  0.00  0.00     0.008 A 
ATOM     25  C   UNL d   1      25.533 -12.290  -3.942  0.00  0.00     0.001 A 
ATOM     26  C   UNL d   1      26.297 -12.146  -5.098  0.00  0.00     0.000 A 
ATOM     27  C   UNL d   1      27.359 -13.015  -5.343  0.00  0.00     0.001 A 
ATOM     28  C   UNL d   1      27.650 -14.039  -4.438  0.00  0.00     0.008 A 
ENDBRANCH  22  23
ENDBRANCH  21  22
ENDBRANCH  19  21
ENDBRANCH   1  19
TORSDOF 9
ENDMDL
MODEL 6
REMARK VINA RESULT:    -7.680      1.224      2.324
REMARK INTER + INTRA:         -11.466
REMARK INTER:                 -10.365
REMARK INTRA:                  -1.101
REMARK CONF_INDEPENDENT:        2.685
REMARK UNBOUND:                -1.101
REMARK  9 active torsions:
REMARK  status: ('A' for Active; 'I' for Inactive)
REMARK    1  A    between atoms: C_2  and  S_3 
REMARK    2  A    between atoms: C_2  and  C_11 
REMARK    3  A    between atoms: S_3  and  C_4 
REMARK    4  A    between atoms: C_4  and  C_5 
REMARK       I    between atoms: C_11  and  N_13 
REMARK    5  A    between atoms: N_13  and  N_14 
REMARK    6  A    between atoms: C_15  and  C_16 
REMARK    7  A    between atoms: C_17  and  O_18 
REMARK    8  A    between atoms: C_20  and  O_21 
REMARK    9  A    between atoms: C_23  and  O_24 
ROOT
ATOM      1  C   UNL d   1      24.468 -17.678  -0.185  0.00  0.00     0.251 C 
ATOM      2  O   UNL d   1      24.526 -18.914  -0.098  0.00  0.00    -0.270 OA
ATOM      3  N   UNL d   1      23.264 -16.971  -0.192  0.00  0.00    -0.246 N 
ATOM      4  H   UNL d   1      23.245 -15.961  -0.273  0.00  0.00     0.192 HD
ENDROOT
BRANCH   3   5
ATOM      5  N   UNL d   1      22.099 -17.691  -0.177  0.00  0.00    -0.184 NA
ATOM      6  C   UNL d   1      21.899 -18.575   0.747  0.00  0.00     0.155 C 
BRANCH   6   7
ATOM      7  C   UNL d   1      20.659 -19.402   0.743  0.00  0.00     0.049 A 
ATOM      8  C   UNL d   1      20.128 -19.959   1.917  0.00  0.00     0.082 A 
ATOM      9  C   UNL d   1      18.990 -20.780   1.870  0.00  0.00     0.074 A 
ATOM     10  C   UNL d   1      18.345 -20.989   0.654  0.00  0.00     0.071 A 
ATOM     11  C   UNL d   1      18.856 -20.450  -0.520  0.00  0.00     0.074 A 
ATOM     12  C   UNL d   1      20.019 -19.678  -0.475  0.00  0.00     0.082 A 
BRANCH   8  13
ATOM     13  O   UNL d   1      20.635 -19.729   3.168  0.00  0.00    -0.360 OA
ATOM     14  H   UNL d   1      21.301 -20.404   3.380  0.00  0.00     0.217 HD
ENDBRANCH   8  13
BRANCH  10  15
ATOM     15  O   UNL d   1      17.195 -21.717   0.563  0.00  0.00    -0.361 OA
ATOM     16  H   UNL d   1      17.096 -22.050  -0.344  0.00  0.00     0.217 HD
ENDBRANCH  10  15
BRANCH  12  17
ATOM     17  O   UNL d   1      20.570 -19.242  -1.649  0.00  0.00    -0.360 OA
ATOM     18  H   UNL d   1      21.144 -18.479  -1.483  0.00  0.00     0.217 HD
ENDBRANCH  12  17
ENDBRANCH   6   7
ENDBRANCH   3   5
BRANCH   1  19
ATOM     19  C   UNL d   1      25.758 -16.826  -0.253  0.00  0.00     0.137 C 
ATOM     20  C   UNL d   1      26.854 -17.491   0.591  0.00  0.00     0.031 C 
BRANCH  19  21
ATOM     21  S   UNL d   1      26.249 -16.668  -2.026  0.00  0.00    -0.150 SA
BRANCH  21  22
ATOM     22  C   UNL d   1      25.018 -15.483  -2.675  0.00  0.00     0.113 C 
BRANCH  22  23
ATOM     23  C   UNL d   1      25.698 -14.455  -3.554  0.00  0.00    -0.049 A 
ATOM     24  C   UNL d   1      24.952 -13.426  -4.154  0.00  0.00     0.008 A 
ATOM     25  C   UNL d   1      25.564 -12.517  -5.019  0.00  0.00     0.001 A 
ATOM     26  C   UNL d   1      26.938 -12.582  -5.239  0.00  0.00     0.000 A 
ATOM     27  C   UNL d   1      27.696 -13.572  -4.617  0.00  0.00     0.001 A 
ATOM     28  C   UNL d   1      27.080 -14.508  -3.784  0.00  0.00     0.008 A 
ENDBRANCH  22  23
ENDBRANCH  21  22
ENDBRANCH  19  21
ENDBRANCH   1  19
TORSDOF 9
ENDMDL
MODEL 7
REMARK VINA RESULT:    -7.670      0.694      1.901
REMARK INTER + INTRA:         -11.292
REMARK INTER:                 -10.355
REMARK INTRA:                  -0.937
REMARK CONF_INDEPENDENT:        2.685
REMARK UNBOUND:                -0.937
REMARK  9 active torsions:
REMARK  status: ('A' for Active; 'I' for Inactive)
REMARK    1  A    between atoms: C_2  and  S_3 
REMARK    2  A    between atoms: C_2  and  C_11 
REMARK    3  A    between atoms: S_3  and  C_4 
REMARK    4  A    between atoms: C_4  and  C_5 
REMARK       I    between atoms: C_11  and  N_13 
REMARK    5  A    between atoms: N_13  and  N_14 
REMARK    6  A    between atoms: C_15  and  C_16 
REMARK    7  A    between atoms: C_17  and  O_18 
REMARK    8  A    between atoms: C_20  and  O_21 
REMARK    9  A    between atoms: C_23  and  O_24 
ROOT
ATOM      1  C   UNL d   1      23.506 -16.680  -0.927  0.00  0.00     0.251 C 
ATOM      2  O   UNL d   1      22.619 -16.106  -0.279  0.00  0.00    -0.270 OA
ATOM      3  N   UNL d   1      23.364 -17.975  -1.431  0.00  0.00    -0.246 N 
ATOM      4  H   UNL d   1      24.110 -18.424  -1.949  0.00  0.00     0.192 HD
ENDROOT
BRANCH   3   5
ATOM      5  N   UNL d   1      22.217 -18.658  -1.125  0.00  0.00    -0.184 NA
ATOM      6  C   UNL d   1      21.765 -18.650   0.087  0.00  0.00     0.155 C 
BRANCH   6   7
ATOM      7  C   UNL d   1      20.548 -19.433   0.443  0.00  0.00     0.049 A 
ATOM      8  C   UNL d   1      20.229 -19.757   1.772  0.00  0.00     0.082 A 
ATOM      9  C   UNL d   1      19.105 -20.545   2.067  0.00  0.00     0.074 A 
ATOM     10  C   UNL d   1      18.262 -20.949   1.036  0.00  0.00     0.071 A 
ATOM     11  C   UNL d   1      18.560 -20.642  -0.285  0.00  0.00     0.074 A 
ATOM     12  C   UNL d   1      19.710 -19.904  -0.578  0.00  0.00     0.082 A 
BRANCH   8  13
ATOM     13  O   UNL d   1      20.943 -19.322   2.856  0.00  0.00    -0.360 OA
ATOM     14  H   UNL d   1      20.813 -19.934   3.600  0.00  0.00     0.217 HD
ENDBRANCH   8  13
BRANCH  10  15
ATOM     15  O   UNL d   1      17.117 -21.653   1.274  0.00  0.00    -0.361 OA
ATOM     16  H   UNL d   1      16.777 -22.008   0.437  0.00  0.00     0.217 HD
ENDBRANCH  10  15
BRANCH  12  17
ATOM     17  O   UNL d   1      20.047 -19.699  -1.888  0.00  0.00    -0.360 OA
ATOM     18  H   UNL d   1      20.830 -19.130  -1.943  0.00  0.00     0.217 HD
ENDBRANCH  12  17
ENDBRANCH   6   7
ENDBRANCH   3   5
BRANCH   1  19
ATOM     19  C   UNL d   1      24.838 -15.964  -1.255  0.00  0.00     0.137 C 
ATOM     20  C   UNL d   1      25.943 -17.009  -1.457  0.00  0.00     0.031 C 
BRANCH  19  21
ATOM     21  S   UNL d   1      24.578 -14.931  -2.763  0.00  0.00    -0.150 SA
BRANCH  21  22
ATOM     22  C   UNL d   1      25.906 -15.509  -3.877  0.00  0.00     0.113 C 
BRANCH  22  23
ATOM     23  C   UNL d   1      26.438 -14.354  -4.697  0.00  0.00    -0.049 A 
ATOM     24  C   UNL d   1      27.568 -14.522  -5.515  0.00  0.00     0.008 A 
ATOM     25  C   UNL d   1      28.102 -13.441  -6.219  0.00  0.00     0.001 A 
ATOM     26  C   UNL d   1      27.474 -12.200  -6.171  0.00  0.00     0.000 A 
ATOM     27  C   UNL d   1      26.327 -12.030  -5.397  0.00  0.00     0.001 A 
ATOM     28  C   UNL d   1      25.815 -13.098  -4.658  0.00  0.00     0.008 A 
ENDBRANCH  22  23
ENDBRANCH  21  22
ENDBRANCH  19  21
ENDBRANCH   1  19
TORSDOF 9
ENDMDL
MODEL 8
REMARK VINA RESULT:    -7.131      1.638      3.248
REMARK INTER + INTRA:         -10.783
REMARK INTER:                  -9.815
REMARK INTRA:                  -0.968
REMARK CONF_INDEPENDENT:        2.685
REMARK UNBOUND:                -0.968
REMARK  9 active torsions:
REMARK  status: ('A' for Active; 'I' for Inactive)
REMARK    1  A    between atoms: C_2  and  S_3 
REMARK    2  A    between atoms: C_2  and  C_11 
REMARK    3  A    between atoms: S_3  and  C_4 
REMARK    4  A    between atoms: C_4  and  C_5 
REMARK       I    between atoms: C_11  and  N_13 
REMARK    5  A    between atoms: N_13  and  N_14 
REMARK    6  A    between atoms: C_15  and  C_16 
REMARK    7  A    between atoms: C_17  and  O_18 
REMARK    8  A    between atoms: C_20  and  O_21 
REMARK    9  A    between atoms: C_23  and  O_24 
ROOT
ATOM      1  C   UNL d   1      23.728 -16.979  -0.820  0.00  0.00     0.251 C 
ATOM      2  O   UNL d   1      22.695 -16.327  -0.605  0.00  0.00    -0.270 OA
ATOM      3  N   UNL d   1      23.742 -18.372  -0.921  0.00  0.00    -0.246 N 
ATOM      4  H   UNL d   1      24.603 -18.880  -1.089  0.00  0.00     0.192 HD
ENDROOT
BRANCH   3   5
ATOM      5  N   UNL d   1      22.569 -19.041  -0.696  0.00  0.00    -0.184 NA
ATOM      6  C   UNL d   1      21.781 -18.661   0.257  0.00  0.00     0.155 C 
BRANCH   6   7
ATOM      7  C   UNL d   1      20.528 -19.413   0.547  0.00  0.00     0.049 A 
ATOM      8  C   UNL d   1      20.066 -19.622   1.856  0.00  0.00     0.082 A 
ATOM      9  C   UNL d   1      18.911 -20.384   2.095  0.00  0.00     0.074 A 
ATOM     10  C   UNL d   1      18.182 -20.880   1.018  0.00  0.00     0.071 A 
ATOM     11  C   UNL d   1      18.623 -20.689  -0.285  0.00  0.00     0.074 A 
ATOM     12  C   UNL d   1      19.802 -19.975  -0.515  0.00  0.00     0.082 A 
BRANCH   8  13
ATOM     13  O   UNL d   1      20.660 -19.091   2.968  0.00  0.00    -0.360 OA
ATOM     14  H   UNL d   1      20.651 -18.120   2.913  0.00  0.00     0.217 HD
ENDBRANCH   8  13
BRANCH  10  15
ATOM     15  O   UNL d   1      17.014 -21.564   1.192  0.00  0.00    -0.361 OA
ATOM     16  H   UNL d   1      16.780 -22.017   0.365  0.00  0.00     0.217 HD
ENDBRANCH  10  15
BRANCH  12  17
ATOM     17  O   UNL d   1      20.281 -19.884  -1.793  0.00  0.00    -0.360 OA
ATOM     18  H   UNL d   1      21.234 -19.707  -1.779  0.00  0.00     0.217 HD
ENDBRANCH  12  17
ENDBRANCH   6   7
ENDBRANCH   3   5
BRANCH   1  19
ATOM     19  C   UNL d   1      25.085 -16.267  -1.034  0.00  0.00     0.137 C 
ATOM     20  C   UNL d   1      26.227 -17.235  -0.699  0.00  0.00     0.031 C 
BRANCH  19  21
ATOM     21  S   UNL d   1      25.159 -15.686  -2.785  0.00  0.00    -0.150 SA
BRANCH  21  22
ATOM     22  C   UNL d   1      26.821 -14.931  -2.884  0.00  0.00     0.113 C 
BRANCH  22  23
ATOM     23  C   UNL d   1      27.252 -14.438  -1.520  0.00  0.00    -0.049 A 
ATOM     24  C   UNL d   1      28.379 -14.988  -0.888  0.00  0.00     0.008 A 
ATOM     25  C   UNL d   1      28.739 -14.585   0.399  0.00  0.00     0.001 A 
ATOM     26  C   UNL d   1      28.020 -13.579   1.041  0.00  0.00     0.000 A 
ATOM     27  C   UNL d   1      26.924 -12.996   0.408  0.00  0.00     0.001 A 
ATOM     28  C   UNL d   1      26.537 -13.427  -0.863  0.00  0.00     0.008 A 
ENDBRANCH  22  23
ENDBRANCH  21  22
ENDBRANCH  19  21
ENDBRANCH   1  19
TORSDOF 9
ENDMDL
MODEL 9
REMARK VINA RESULT:    -6.888      3.433     10.290
REMARK INTER + INTRA:         -10.725
REMARK INTER:                  -9.572
REMARK INTRA:                  -1.153
REMARK CONF_INDEPENDENT:        2.685
REMARK UNBOUND:                -1.153
REMARK  9 active torsions:
REMARK  status: ('A' for Active; 'I' for Inactive)
REMARK    1  A    between atoms: C_2  and  S_3 
REMARK    2  A    between atoms: C_2  and  C_11 
REMARK    3  A    between atoms: S_3  and  C_4 
REMARK    4  A    between atoms: C_4  and  C_5 
REMARK       I    between atoms: C_11  and  N_13 
REMARK    5  A    between atoms: N_13  and  N_14 
REMARK    6  A    between atoms: C_15  and  C_16 
REMARK    7  A    between atoms: C_17  and  O_18 
REMARK    8  A    between atoms: C_20  and  O_21 
REMARK    9  A    between atoms: C_23  and  O_24 
ROOT
ATOM      1  C   UNL d   1      24.720 -17.413  -0.678  0.00  0.00     0.251 C 
ATOM      2  O   UNL d   1      25.654 -17.928  -0.046  0.00  0.00    -0.270 OA
ATOM      3  N   UNL d   1      24.910 -16.669  -1.845  0.00  0.00    -0.246 N 
ATOM      4  H   UNL d   1      24.129 -16.251  -2.338  0.00  0.00     0.192 HD
ENDROOT
BRANCH   3   5
ATOM      5  N   UNL d   1      26.196 -16.443  -2.258  0.00  0.00    -0.184 NA
ATOM      6  C   UNL d   1      26.433 -15.575  -3.187  0.00  0.00     0.155 C 
BRANCH   6   7
ATOM      7  C   UNL d   1      27.822 -15.358  -3.681  0.00  0.00     0.049 A 
ATOM      8  C   UNL d   1      28.918 -15.251  -2.811  0.00  0.00     0.082 A 
ATOM      9  C   UNL d   1      30.205 -14.990  -3.307  0.00  0.00     0.074 A 
ATOM     10  C   UNL d   1      30.404 -14.903  -4.682  0.00  0.00     0.071 A 
ATOM     11  C   UNL d   1      29.333 -15.003  -5.561  0.00  0.00     0.074 A 
ATOM     12  C   UNL d   1      28.046 -15.209  -5.058  0.00  0.00     0.082 A 
BRANCH   8  13
ATOM     13  O   UNL d   1      28.834 -15.419  -1.455  0.00  0.00    -0.360 OA
ATOM     14  H   UNL d   1      27.941 -15.718  -1.217  0.00  0.00     0.217 HD
ENDBRANCH   8  13
BRANCH  10  15
ATOM     15  O   UNL d   1      31.644 -14.724  -5.222  0.00  0.00    -0.361 OA
ATOM     16  H   UNL d   1      32.135 -14.073  -4.693  0.00  0.00     0.217 HD
ENDBRANCH  10  15
BRANCH  12  17
ATOM     17  O   UNL d   1      26.988 -15.200  -5.926  0.00  0.00    -0.360 OA
ATOM     18  H   UNL d   1      26.303 -14.593  -5.607  0.00  0.00     0.217 HD
ENDBRANCH  12  17
ENDBRANCH   6   7
ENDBRANCH   3   5
BRANCH   1  19
ATOM     19  C   UNL d   1      23.254 -17.602  -0.222  0.00  0.00     0.137 C 
ATOM     20  C   UNL d   1      22.458 -16.325  -0.520  0.00  0.00     0.031 C 
BRANCH  19  21
ATOM     21  S   UNL d   1      22.564 -19.070  -1.104  0.00  0.00    -0.150 SA
BRANCH  21  22
ATOM     22  C   UNL d   1      20.769 -18.724  -1.110  0.00  0.00     0.113 C 
BRANCH  22  23
ATOM     23  C   UNL d   1      20.089 -19.474   0.015  0.00  0.00    -0.049 A 
ATOM     24  C   UNL d   1      18.979 -20.295  -0.245  0.00  0.00     0.008 A 
ATOM     25  C   UNL d   1      18.308 -20.933   0.800  0.00  0.00     0.001 A 
ATOM     26  C   UNL d   1      18.780 -20.816   2.105  0.00  0.00     0.000 A 
ATOM     27  C   UNL d   1      19.905 -20.038   2.371  0.00  0.00     0.001 A 
ATOM     28  C   UNL d   1      20.553 -19.365   1.334  0.00  0.00     0.008 A 
ENDBRANCH  22  23
ENDBRANCH  21  22
ENDBRANCH  19  21
ENDBRANCH   1  19
TORSDOF 9
ENDMDL
