MODEL 1
REMARK VINA RESULT:    -8.183      0.000      0.000
REMARK INTER + INTRA:         -12.292
REMARK INTER:                 -11.166
REMARK INTRA:                  -1.126
REMARK CONF_INDEPENDENT:        2.983
REMARK UNBOUND:                -1.126
REMARK  10 active torsions:
REMARK  status: ('A' for Active; 'I' for Inactive)
REMARK    1  A    between atoms: C_2  and  C_3 
REMARK       I    between atoms: C_2  and  N_15 
REMARK    2  A    between atoms: C_3  and  C_4 
REMARK    3  A    between atoms: C_4  and  C_5 
REMARK    4  A    between atoms: C_5  and  O_6 
REMARK    5  A    between atoms: O_6  and  C_7 
REMARK    6  A    between atoms: N_15  and  C_16 
REMARK    7  A    between atoms: C_16  and  N_18 
REMARK    8  A    between atoms: N_18  and  C_19 
REMARK    9  A    between atoms: C_22  and  N_23 
REMARK   10  A    between atoms: C_27  and  O_28 
ROOT
ATOM      1  O   UNL d   1      24.625 -14.063  -3.987  0.00  0.00    -0.273 OA
ATOM      2  C   UNL d   1      25.493 -13.240  -3.698  0.00  0.00     0.223 C 
ATOM      3  N   UNL d   1      25.525 -11.981  -4.331  0.00  0.00    -0.304 N 
ATOM      4  H   UNL d   1      24.799 -11.931  -5.037  0.00  0.00     0.171 HD
ENDROOT
BRANCH   3   5
ATOM      5  C   UNL d   1      26.281 -10.807  -4.080  0.00  0.00     0.178 C 
ATOM      6  S   UNL d   1      26.331  -9.454  -5.106  0.00  0.00    -0.040 SA
BRANCH   5   7
ATOM      7  N   UNL d   1      27.041 -10.870  -2.889  0.00  0.00    -0.331 N 
ATOM      8  H   UNL d   1      27.956 -11.304  -2.924  0.00  0.00     0.168 HD
BRANCH   7   9
ATOM      9  C   UNL d   1      26.817  -9.924  -1.830  0.00  0.00     0.068 A 
ATOM     10  C   UNL d   1      25.907  -8.870  -1.981  0.00  0.00     0.035 A 
ATOM     11  C   UNL d   1      25.561  -8.080  -0.866  0.00  0.00     0.038 A 
ATOM     12  C   UNL d   1      26.124  -8.349   0.396  0.00  0.00     0.105 A 
ATOM     13  C   UNL d   1      27.046  -9.384   0.552  0.00  0.00     0.075 A 
ATOM     14  C   UNL d   1      27.419 -10.118  -0.569  0.00  0.00     0.094 A 
BRANCH  12  15
ATOM     15  N   UNL d   1      25.789  -7.503   1.551  0.00  0.00    -0.116 N 
ATOM     16  O   UNL d   1      25.155  -6.466   1.347  0.00  0.00    -0.532 OA
ATOM     17  O   UNL d   1      26.184  -7.880   2.672  0.00  0.00    -0.532 OA
ENDBRANCH  12  15
BRANCH  14  18
ATOM     18  O   UNL d   1      28.424 -11.046  -0.447  0.00  0.00    -0.358 OA
ATOM     19  H   UNL d   1      29.238 -10.666  -0.816  0.00  0.00     0.217 HD
ENDBRANCH  14  18
ENDBRANCH   7   9
ENDBRANCH   5   7
ENDBRANCH   3   5
BRANCH   2  20
ATOM     20  C   UNL d   1      26.569 -13.512  -2.667  0.00  0.00     0.105 C 
BRANCH  20  21
ATOM     21  C   UNL d   1      27.273 -14.847  -2.673  0.00  0.00     0.036 C 
BRANCH  21  22
ATOM     22  C   UNL d   1      26.255 -15.962  -2.392  0.00  0.00     0.176 C 
BRANCH  22  23
ATOM     23  O   UNL d   1      25.718 -15.726  -1.088  0.00  0.00    -0.349 OA
BRANCH  23  24
ATOM     24  C   UNL d   1      24.641 -16.513  -0.780  0.00  0.00     0.090 A 
ATOM     25  C   UNL d   1      23.347 -16.174  -1.183  0.00  0.00     0.040 A 
ATOM     26  C   UNL d   1      22.280 -17.031  -0.895  0.00  0.00     0.026 A 
ATOM     27  C   UNL d   1      22.513 -18.228  -0.219  0.00  0.00     0.035 A 
ATOM     28 CL   UNL d   1      21.191 -19.267   0.149  0.00  0.00    -0.084 Cl
ATOM     29  C   UNL d   1      23.803 -18.590   0.157  0.00  0.00     0.050 A 
ATOM     30  C   UNL d   1      24.868 -17.737  -0.135  0.00  0.00     0.069 A 
ATOM     31 CL   UNL d   1      26.460 -18.219   0.331  0.00  0.00    -0.081 Cl
ENDBRANCH  23  24
ENDBRANCH  22  23
ENDBRANCH  21  22
ENDBRANCH  20  21
ENDBRANCH   2  20
TORSDOF 10
ENDMDL
MODEL 2
REMARK VINA RESULT:    -7.666      4.583      5.718
REMARK INTER + INTRA:         -12.039
REMARK INTER:                 -10.649
REMARK INTRA:                  -1.390
REMARK CONF_INDEPENDENT:        2.983
REMARK UNBOUND:                -1.390
REMARK  10 active torsions:
REMARK  status: ('A' for Active; 'I' for Inactive)
REMARK    1  A    between atoms: C_2  and  C_3 
REMARK       I    between atoms: C_2  and  N_15 
REMARK    2  A    between atoms: C_3  and  C_4 
REMARK    3  A    between atoms: C_4  and  C_5 
REMARK    4  A    between atoms: C_5  and  O_6 
REMARK    5  A    between atoms: O_6  and  C_7 
REMARK    6  A    between atoms: N_15  and  C_16 
REMARK    7  A    between atoms: C_16  and  N_18 
REMARK    8  A    between atoms: N_18  and  C_19 
REMARK    9  A    between atoms: C_22  and  N_23 
REMARK   10  A    between atoms: C_27  and  O_28 
ROOT
ATOM      1  O   UNL d   1      31.377 -14.285   1.941  0.00  0.00    -0.273 OA
ATOM      2  C   UNL d   1      30.331 -14.282   2.590  0.00  0.00     0.223 C 
ATOM      3  N   UNL d   1      30.358 -14.121   3.990  0.00  0.00    -0.304 N 
ATOM      4  H   UNL d   1      31.317 -14.076   4.315  0.00  0.00     0.171 HD
ENDROOT
BRANCH   3   5
ATOM      5  C   UNL d   1      29.330 -13.910   4.944  0.00  0.00     0.178 C 
ATOM      6  S   UNL d   1      28.219 -15.093   5.444  0.00  0.00    -0.040 SA
BRANCH   5   7
ATOM      7  N   UNL d   1      29.279 -12.584   5.434  0.00  0.00    -0.331 N 
ATOM      8  H   UNL d   1      29.992 -12.284   6.088  0.00  0.00     0.168 HD
BRANCH   7   9
ATOM      9  C   UNL d   1      28.624 -11.552   4.677  0.00  0.00     0.068 A 
ATOM     10  C   UNL d   1      27.794 -11.864   3.594  0.00  0.00     0.035 A 
ATOM     11  C   UNL d   1      27.012 -10.854   2.997  0.00  0.00     0.038 A 
ATOM     12  C   UNL d   1      27.062  -9.536   3.489  0.00  0.00     0.105 A 
ATOM     13  C   UNL d   1      27.901  -9.211   4.555  0.00  0.00     0.075 A 
ATOM     14  C   UNL d   1      28.706 -10.207   5.096  0.00  0.00     0.094 A 
BRANCH  12  15
ATOM     15  N   UNL d   1      26.273  -8.476   2.845  0.00  0.00    -0.116 N 
ATOM     16  O   UNL d   1      26.462  -7.312   3.203  0.00  0.00    -0.532 OA
ATOM     17  O   UNL d   1      25.444  -8.823   1.981  0.00  0.00    -0.532 OA
ENDBRANCH  12  15
BRANCH  14  18
ATOM     18  O   UNL d   1      29.630  -9.863   6.053  0.00  0.00    -0.358 OA
ATOM     19  H   UNL d   1      29.248 -10.050   6.927  0.00  0.00     0.217 HD
ENDBRANCH  14  18
ENDBRANCH   7   9
ENDBRANCH   5   7
ENDBRANCH   3   5
BRANCH   2  20
ATOM     20  C   UNL d   1      28.969 -14.449   1.948  0.00  0.00     0.105 C 
BRANCH  20  21
ATOM     21  C   UNL d   1      28.883 -14.735   0.469  0.00  0.00     0.036 C 
BRANCH  21  22
ATOM     22  C   UNL d   1      28.377 -16.169   0.254  0.00  0.00     0.176 C 
BRANCH  22  23
ATOM     23  O   UNL d   1      27.600 -16.169  -0.946  0.00  0.00    -0.349 OA
BRANCH  23  24
ATOM     24  C   UNL d   1      26.368 -16.751  -0.811  0.00  0.00     0.090 A 
ATOM     25  C   UNL d   1      26.097 -17.661   0.214  0.00  0.00     0.040 A 
ATOM     26  C   UNL d   1      24.811 -18.193   0.351  0.00  0.00     0.026 A 
ATOM     27  C   UNL d   1      23.800 -17.803  -0.527  0.00  0.00     0.035 A 
ATOM     28 CL   UNL d   1      22.225 -18.478  -0.363  0.00  0.00    -0.084 Cl
ATOM     29  C   UNL d   1      24.053 -16.872  -1.531  0.00  0.00     0.050 A 
ATOM     30  C   UNL d   1      25.335 -16.337  -1.663  0.00  0.00     0.069 A 
ATOM     31 CL   UNL d   1      25.616 -15.174  -2.908  0.00  0.00    -0.081 Cl
ENDBRANCH  23  24
ENDBRANCH  22  23
ENDBRANCH  21  22
ENDBRANCH  20  21
ENDBRANCH   2  20
TORSDOF 10
ENDMDL
MODEL 3
REMARK VINA RESULT:    -7.094      4.448      5.487
REMARK INTER + INTRA:         -13.272
REMARK INTER:                 -10.077
REMARK INTRA:                  -3.195
REMARK CONF_INDEPENDENT:        2.983
REMARK UNBOUND:                -3.195
REMARK  10 active torsions:
REMARK  status: ('A' for Active; 'I' for Inactive)
REMARK    1  A    between atoms: C_2  and  C_3 
REMARK       I    between atoms: C_2  and  N_15 
REMARK    2  A    between atoms: C_3  and  C_4 
REMARK    3  A    between atoms: C_4  and  C_5 
REMARK    4  A    between atoms: C_5  and  O_6 
REMARK    5  A    between atoms: O_6  and  C_7 
REMARK    6  A    between atoms: N_15  and  C_16 
REMARK    7  A    between atoms: C_16  and  N_18 
REMARK    8  A    between atoms: N_18  and  C_19 
REMARK    9  A    between atoms: C_22  and  N_23 
REMARK   10  A    between atoms: C_27  and  O_28 
ROOT
ATOM      1  O   UNL d   1      32.589 -13.872   1.904  0.00  0.00    -0.273 OA
ATOM      2  C   UNL d   1      31.385 -14.103   2.016  0.00  0.00     0.223 C 
ATOM      3  N   UNL d   1      30.814 -14.334   3.284  0.00  0.00    -0.304 N 
ATOM      4  H   UNL d   1      31.538 -14.328   3.994  0.00  0.00     0.171 HD
ENDROOT
BRANCH   3   5
ATOM      5  C   UNL d   1      29.468 -14.448   3.717  0.00  0.00     0.178 C 
ATOM      6  S   UNL d   1      28.989 -15.068   5.224  0.00  0.00    -0.040 SA
BRANCH   5   7
ATOM      7  N   UNL d   1      28.527 -14.027   2.749  0.00  0.00    -0.331 N 
ATOM      8  H   UNL d   1      28.055 -14.733   2.197  0.00  0.00     0.168 HD
BRANCH   7   9
ATOM      9  C   UNL d   1      27.858 -12.762   2.885  0.00  0.00     0.068 A 
ATOM     10  C   UNL d   1      28.305 -11.801   3.799  0.00  0.00     0.035 A 
ATOM     11  C   UNL d   1      27.758 -10.502   3.773  0.00  0.00     0.038 A 
ATOM     12  C   UNL d   1      26.768 -10.169   2.829  0.00  0.00     0.105 A 
ATOM     13  C   UNL d   1      26.302 -11.125   1.927  0.00  0.00     0.075 A 
ATOM     14  C   UNL d   1      26.812 -12.417   2.003  0.00  0.00     0.094 A 
BRANCH  12  15
ATOM     15  N   UNL d   1      26.173  -8.824   2.824  0.00  0.00    -0.116 N 
ATOM     16  O   UNL d   1      25.246  -8.602   2.044  0.00  0.00    -0.532 OA
ATOM     17  O   UNL d   1      26.657  -7.981   3.605  0.00  0.00    -0.532 OA
ENDBRANCH  12  15
BRANCH  14  18
ATOM     18  O   UNL d   1      26.261 -13.393   1.209  0.00  0.00    -0.358 OA
ATOM     19  H   UNL d   1      26.983 -13.883   0.782  0.00  0.00     0.217 HD
ENDBRANCH  14  18
ENDBRANCH   7   9
ENDBRANCH   5   7
ENDBRANCH   3   5
BRANCH   2  20
ATOM     20  C   UNL d   1      30.448 -14.159   0.827  0.00  0.00     0.105 C 
BRANCH  20  21
ATOM     21  C   UNL d   1      30.531 -15.331  -0.121  0.00  0.00     0.036 C 
BRANCH  21  22
ATOM     22  C   UNL d   1      29.383 -16.308   0.173  0.00  0.00     0.176 C 
BRANCH  22  23
ATOM     23  O   UNL d   1      28.172 -15.549   0.175  0.00  0.00    -0.349 OA
BRANCH  23  24
ATOM     24  C   UNL d   1      27.049 -16.294  -0.067  0.00  0.00     0.090 A 
ATOM     25  C   UNL d   1      26.803 -17.490   0.613  0.00  0.00     0.040 A 
ATOM     26  C   UNL d   1      25.619 -18.196   0.376  0.00  0.00     0.026 A 
ATOM     27  C   UNL d   1      24.682 -17.697  -0.528  0.00  0.00     0.035 A 
ATOM     28 CL   UNL d   1      23.236 -18.582  -0.828  0.00  0.00    -0.084 Cl
ATOM     29  C   UNL d   1      24.903 -16.490  -1.185  0.00  0.00     0.050 A 
ATOM     30  C   UNL d   1      26.082 -15.784  -0.944  0.00  0.00     0.069 A 
ATOM     31 CL   UNL d   1      26.324 -14.282  -1.764  0.00  0.00    -0.081 Cl
ENDBRANCH  23  24
ENDBRANCH  22  23
ENDBRANCH  21  22
ENDBRANCH  20  21
ENDBRANCH   2  20
TORSDOF 10
ENDMDL
MODEL 4
REMARK VINA RESULT:    -6.544      3.669      4.465
REMARK INTER + INTRA:         -12.652
REMARK INTER:                  -9.527
REMARK INTRA:                  -3.125
REMARK CONF_INDEPENDENT:        2.983
REMARK UNBOUND:                -3.125
REMARK  10 active torsions:
REMARK  status: ('A' for Active; 'I' for Inactive)
REMARK    1  A    between atoms: C_2  and  C_3 
REMARK       I    between atoms: C_2  and  N_15 
REMARK    2  A    between atoms: C_3  and  C_4 
REMARK    3  A    between atoms: C_4  and  C_5 
REMARK    4  A    between atoms: C_5  and  O_6 
REMARK    5  A    between atoms: O_6  and  C_7 
REMARK    6  A    between atoms: N_15  and  C_16 
REMARK    7  A    between atoms: C_16  and  N_18 
REMARK    8  A    between atoms: N_18  and  C_19 
REMARK    9  A    between atoms: C_22  and  N_23 
REMARK   10  A    between atoms: C_27  and  O_28 
ROOT
ATOM      1  O   UNL d   1      29.414 -14.045  -2.356  0.00  0.00    -0.273 OA
ATOM      2  C   UNL d   1      29.825 -14.588  -1.331  0.00  0.00     0.223 C 
ATOM      3  N   UNL d   1      29.718 -13.940  -0.084  0.00  0.00    -0.304 N 
ATOM      4  H   UNL d   1      29.330 -13.012  -0.209  0.00  0.00     0.171 HD
ENDROOT
BRANCH   3   5
ATOM      5  C   UNL d   1      29.941 -14.386   1.244  0.00  0.00     0.178 C 
ATOM      6  S   UNL d   1      31.452 -14.853   1.864  0.00  0.00    -0.040 SA
BRANCH   5   7
ATOM      7  N   UNL d   1      28.762 -14.448   2.023  0.00  0.00    -0.331 N 
ATOM      8  H   UNL d   1      28.666 -15.204   2.691  0.00  0.00     0.168 HD
BRANCH   7   9
ATOM      9  C   UNL d   1      27.993 -13.261   2.278  0.00  0.00     0.068 A 
ATOM     10  C   UNL d   1      28.005 -12.645   3.535  0.00  0.00     0.035 A 
ATOM     11  C   UNL d   1      27.405 -11.381   3.702  0.00  0.00     0.038 A 
ATOM     12  C   UNL d   1      26.798 -10.735   2.607  0.00  0.00     0.105 A 
ATOM     13  C   UNL d   1      26.764 -11.348   1.355  0.00  0.00     0.075 A 
ATOM     14  C   UNL d   1      27.311 -12.620   1.221  0.00  0.00     0.094 A 
BRANCH  12  15
ATOM     15  N   UNL d   1      26.142  -9.432   2.789  0.00  0.00    -0.116 N 
ATOM     16  O   UNL d   1      25.132  -9.193   2.125  0.00  0.00    -0.532 OA
ATOM     17  O   UNL d   1      26.661  -8.637   3.597  0.00  0.00    -0.532 OA
ENDBRANCH  12  15
BRANCH  14  18
ATOM     18  O   UNL d   1      27.161 -13.282   0.027  0.00  0.00    -0.358 OA
ATOM     19  H   UNL d   1      27.427 -14.208   0.156  0.00  0.00     0.217 HD
ENDBRANCH  14  18
ENDBRANCH   7   9
ENDBRANCH   5   7
ENDBRANCH   3   5
BRANCH   2  20
ATOM     20  C   UNL d   1      30.465 -15.961  -1.333  0.00  0.00     0.105 C 
BRANCH  20  21
ATOM     21  C   UNL d   1      29.582 -17.185  -1.378  0.00  0.00     0.036 C 
BRANCH  21  22
ATOM     22  C   UNL d   1      28.591 -17.143  -0.205  0.00  0.00     0.176 C 
BRANCH  22  23
ATOM     23  O   UNL d   1      27.559 -16.218  -0.554  0.00  0.00    -0.349 OA
BRANCH  23  24
ATOM     24  C   UNL d   1      26.306 -16.768  -0.581  0.00  0.00     0.090 A 
ATOM     25  C   UNL d   1      25.952 -17.826   0.260  0.00  0.00     0.040 A 
ATOM     26  C   UNL d   1      24.646 -18.325   0.240  0.00  0.00     0.026 A 
ATOM     27  C   UNL d   1      23.698 -17.757  -0.608  0.00  0.00     0.035 A 
ATOM     28 CL   UNL d   1      22.098 -18.391  -0.640  0.00  0.00    -0.084 Cl
ATOM     29  C   UNL d   1      24.031 -16.681  -1.426  0.00  0.00     0.050 A 
ATOM     30  C   UNL d   1      25.333 -16.179  -1.402  0.00  0.00     0.069 A 
ATOM     31 CL   UNL d   1      25.716 -14.834  -2.416  0.00  0.00    -0.081 Cl
ENDBRANCH  23  24
ENDBRANCH  22  23
ENDBRANCH  21  22
ENDBRANCH  20  21
ENDBRANCH   2  20
TORSDOF 10
ENDMDL
MODEL 5
REMARK VINA RESULT:    -6.536      4.631      5.909
REMARK INTER + INTRA:         -12.036
REMARK INTER:                  -9.519
REMARK INTRA:                  -2.516
REMARK CONF_INDEPENDENT:        2.983
REMARK UNBOUND:                -2.516
REMARK  10 active torsions:
REMARK  status: ('A' for Active; 'I' for Inactive)
REMARK    1  A    between atoms: C_2  and  C_3 
REMARK       I    between atoms: C_2  and  N_15 
REMARK    2  A    between atoms: C_3  and  C_4 
REMARK    3  A    between atoms: C_4  and  C_5 
REMARK    4  A    between atoms: C_5  and  O_6 
REMARK    5  A    between atoms: O_6  and  C_7 
REMARK    6  A    between atoms: N_15  and  C_16 
REMARK    7  A    between atoms: C_16  and  N_18 
REMARK    8  A    between atoms: N_18  and  C_19 
REMARK    9  A    between atoms: C_22  and  N_23 
REMARK   10  A    between atoms: C_27  and  O_28 
ROOT
ATOM      1  O   UNL d   1      32.280 -14.284   1.878  0.00  0.00    -0.273 OA
ATOM      2  C   UNL d   1      31.104 -14.483   2.186  0.00  0.00     0.223 C 
ATOM      3  N   UNL d   1      30.697 -14.423   3.534  0.00  0.00    -0.304 N 
ATOM      4  H   UNL d   1      31.500 -14.259   4.131  0.00  0.00     0.171 HD
ENDROOT
BRANCH   3   5
ATOM      5  C   UNL d   1      29.416 -14.436   4.144  0.00  0.00     0.178 C 
ATOM      6  S   UNL d   1      29.131 -14.777   5.783  0.00  0.00    -0.040 SA
BRANCH   5   7
ATOM      7  N   UNL d   1      28.359 -14.172   3.241  0.00  0.00    -0.331 N 
ATOM      8  H   UNL d   1      27.830 -14.955   2.876  0.00  0.00     0.168 HD
BRANCH   7   9
ATOM      9  C   UNL d   1      27.700 -12.894   3.245  0.00  0.00     0.068 A 
ATOM     10  C   UNL d   1      28.019 -11.918   4.197  0.00  0.00     0.035 A 
ATOM     11  C   UNL d   1      27.505 -10.612   4.059  0.00  0.00     0.038 A 
ATOM     12  C   UNL d   1      26.678 -10.288   2.967  0.00  0.00     0.105 A 
ATOM     13  C   UNL d   1      26.339 -11.259   2.024  0.00  0.00     0.075 A 
ATOM     14  C   UNL d   1      26.808 -12.555   2.206  0.00  0.00     0.094 A 
BRANCH  12  15
ATOM     15  N   UNL d   1      26.114  -8.936   2.842  0.00  0.00    -0.116 N 
ATOM     16  O   UNL d   1      25.156  -8.773   2.084  0.00  0.00    -0.532 OA
ATOM     17  O   UNL d   1      26.655  -8.026   3.502  0.00  0.00    -0.532 OA
ENDBRANCH  12  15
BRANCH  14  18
ATOM     18  O   UNL d   1      26.369 -13.542   1.358  0.00  0.00    -0.358 OA
ATOM     19  H   UNL d   1      27.065 -14.217   1.286  0.00  0.00     0.217 HD
ENDBRANCH  14  18
ENDBRANCH   7   9
ENDBRANCH   5   7
ENDBRANCH   3   5
BRANCH   2  20
ATOM     20  C   UNL d   1      30.033 -14.803   1.163  0.00  0.00     0.105 C 
BRANCH  20  21
ATOM     21  C   UNL d   1      30.321 -15.827   0.093  0.00  0.00     0.036 C 
BRANCH  21  22
ATOM     22  C   UNL d   1      29.073 -16.694  -0.133  0.00  0.00     0.176 C 
BRANCH  22  23
ATOM     23  O   UNL d   1      27.946 -15.939   0.319  0.00  0.00    -0.349 OA
BRANCH  23  24
ATOM     24  C   UNL d   1      27.212 -15.378  -0.691  0.00  0.00     0.090 A 
ATOM     25  C   UNL d   1      27.690 -14.289  -1.425  0.00  0.00     0.040 A 
ATOM     26  C   UNL d   1      26.933 -13.777  -2.484  0.00  0.00     0.026 A 
ATOM     27  C   UNL d   1      25.712 -14.364  -2.813  0.00  0.00     0.035 A 
ATOM     28 CL   UNL d   1      24.779 -13.716  -4.106  0.00  0.00    -0.084 Cl
ATOM     29  C   UNL d   1      25.244 -15.470  -2.109  0.00  0.00     0.050 A 
ATOM     30  C   UNL d   1      26.002 -15.983  -1.056  0.00  0.00     0.069 A 
ATOM     31 CL   UNL d   1      25.403 -17.365  -0.208  0.00  0.00    -0.081 Cl
ENDBRANCH  23  24
ENDBRANCH  22  23
ENDBRANCH  21  22
ENDBRANCH  20  21
ENDBRANCH   2  20
TORSDOF 10
ENDMDL
MODEL 6
REMARK VINA RESULT:    -6.281      5.022      8.272
REMARK INTER + INTRA:         -11.663
REMARK INTER:                  -9.264
REMARK INTRA:                  -2.398
REMARK CONF_INDEPENDENT:        2.983
REMARK UNBOUND:                -2.398
REMARK  10 active torsions:
REMARK  status: ('A' for Active; 'I' for Inactive)
REMARK    1  A    between atoms: C_2  and  C_3 
REMARK       I    between atoms: C_2  and  N_15 
REMARK    2  A    between atoms: C_3  and  C_4 
REMARK    3  A    between atoms: C_4  and  C_5 
REMARK    4  A    between atoms: C_5  and  O_6 
REMARK    5  A    between atoms: O_6  and  C_7 
REMARK    6  A    between atoms: N_15  and  C_16 
REMARK    7  A    between atoms: C_16  and  N_18 
REMARK    8  A    between atoms: N_18  and  C_19 
REMARK    9  A    between atoms: C_22  and  N_23 
REMARK   10  A    between atoms: C_27  and  O_28 
ROOT
ATOM      1  O   UNL d   1      30.940 -14.687   1.676  0.00  0.00    -0.273 OA
ATOM      2  C   UNL d   1      30.091 -14.754   0.787  0.00  0.00     0.223 C 
ATOM      3  N   UNL d   1      29.349 -15.937   0.593  0.00  0.00    -0.304 N 
ATOM      4  H   UNL d   1      29.672 -16.656   1.230  0.00  0.00     0.171 HD
ENDROOT
BRANCH   3   5
ATOM      5  C   UNL d   1      28.221 -16.233  -0.215  0.00  0.00     0.178 C 
ATOM      6  S   UNL d   1      28.299 -16.728  -1.837  0.00  0.00    -0.040 SA
BRANCH   5   7
ATOM      7  N   UNL d   1      26.987 -16.041   0.449  0.00  0.00    -0.331 N 
ATOM      8  H   UNL d   1      26.864 -15.202   1.004  0.00  0.00     0.168 HD
BRANCH   7   9
ATOM      9  C   UNL d   1      25.791 -16.672  -0.038  0.00  0.00     0.068 A 
ATOM     10  C   UNL d   1      25.382 -17.920   0.447  0.00  0.00     0.035 A 
ATOM     11  C   UNL d   1      24.111 -18.424   0.101  0.00  0.00     0.038 A 
ATOM     12  C   UNL d   1      23.253 -17.673  -0.726  0.00  0.00     0.105 A 
ATOM     13  C   UNL d   1      23.659 -16.437  -1.229  0.00  0.00     0.075 A 
ATOM     14  C   UNL d   1      24.937 -15.981  -0.924  0.00  0.00     0.094 A 
BRANCH  12  15
ATOM     15  N   UNL d   1      21.942 -18.213  -1.114  0.00  0.00    -0.116 N 
ATOM     16  O   UNL d   1      21.906 -19.324  -1.645  0.00  0.00    -0.532 OA
ATOM     17  O   UNL d   1      20.941 -17.502  -0.895  0.00  0.00    -0.532 OA
ENDBRANCH  12  15
BRANCH  14  18
ATOM     18  O   UNL d   1      25.390 -14.833  -1.526  0.00  0.00    -0.358 OA
ATOM     19  H   UNL d   1      26.356 -14.893  -1.611  0.00  0.00     0.217 HD
ENDBRANCH  14  18
ENDBRANCH   7   9
ENDBRANCH   5   7
ENDBRANCH   3   5
BRANCH   2  20
ATOM     20  C   UNL d   1      29.788 -13.599  -0.146  0.00  0.00     0.105 C 
BRANCH  20  21
ATOM     21  C   UNL d   1      28.368 -13.100  -0.261  0.00  0.00     0.036 C 
BRANCH  21  22
ATOM     22  C   UNL d   1      27.993 -12.328   1.013  0.00  0.00     0.176 C 
BRANCH  22  23
ATOM     23  O   UNL d   1      27.143 -13.177   1.788  0.00  0.00    -0.349 OA
BRANCH  23  24
ATOM     24  C   UNL d   1      27.590 -13.396   3.063  0.00  0.00     0.090 A 
ATOM     25  C   UNL d   1      28.039 -14.654   3.476  0.00  0.00     0.040 A 
ATOM     26  C   UNL d   1      28.538 -14.825   4.771  0.00  0.00     0.026 A 
ATOM     27  C   UNL d   1      28.598 -13.738   5.642  0.00  0.00     0.035 A 
ATOM     28 CL   UNL d   1      29.195 -13.962   7.241  0.00  0.00    -0.084 Cl
ATOM     29  C   UNL d   1      28.184 -12.475   5.229  0.00  0.00     0.050 A 
ATOM     30  C   UNL d   1      27.691 -12.303   3.935  0.00  0.00     0.069 A 
ATOM     31 CL   UNL d   1      27.197 -10.722   3.445  0.00  0.00    -0.081 Cl
ENDBRANCH  23  24
ENDBRANCH  22  23
ENDBRANCH  21  22
ENDBRANCH  20  21
ENDBRANCH   2  20
TORSDOF 10
ENDMDL
MODEL 7
REMARK VINA RESULT:    -5.673      2.812      3.411
REMARK INTER + INTRA:         -12.137
REMARK INTER:                  -8.656
REMARK INTRA:                  -3.481
REMARK CONF_INDEPENDENT:        2.983
REMARK UNBOUND:                -3.481
REMARK  10 active torsions:
REMARK  status: ('A' for Active; 'I' for Inactive)
REMARK    1  A    between atoms: C_2  and  C_3 
REMARK       I    between atoms: C_2  and  N_15 
REMARK    2  A    between atoms: C_3  and  C_4 
REMARK    3  A    between atoms: C_4  and  C_5 
REMARK    4  A    between atoms: C_5  and  O_6 
REMARK    5  A    between atoms: O_6  and  C_7 
REMARK    6  A    between atoms: N_15  and  C_16 
REMARK    7  A    between atoms: C_16  and  N_18 
REMARK    8  A    between atoms: N_18  and  C_19 
REMARK    9  A    between atoms: C_22  and  N_23 
REMARK   10  A    between atoms: C_27  and  O_28 
ROOT
ATOM      1  O   UNL d   1      29.392 -15.920  -4.182  0.00  0.00    -0.273 OA
ATOM      2  C   UNL d   1      29.599 -15.405  -3.083  0.00  0.00     0.223 C 
ATOM      3  N   UNL d   1      29.392 -14.025  -2.888  0.00  0.00    -0.304 N 
ATOM      4  H   UNL d   1      29.126 -13.588  -3.763  0.00  0.00     0.171 HD
ENDROOT
BRANCH   3   5
ATOM      5  C   UNL d   1      29.383 -13.218  -1.721  0.00  0.00     0.178 C 
ATOM      6  S   UNL d   1      30.695 -12.283  -1.184  0.00  0.00    -0.040 SA
BRANCH   5   7
ATOM      7  N   UNL d   1      28.169 -13.285  -0.998  0.00  0.00    -0.331 N 
ATOM      8  H   UNL d   1      27.774 -14.198  -0.804  0.00  0.00     0.168 HD
BRANCH   7   9
ATOM      9  C   UNL d   1      27.783 -12.215  -0.119  0.00  0.00     0.068 A 
ATOM     10  C   UNL d   1      27.953 -10.876  -0.490  0.00  0.00     0.035 A 
ATOM     11  C   UNL d   1      27.390  -9.854   0.300  0.00  0.00     0.038 A 
ATOM     12  C   UNL d   1      26.653 -10.177   1.457  0.00  0.00     0.105 A 
ATOM     13  C   UNL d   1      26.494 -11.507   1.844  0.00  0.00     0.075 A 
ATOM     14  C   UNL d   1      27.104 -12.500   1.085  0.00  0.00     0.094 A 
BRANCH  12  15
ATOM     15  N   UNL d   1      26.094  -9.110   2.299  0.00  0.00    -0.116 N 
ATOM     16  O   UNL d   1      26.281  -9.171   3.515  0.00  0.00    -0.532 OA
ATOM     17  O   UNL d   1      25.446  -8.209   1.729  0.00  0.00    -0.532 OA
ENDBRANCH  12  15
BRANCH  14  18
ATOM     18  O   UNL d   1      27.065 -13.796   1.537  0.00  0.00    -0.358 OA
ATOM     19  H   UNL d   1      26.645 -14.345   0.853  0.00  0.00     0.217 HD
ENDBRANCH  14  18
ENDBRANCH   7   9
ENDBRANCH   5   7
ENDBRANCH   3   5
BRANCH   2  20
ATOM     20  C   UNL d   1      30.083 -16.198  -1.886  0.00  0.00     0.105 C 
BRANCH  20  21
ATOM     21  C   UNL d   1      29.179 -17.247  -1.284  0.00  0.00     0.036 C 
BRANCH  21  22
ATOM     22  C   UNL d   1      28.489 -16.673  -0.038  0.00  0.00     0.176 C 
BRANCH  22  23
ATOM     23  O   UNL d   1      27.398 -15.867  -0.491  0.00  0.00    -0.349 OA
BRANCH  23  24
ATOM     24  C   UNL d   1      26.209 -16.539  -0.578  0.00  0.00     0.090 A 
ATOM     25  C   UNL d   1      25.889 -17.578   0.301  0.00  0.00     0.040 A 
ATOM     26  C   UNL d   1      24.642 -18.205   0.214  0.00  0.00     0.026 A 
ATOM     27  C   UNL d   1      23.717 -17.783  -0.740  0.00  0.00     0.035 A 
ATOM     28 CL   UNL d   1      22.193 -18.574  -0.853  0.00  0.00    -0.084 Cl
ATOM     29  C   UNL d   1      24.014 -16.728  -1.598  0.00  0.00     0.050 A 
ATOM     30  C   UNL d   1      25.256 -16.099  -1.507  0.00  0.00     0.069 A 
ATOM     31 CL   UNL d   1      25.593 -14.783  -2.575  0.00  0.00    -0.081 Cl
ENDBRANCH  23  24
ENDBRANCH  22  23
ENDBRANCH  21  22
ENDBRANCH  20  21
ENDBRANCH   2  20
TORSDOF 10
ENDMDL
MODEL 8
REMARK VINA RESULT:    -5.394      1.968      2.476
REMARK INTER + INTRA:         -11.838
REMARK INTER:                  -8.377
REMARK INTRA:                  -3.461
REMARK CONF_INDEPENDENT:        2.983
REMARK UNBOUND:                -3.461
REMARK  10 active torsions:
REMARK  status: ('A' for Active; 'I' for Inactive)
REMARK    1  A    between atoms: C_2  and  C_3 
REMARK       I    between atoms: C_2  and  N_15 
REMARK    2  A    between atoms: C_3  and  C_4 
REMARK    3  A    between atoms: C_4  and  C_5 
REMARK    4  A    between atoms: C_5  and  O_6 
REMARK    5  A    between atoms: O_6  and  C_7 
REMARK    6  A    between atoms: N_15  and  C_16 
REMARK    7  A    between atoms: C_16  and  N_18 
REMARK    8  A    between atoms: N_18  and  C_19 
REMARK    9  A    between atoms: C_22  and  N_23 
REMARK   10  A    between atoms: C_27  and  O_28 
ROOT
ATOM      1  O   UNL d   1      27.022 -15.223  -5.942  0.00  0.00    -0.273 OA
ATOM      2  C   UNL d   1      27.596 -14.337  -5.308  0.00  0.00     0.223 C 
ATOM      3  N   UNL d   1      27.065 -13.032  -5.260  0.00  0.00    -0.304 N 
ATOM      4  H   UNL d   1      26.238 -12.974  -5.844  0.00  0.00     0.171 HD
ENDROOT
BRANCH   3   5
ATOM      5  C   UNL d   1      27.408 -11.892  -4.489  0.00  0.00     0.178 C 
ATOM      6  S   UNL d   1      28.254 -10.545  -5.083  0.00  0.00    -0.040 SA
BRANCH   5   7
ATOM      7  N   UNL d   1      27.009 -11.985  -3.136  0.00  0.00    -0.331 N 
ATOM      8  H   UNL d   1      27.161 -12.860  -2.648  0.00  0.00     0.168 HD
BRANCH   7   9
ATOM      9  C   UNL d   1      26.905 -10.804  -2.323  0.00  0.00     0.068 A 
ATOM     10  C   UNL d   1      26.203  -9.678  -2.769  0.00  0.00     0.035 A 
ATOM     11  C   UNL d   1      25.949  -8.614  -1.880  0.00  0.00     0.038 A 
ATOM     12  C   UNL d   1      26.395  -8.684  -0.546  0.00  0.00     0.105 A 
ATOM     13  C   UNL d   1      27.112  -9.793  -0.098  0.00  0.00     0.075 A 
ATOM     14  C   UNL d   1      27.402 -10.808  -1.003  0.00  0.00     0.094 A 
BRANCH  12  15
ATOM     15  N   UNL d   1      26.160  -7.560   0.372  0.00  0.00    -0.116 N 
ATOM     16  O   UNL d   1      25.362  -7.722   1.297  0.00  0.00    -0.532 OA
ATOM     17  O   UNL d   1      26.774  -6.498   0.147  0.00  0.00    -0.532 OA
ENDBRANCH  12  15
BRANCH  14  18
ATOM     18  O   UNL d   1      28.221 -11.836  -0.603  0.00  0.00    -0.358 OA
ATOM     19  H   UNL d   1      27.821 -12.675  -0.888  0.00  0.00     0.217 HD
ENDBRANCH  14  18
ENDBRANCH   7   9
ENDBRANCH   5   7
ENDBRANCH   3   5
BRANCH   2  20
ATOM     20  C   UNL d   1      28.886 -14.577  -4.551  0.00  0.00     0.105 C 
BRANCH  20  21
ATOM     21  C   UNL d   1      28.926 -15.643  -3.484  0.00  0.00     0.036 C 
BRANCH  21  22
ATOM     22  C   UNL d   1      28.808 -14.985  -2.100  0.00  0.00     0.176 C 
BRANCH  22  23
ATOM     23  O   UNL d   1      27.464 -14.516  -1.968  0.00  0.00    -0.349 OA
BRANCH  23  24
ATOM     24  C   UNL d   1      26.575 -15.481  -1.578  0.00  0.00     0.090 A 
ATOM     25  C   UNL d   1      26.923 -16.465  -0.649  0.00  0.00     0.040 A 
ATOM     26  C   UNL d   1      25.970 -17.402  -0.236  0.00  0.00     0.026 A 
ATOM     27  C   UNL d   1      24.672 -17.342  -0.741  0.00  0.00     0.035 A 
ATOM     28 CL   UNL d   1      23.511 -18.511  -0.242  0.00  0.00    -0.084 Cl
ATOM     29  C   UNL d   1      24.307 -16.345  -1.641  0.00  0.00     0.050 A 
ATOM     30  C   UNL d   1      25.256 -15.408  -2.049  0.00  0.00     0.069 A 
ATOM     31 CL   UNL d   1      24.772 -14.173  -3.156  0.00  0.00    -0.081 Cl
ENDBRANCH  23  24
ENDBRANCH  22  23
ENDBRANCH  21  22
ENDBRANCH  20  21
ENDBRANCH   2  20
TORSDOF 10
ENDMDL
MODEL 9
REMARK VINA RESULT:    -5.323      3.712      6.822
REMARK INTER + INTRA:         -11.652
REMARK INTER:                  -8.306
REMARK INTRA:                  -3.346
REMARK CONF_INDEPENDENT:        2.983
REMARK UNBOUND:                -3.346
REMARK  10 active torsions:
REMARK  status: ('A' for Active; 'I' for Inactive)
REMARK    1  A    between atoms: C_2  and  C_3 
REMARK       I    between atoms: C_2  and  N_15 
REMARK    2  A    between atoms: C_3  and  C_4 
REMARK    3  A    between atoms: C_4  and  C_5 
REMARK    4  A    between atoms: C_5  and  O_6 
REMARK    5  A    between atoms: O_6  and  C_7 
REMARK    6  A    between atoms: N_15  and  C_16 
REMARK    7  A    between atoms: C_16  and  N_18 
REMARK    8  A    between atoms: N_18  and  C_19 
REMARK    9  A    between atoms: C_22  and  N_23 
REMARK   10  A    between atoms: C_27  and  O_28 
ROOT
ATOM      1  O   UNL d   1      27.497 -11.156  -0.960  0.00  0.00    -0.273 OA
ATOM      2  C   UNL d   1      27.132 -12.287  -1.281  0.00  0.00     0.223 C 
ATOM      3  N   UNL d   1      27.008 -12.642  -2.639  0.00  0.00    -0.304 N 
ATOM      4  H   UNL d   1      27.205 -11.838  -3.225  0.00  0.00     0.171 HD
ENDROOT
BRANCH   3   5
ATOM      5  C   UNL d   1      26.783 -13.886  -3.282  0.00  0.00     0.178 C 
ATOM      6  S   UNL d   1      25.447 -14.233  -4.272  0.00  0.00    -0.040 SA
BRANCH   5   7
ATOM      7  N   UNL d   1      27.771 -14.857  -2.994  0.00  0.00    -0.331 N 
ATOM      8  H   UNL d   1      27.722 -15.345  -2.108  0.00  0.00     0.168 HD
BRANCH   7   9
ATOM      9  C   UNL d   1      28.472 -15.521  -4.059  0.00  0.00     0.068 A 
ATOM     10  C   UNL d   1      28.476 -15.002  -5.359  0.00  0.00     0.035 A 
ATOM     11  C   UNL d   1      29.327 -15.560  -6.334  0.00  0.00     0.038 A 
ATOM     12  C   UNL d   1      30.175 -16.634  -6.002  0.00  0.00     0.105 A 
ATOM     13  C   UNL d   1      30.165 -17.171  -4.715  0.00  0.00     0.075 A 
ATOM     14  C   UNL d   1      29.278 -16.645  -3.781  0.00  0.00     0.094 A 
BRANCH  12  15
ATOM     15  N   UNL d   1      31.038 -17.238  -7.027  0.00  0.00    -0.116 N 
ATOM     16  O   UNL d   1      31.724 -16.489  -7.725  0.00  0.00    -0.532 OA
ATOM     17  O   UNL d   1      31.012 -18.480  -7.139  0.00  0.00    -0.532 OA
ENDBRANCH  12  15
BRANCH  14  18
ATOM     18  O   UNL d   1      29.168 -17.257  -2.556  0.00  0.00    -0.358 OA
ATOM     19  H   UNL d   1      28.747 -16.634  -1.940  0.00  0.00     0.217 HD
ENDBRANCH  14  18
ENDBRANCH   7   9
ENDBRANCH   5   7
ENDBRANCH   3   5
BRANCH   2  20
ATOM     20  C   UNL d   1      26.791 -13.356  -0.263  0.00  0.00     0.105 C 
BRANCH  20  21
ATOM     21  C   UNL d   1      27.910 -14.084   0.442  0.00  0.00     0.036 C 
BRANCH  21  22
ATOM     22  C   UNL d   1      27.544 -15.569   0.582  0.00  0.00     0.176 C 
BRANCH  22  23
ATOM     23  O   UNL d   1      27.081 -16.014  -0.695  0.00  0.00    -0.349 OA
BRANCH  23  24
ATOM     24  C   UNL d   1      25.834 -16.577  -0.669  0.00  0.00     0.090 A 
ATOM     25  C   UNL d   1      24.737 -15.956  -1.272  0.00  0.00     0.040 A 
ATOM     26  C   UNL d   1      23.489 -16.589  -1.270  0.00  0.00     0.026 A 
ATOM     27  C   UNL d   1      23.348 -17.844  -0.678  0.00  0.00     0.035 A 
ATOM     28 CL   UNL d   1      21.805 -18.607  -0.663  0.00  0.00    -0.084 Cl
ATOM     29  C   UNL d   1      24.442 -18.485  -0.104  0.00  0.00     0.050 A 
ATOM     30  C   UNL d   1      25.687 -17.856  -0.112  0.00  0.00     0.069 A 
ATOM     31 CL   UNL d   1      27.031 -18.680   0.595  0.00  0.00    -0.081 Cl
ENDBRANCH  23  24
ENDBRANCH  22  23
ENDBRANCH  21  22
ENDBRANCH  20  21
ENDBRANCH   2  20
TORSDOF 10
ENDMDL
