MODEL 1
REMARK VINA RESULT:    -9.496      0.000      0.000
REMARK INTER + INTRA:         -11.779
REMARK INTER:                 -10.690
REMARK INTRA:                  -1.089
REMARK CONF_INDEPENDENT:        1.193
REMARK UNBOUND:                -1.089
REMARK  4 active torsions:
REMARK  status: ('A' for Active; 'I' for Inactive)
REMARK       I    between atoms: C_2  and  N_4 
REMARK    1  A    between atoms: N_4  and  C_5 
REMARK    2  A    between atoms: C_8  and  N_9 
REMARK       I    between atoms: N_9  and  C_10 
REMARK    3  A    between atoms: C_10  and  C_12 
REMARK    4  A    between atoms: N_16  and  C_17 
ROOT
ATOM      1  C   UNL d   1      26.380 -14.287  -3.413  0.00  0.00     0.134 C 
ATOM      2  C   UNL d   1      26.335 -12.947  -3.764  0.00  0.00     0.090 C 
ATOM      3  S   UNL d   1      27.752 -12.497  -4.604  0.00  0.00    -0.061 SA
ATOM      4  C   UNL d   1      28.345 -14.110  -4.446  0.00  0.00     0.171 C 
ATOM      5  N   UNL d   1      29.520 -14.475  -5.013  0.00  0.00    -0.335 N 
ATOM      6  N   UNL d   1      27.570 -14.912  -3.737  0.00  0.00    -0.218 NA
ATOM      7  H   UNL d   1      30.059 -13.817  -5.562  0.00  0.00     0.168 HD
ENDROOT
BRANCH   1   8
ATOM      8  C   UNL d   1      25.226 -14.978  -2.832  0.00  0.00     0.275 C 
ATOM      9  N   UNL d   1      25.486 -16.060  -1.989  0.00  0.00    -0.322 N 
ATOM     10  H   UNL d   1      26.460 -16.329  -1.887  0.00  0.00     0.169 HD
ATOM     11  O   UNL d   1      24.105 -14.533  -3.104  0.00  0.00    -0.266 OA
BRANCH   9  12
ATOM     12  C   UNL d   1      24.487 -16.832  -1.316  0.00  0.00     0.035 A 
ATOM     13  C   UNL d   1      24.732 -18.150  -0.896  0.00  0.00     0.032 A 
ATOM     14  C   UNL d   1      23.694 -18.940  -0.326  0.00  0.00     0.032 A 
ATOM     15  C   UNL d   1      22.409 -18.411  -0.152  0.00  0.00     0.034 A 
ATOM     16  C   UNL d   1      22.193 -17.093  -0.522  0.00  0.00     0.032 A 
ATOM     17  C   UNL d   1      23.213 -16.321  -1.073  0.00  0.00     0.032 A 
BRANCH  15  18
ATOM     18  N   UNL d   1      21.353 -19.152   0.433  0.00  0.00    -0.328 N 
ATOM     19  C   UNL d   1      20.322 -19.701  -0.323  0.00  0.00     0.218 C 
ATOM     20  C   UNL d   1      19.227 -20.372   0.464  0.00  0.00     0.117 C 
ATOM     21  O   UNL d   1      20.272 -19.703  -1.552  0.00  0.00    -0.274 OA
ATOM     22  H   UNL d   1      21.405 -19.354   1.423  0.00  0.00     0.169 HD
ENDBRANCH  15  18
ENDBRANCH   9  12
ENDBRANCH   1   8
BRANCH   5  23
ATOM     23  C   UNL d   1      29.888 -15.826  -5.169  0.00  0.00     0.040 A 
ATOM     24  C   UNL d   1      30.031 -16.330  -6.468  0.00  0.00     0.030 A 
ATOM     25  C   UNL d   1      30.440 -17.647  -6.687  0.00  0.00     0.009 A 
ATOM     26  C   UNL d   1      30.752 -18.476  -5.607  0.00  0.00    -0.061 A 
ATOM     27  C   UNL d   1      31.369 -19.826  -5.822  0.00  0.00     0.048 C 
ATOM     28  C   UNL d   1      30.543 -18.003  -4.308  0.00  0.00     0.015 A 
ATOM     29  C   UNL d   1      30.099 -16.690  -4.074  0.00  0.00    -0.035 A 
ATOM     30  C   UNL d   1      29.896 -16.242  -2.653  0.00  0.00     0.050 C 
ENDBRANCH   5  23
TORSDOF 4
ENDMDL
MODEL 2
REMARK VINA RESULT:    -9.326      0.470      1.365
REMARK INTER + INTRA:         -11.705
REMARK INTER:                 -10.519
REMARK INTRA:                  -1.187
REMARK CONF_INDEPENDENT:        1.193
REMARK UNBOUND:                -1.187
REMARK  4 active torsions:
REMARK  status: ('A' for Active; 'I' for Inactive)
REMARK       I    between atoms: C_2  and  N_4 
REMARK    1  A    between atoms: N_4  and  C_5 
REMARK    2  A    between atoms: C_8  and  N_9 
REMARK       I    between atoms: N_9  and  C_10 
REMARK    3  A    between atoms: C_10  and  C_12 
REMARK    4  A    between atoms: N_16  and  C_17 
ROOT
ATOM      1  C   UNL d   1      26.304 -14.220  -3.392  0.00  0.00     0.134 C 
ATOM      2  C   UNL d   1      26.197 -12.933  -3.893  0.00  0.00     0.090 C 
ATOM      3  S   UNL d   1      27.636 -12.477  -4.693  0.00  0.00    -0.061 SA
ATOM      4  C   UNL d   1      28.318 -14.017  -4.320  0.00  0.00     0.171 C 
ATOM      5  N   UNL d   1      29.549 -14.358  -4.772  0.00  0.00    -0.335 N 
ATOM      6  N   UNL d   1      27.550 -14.791  -3.573  0.00  0.00    -0.218 NA
ATOM      7  H   UNL d   1      30.081 -13.726  -5.358  0.00  0.00     0.168 HD
ENDROOT
BRANCH   1   8
ATOM      8  C   UNL d   1      25.160 -14.924  -2.806  0.00  0.00     0.275 C 
ATOM      9  N   UNL d   1      25.435 -16.018  -1.984  0.00  0.00    -0.322 N 
ATOM     10  H   UNL d   1      26.411 -16.285  -1.898  0.00  0.00     0.169 HD
ATOM     11  O   UNL d   1      24.034 -14.479  -3.057  0.00  0.00    -0.266 OA
BRANCH   9  12
ATOM     12  C   UNL d   1      24.448 -16.804  -1.310  0.00  0.00     0.035 A 
ATOM     13  C   UNL d   1      24.713 -18.116  -0.885  0.00  0.00     0.032 A 
ATOM     14  C   UNL d   1      23.687 -18.921  -0.314  0.00  0.00     0.032 A 
ATOM     15  C   UNL d   1      22.394 -18.413  -0.143  0.00  0.00     0.034 A 
ATOM     16  C   UNL d   1      22.157 -17.099  -0.517  0.00  0.00     0.032 A 
ATOM     17  C   UNL d   1      23.165 -16.313  -1.070  0.00  0.00     0.032 A 
BRANCH  15  18
ATOM     18  N   UNL d   1      21.349 -19.169   0.443  0.00  0.00    -0.328 N 
ATOM     19  C   UNL d   1      20.315 -19.717  -0.310  0.00  0.00     0.218 C 
ATOM     20  C   UNL d   1      19.233 -20.406   0.480  0.00  0.00     0.117 C 
ATOM     21  O   UNL d   1      20.254 -19.705  -1.538  0.00  0.00    -0.274 OA
ATOM     22  H   UNL d   1      21.412 -19.382   1.430  0.00  0.00     0.169 HD
ENDBRANCH  15  18
ENDBRANCH   9  12
ENDBRANCH   1   8
BRANCH   5  23
ATOM     23  C   UNL d   1      30.012 -15.688  -4.753  0.00  0.00     0.040 A 
ATOM     24  C   UNL d   1      30.095 -16.346  -3.519  0.00  0.00     0.030 A 
ATOM     25  C   UNL d   1      30.500 -17.681  -3.443  0.00  0.00     0.009 A 
ATOM     26  C   UNL d   1      30.792 -18.395  -4.605  0.00  0.00    -0.061 A 
ATOM     27  C   UNL d   1      31.047 -19.873  -4.561  0.00  0.00     0.048 C 
ATOM     28  C   UNL d   1      30.780 -17.726  -5.834  0.00  0.00     0.015 A 
ATOM     29  C   UNL d   1      30.407 -16.374  -5.921  0.00  0.00    -0.035 A 
ATOM     30  C   UNL d   1      30.412 -15.712  -7.272  0.00  0.00     0.050 C 
ENDBRANCH   5  23
TORSDOF 4
ENDMDL
MODEL 3
REMARK VINA RESULT:    -9.306      2.837      5.643
REMARK INTER + INTRA:         -11.431
REMARK INTER:                 -10.499
REMARK INTRA:                  -0.932
REMARK CONF_INDEPENDENT:        1.193
REMARK UNBOUND:                -0.932
REMARK  4 active torsions:
REMARK  status: ('A' for Active; 'I' for Inactive)
REMARK       I    between atoms: C_2  and  N_4 
REMARK    1  A    between atoms: N_4  and  C_5 
REMARK    2  A    between atoms: C_8  and  N_9 
REMARK       I    between atoms: N_9  and  C_10 
REMARK    3  A    between atoms: C_10  and  C_12 
REMARK    4  A    between atoms: N_16  and  C_17 
ROOT
ATOM      1  C   UNL d   1      26.386 -14.190  -3.168  0.00  0.00     0.134 C 
ATOM      2  C   UNL d   1      27.689 -14.547  -2.863  0.00  0.00     0.090 C 
ATOM      3  S   UNL d   1      28.780 -13.337  -3.378  0.00  0.00    -0.061 SA
ATOM      4  C   UNL d   1      27.454 -12.413  -3.982  0.00  0.00     0.171 C 
ATOM      5  N   UNL d   1      27.652 -11.184  -4.516  0.00  0.00    -0.335 N 
ATOM      6  N   UNL d   1      26.279 -13.009  -3.879  0.00  0.00    -0.218 NA
ATOM      7  H   UNL d   1      28.577 -10.774  -4.547  0.00  0.00     0.168 HD
ENDROOT
BRANCH   1   8
ATOM      8  C   UNL d   1      25.236 -14.964  -2.692  0.00  0.00     0.275 C 
ATOM      9  N   UNL d   1      25.482 -15.956  -1.742  0.00  0.00    -0.322 N 
ATOM     10  H   UNL d   1      26.454 -16.112  -1.493  0.00  0.00     0.169 HD
ATOM     11  O   UNL d   1      24.126 -14.660  -3.142  0.00  0.00    -0.266 OA
BRANCH   9  12
ATOM     12  C   UNL d   1      24.480 -16.787  -1.149  0.00  0.00     0.035 A 
ATOM     13  C   UNL d   1      24.760 -18.101  -0.736  0.00  0.00     0.032 A 
ATOM     14  C   UNL d   1      23.727 -18.950  -0.248  0.00  0.00     0.032 A 
ATOM     15  C   UNL d   1      22.410 -18.485  -0.148  0.00  0.00     0.034 A 
ATOM     16  C   UNL d   1      22.155 -17.171  -0.508  0.00  0.00     0.032 A 
ATOM     17  C   UNL d   1      23.170 -16.341  -0.979  0.00  0.00     0.032 A 
BRANCH  15  18
ATOM     18  N   UNL d   1      21.355 -19.286   0.355  0.00  0.00    -0.328 N 
ATOM     19  C   UNL d   1      20.333 -19.765  -0.459  0.00  0.00     0.218 C 
ATOM     20  C   UNL d   1      19.237 -20.517   0.252  0.00  0.00     0.117 C 
ATOM     21  O   UNL d   1      20.291 -19.648  -1.682  0.00  0.00    -0.274 OA
ATOM     22  H   UNL d   1      21.403 -19.583   1.321  0.00  0.00     0.169 HD
ENDBRANCH  15  18
ENDBRANCH   9  12
ENDBRANCH   1   8
BRANCH   5  23
ATOM     23  C   UNL d   1      26.591 -10.284  -4.736  0.00  0.00     0.040 A 
ATOM     24  C   UNL d   1      26.169  -9.480  -3.669  0.00  0.00     0.030 A 
ATOM     25  C   UNL d   1      25.155  -8.535  -3.839  0.00  0.00     0.009 A 
ATOM     26  C   UNL d   1      24.569  -8.349  -5.092  0.00  0.00    -0.061 A 
ATOM     27  C   UNL d   1      23.616  -7.217  -5.339  0.00  0.00     0.048 C 
ATOM     28  C   UNL d   1      24.935  -9.195  -6.144  0.00  0.00     0.015 A 
ATOM     29  C   UNL d   1      25.930 -10.173  -5.977  0.00  0.00    -0.035 A 
ATOM     30  C   UNL d   1      26.280 -11.050  -7.148  0.00  0.00     0.050 C 
ENDBRANCH   5  23
TORSDOF 4
ENDMDL
MODEL 4
REMARK VINA RESULT:    -9.256      2.791      5.535
REMARK INTER + INTRA:         -11.397
REMARK INTER:                 -10.449
REMARK INTRA:                  -0.948
REMARK CONF_INDEPENDENT:        1.193
REMARK UNBOUND:                -0.948
REMARK  4 active torsions:
REMARK  status: ('A' for Active; 'I' for Inactive)
REMARK       I    between atoms: C_2  and  N_4 
REMARK    1  A    between atoms: N_4  and  C_5 
REMARK    2  A    between atoms: C_8  and  N_9 
REMARK       I    between atoms: N_9  and  C_10 
REMARK    3  A    between atoms: C_10  and  C_12 
REMARK    4  A    between atoms: N_16  and  C_17 
ROOT
ATOM      1  C   UNL d   1      26.344 -14.172  -3.291  0.00  0.00     0.134 C 
ATOM      2  C   UNL d   1      27.649 -14.573  -3.057  0.00  0.00     0.090 C 
ATOM      3  S   UNL d   1      28.750 -13.387  -3.607  0.00  0.00    -0.061 SA
ATOM      4  C   UNL d   1      27.425 -12.414  -4.129  0.00  0.00     0.171 C 
ATOM      5  N   UNL d   1      27.634 -11.182  -4.652  0.00  0.00    -0.335 N 
ATOM      6  N   UNL d   1      26.238 -12.976  -3.977  0.00  0.00    -0.218 NA
ATOM      7  H   UNL d   1      28.568 -10.799  -4.723  0.00  0.00     0.168 HD
ENDROOT
BRANCH   1   8
ATOM      8  C   UNL d   1      25.196 -14.919  -2.770  0.00  0.00     0.275 C 
ATOM      9  N   UNL d   1      25.461 -15.960  -1.880  0.00  0.00    -0.322 N 
ATOM     10  H   UNL d   1      26.440 -16.166  -1.703  0.00  0.00     0.169 HD
ATOM     11  O   UNL d   1      24.072 -14.552  -3.131  0.00  0.00    -0.266 OA
BRANCH   9  12
ATOM     12  C   UNL d   1      24.466 -16.776  -1.254  0.00  0.00     0.035 A 
ATOM     13  C   UNL d   1      24.742 -18.090  -0.841  0.00  0.00     0.032 A 
ATOM     14  C   UNL d   1      23.712 -18.924  -0.321  0.00  0.00     0.032 A 
ATOM     15  C   UNL d   1      22.404 -18.443  -0.187  0.00  0.00     0.034 A 
ATOM     16  C   UNL d   1      22.155 -17.128  -0.548  0.00  0.00     0.032 A 
ATOM     17  C   UNL d   1      23.167 -16.313  -1.052  0.00  0.00     0.032 A 
BRANCH  15  18
ATOM     18  N   UNL d   1      21.353 -19.228   0.349  0.00  0.00    -0.328 N 
ATOM     19  C   UNL d   1      20.328 -19.737  -0.442  0.00  0.00     0.218 C 
ATOM     20  C   UNL d   1      19.238 -20.466   0.301  0.00  0.00     0.117 C 
ATOM     21  O   UNL d   1      20.279 -19.663  -1.669  0.00  0.00    -0.274 OA
ATOM     22  H   UNL d   1      21.407 -19.491   1.324  0.00  0.00     0.169 HD
ENDBRANCH  15  18
ENDBRANCH   9  12
ENDBRANCH   1   8
BRANCH   5  23
ATOM     23  C   UNL d   1      26.591 -10.247  -4.805  0.00  0.00     0.040 A 
ATOM     24  C   UNL d   1      26.039 -10.068  -6.080  0.00  0.00     0.030 A 
ATOM     25  C   UNL d   1      24.972  -9.191  -6.284  0.00  0.00     0.009 A 
ATOM     26  C   UNL d   1      24.409  -8.504  -5.207  0.00  0.00    -0.061 A 
ATOM     27  C   UNL d   1      23.150  -7.705  -5.372  0.00  0.00     0.048 C 
ATOM     28  C   UNL d   1      24.999  -8.623  -3.944  0.00  0.00     0.015 A 
ATOM     29  C   UNL d   1      26.095  -9.477  -3.732  0.00  0.00    -0.035 A 
ATOM     30  C   UNL d   1      26.683  -9.562  -2.350  0.00  0.00     0.050 C 
ENDBRANCH   5  23
TORSDOF 4
ENDMDL
MODEL 5
REMARK VINA RESULT:    -9.083      0.562      1.667
REMARK INTER + INTRA:         -11.442
REMARK INTER:                 -10.276
REMARK INTRA:                  -1.165
REMARK CONF_INDEPENDENT:        1.193
REMARK UNBOUND:                -1.165
REMARK  4 active torsions:
REMARK  status: ('A' for Active; 'I' for Inactive)
REMARK       I    between atoms: C_2  and  N_4 
REMARK    1  A    between atoms: N_4  and  C_5 
REMARK    2  A    between atoms: C_8  and  N_9 
REMARK       I    between atoms: N_9  and  C_10 
REMARK    3  A    between atoms: C_10  and  C_12 
REMARK    4  A    between atoms: N_16  and  C_17 
ROOT
ATOM      1  C   UNL d   1      26.707 -14.447  -3.307  0.00  0.00     0.134 C 
ATOM      2  C   UNL d   1      26.755 -13.111  -3.671  0.00  0.00     0.090 C 
ATOM      3  S   UNL d   1      28.263 -12.736  -4.381  0.00  0.00    -0.061 SA
ATOM      4  C   UNL d   1      28.764 -14.371  -4.157  0.00  0.00     0.171 C 
ATOM      5  N   UNL d   1      29.967 -14.796  -4.612  0.00  0.00    -0.335 N 
ATOM      6  N   UNL d   1      27.891 -15.129  -3.517  0.00  0.00    -0.218 NA
ATOM      7  H   UNL d   1      30.584 -14.170  -5.114  0.00  0.00     0.168 HD
ENDROOT
BRANCH   1   8
ATOM      8  C   UNL d   1      25.473 -15.079  -2.829  0.00  0.00     0.275 C 
ATOM      9  N   UNL d   1      25.606 -16.180  -1.982  0.00  0.00    -0.322 N 
ATOM     10  H   UNL d   1      26.552 -16.503  -1.806  0.00  0.00     0.169 HD
ATOM     11  O   UNL d   1      24.404 -14.570  -3.185  0.00  0.00    -0.266 OA
BRANCH   9  12
ATOM     12  C   UNL d   1      24.516 -16.901  -1.402  0.00  0.00     0.035 A 
ATOM     13  C   UNL d   1      23.241 -16.328  -1.263  0.00  0.00     0.032 A 
ATOM     14  C   UNL d   1      22.198 -17.019  -0.585  0.00  0.00     0.032 A 
ATOM     15  C   UNL d   1      22.414 -18.299  -0.061  0.00  0.00     0.034 A 
ATOM     16  C   UNL d   1      23.660 -18.878  -0.250  0.00  0.00     0.032 A 
ATOM     17  C   UNL d   1      24.676 -18.200  -0.919  0.00  0.00     0.032 A 
BRANCH  15  18
ATOM     18  N   UNL d   1      21.398 -19.035   0.599  0.00  0.00    -0.328 N 
ATOM     19  C   UNL d   1      20.352 -19.639  -0.091  0.00  0.00     0.218 C 
ATOM     20  C   UNL d   1      19.304 -20.297   0.769  0.00  0.00     0.117 C 
ATOM     21  O   UNL d   1      20.254 -19.699  -1.315  0.00  0.00    -0.274 OA
ATOM     22  H   UNL d   1      21.494 -19.190   1.594  0.00  0.00     0.169 HD
ENDBRANCH  15  18
ENDBRANCH   9  12
ENDBRANCH   1   8
BRANCH   5  23
ATOM     23  C   UNL d   1      30.285 -16.165  -4.724  0.00  0.00     0.040 A 
ATOM     24  C   UNL d   1      30.431 -16.911  -3.548  0.00  0.00     0.030 A 
ATOM     25  C   UNL d   1      30.698 -18.281  -3.596  0.00  0.00     0.009 A 
ATOM     26  C   UNL d   1      30.784 -18.939  -4.824  0.00  0.00    -0.061 A 
ATOM     27  C   UNL d   1      30.883 -20.435  -4.895  0.00  0.00     0.048 C 
ATOM     28  C   UNL d   1      30.709 -18.189  -6.001  0.00  0.00     0.015 A 
ATOM     29  C   UNL d   1      30.475 -16.803  -5.967  0.00  0.00    -0.035 A 
ATOM     30  C   UNL d   1      30.403 -16.053  -7.269  0.00  0.00     0.050 C 
ENDBRANCH   5  23
TORSDOF 4
ENDMDL
MODEL 6
REMARK VINA RESULT:    -8.987      7.383      9.167
REMARK INTER + INTRA:         -11.083
REMARK INTER:                 -10.180
REMARK INTRA:                  -0.903
REMARK CONF_INDEPENDENT:        1.193
REMARK UNBOUND:                -0.903
REMARK  4 active torsions:
REMARK  status: ('A' for Active; 'I' for Inactive)
REMARK       I    between atoms: C_2  and  N_4 
REMARK    1  A    between atoms: N_4  and  C_5 
REMARK    2  A    between atoms: C_8  and  N_9 
REMARK       I    between atoms: N_9  and  C_10 
REMARK    3  A    between atoms: C_10  and  C_12 
REMARK    4  A    between atoms: N_16  and  C_17 
ROOT
ATOM      1  C   UNL d   1      28.126 -14.459   1.451  0.00  0.00     0.134 C 
ATOM      2  C   UNL d   1      29.113 -13.985   0.602  0.00  0.00     0.090 C 
ATOM      3  S   UNL d   1      28.990 -14.723  -0.934  0.00  0.00    -0.061 SA
ATOM      4  C   UNL d   1      27.636 -15.634  -0.376  0.00  0.00     0.171 C 
ATOM      5  N   UNL d   1      26.960 -16.456  -1.214  0.00  0.00    -0.335 N 
ATOM      6  N   UNL d   1      27.346 -15.459   0.902  0.00  0.00    -0.218 NA
ATOM      7  H   UNL d   1      27.220 -16.531  -2.190  0.00  0.00     0.168 HD
ENDROOT
BRANCH   1   8
ATOM      8  C   UNL d   1      27.894 -13.875   2.775  0.00  0.00     0.275 C 
ATOM      9  N   UNL d   1      28.619 -14.404   3.843  0.00  0.00    -0.322 N 
ATOM     10  H   UNL d   1      29.215 -15.199   3.636  0.00  0.00     0.169 HD
ATOM     11  O   UNL d   1      27.095 -12.935   2.845  0.00  0.00    -0.266 OA
BRANCH   9  12
ATOM     12  C   UNL d   1      28.540 -13.942   5.195  0.00  0.00     0.035 A 
ATOM     13  C   UNL d   1      27.780 -12.814   5.547  0.00  0.00     0.032 A 
ATOM     14  C   UNL d   1      27.799 -12.304   6.876  0.00  0.00     0.032 A 
ATOM     15  C   UNL d   1      28.561 -12.932   7.869  0.00  0.00     0.034 A 
ATOM     16  C   UNL d   1      29.265 -14.075   7.523  0.00  0.00     0.032 A 
ATOM     17  C   UNL d   1      29.239 -14.574   6.223  0.00  0.00     0.032 A 
BRANCH  15  18
ATOM     18  N   UNL d   1      28.590 -12.475   9.210  0.00  0.00    -0.328 N 
ATOM     19  C   UNL d   1      28.156 -13.261  10.272  0.00  0.00     0.218 C 
ATOM     20  C   UNL d   1      28.160 -12.589  11.621  0.00  0.00     0.117 C 
ATOM     21  O   UNL d   1      27.816 -14.440  10.186  0.00  0.00    -0.274 OA
ATOM     22  H   UNL d   1      29.022 -11.580   9.397  0.00  0.00     0.169 HD
ENDBRANCH  15  18
ENDBRANCH   9  12
ENDBRANCH   1   8
BRANCH   5  23
ATOM     23  C   UNL d   1      25.690 -16.973  -0.893  0.00  0.00     0.040 A 
ATOM     24  C   UNL d   1      24.567 -16.409  -1.512  0.00  0.00     0.030 A 
ATOM     25  C   UNL d   1      23.286 -16.911  -1.270  0.00  0.00     0.009 A 
ATOM     26  C   UNL d   1      23.108 -18.015  -0.434  0.00  0.00    -0.061 A 
ATOM     27  C   UNL d   1      21.771 -18.683  -0.309  0.00  0.00     0.048 C 
ATOM     28  C   UNL d   1      24.215 -18.538   0.242  0.00  0.00     0.015 A 
ATOM     29  C   UNL d   1      25.505 -18.020   0.034  0.00  0.00    -0.035 A 
ATOM     30  C   UNL d   1      26.655 -18.629   0.790  0.00  0.00     0.050 C 
ENDBRANCH   5  23
TORSDOF 4
ENDMDL
MODEL 7
REMARK VINA RESULT:    -8.418      2.990      6.072
REMARK INTER + INTRA:         -10.574
REMARK INTER:                  -9.611
REMARK INTRA:                  -0.963
REMARK CONF_INDEPENDENT:        1.193
REMARK UNBOUND:                -0.963
REMARK  4 active torsions:
REMARK  status: ('A' for Active; 'I' for Inactive)
REMARK       I    between atoms: C_2  and  N_4 
REMARK    1  A    between atoms: N_4  and  C_5 
REMARK    2  A    between atoms: C_8  and  N_9 
REMARK       I    between atoms: N_9  and  C_10 
REMARK    3  A    between atoms: C_10  and  C_12 
REMARK    4  A    between atoms: N_16  and  C_17 
ROOT
ATOM      1  C   UNL d   1      26.579 -13.924  -3.060  0.00  0.00     0.134 C 
ATOM      2  C   UNL d   1      27.792 -14.466  -3.454  0.00  0.00     0.090 C 
ATOM      3  S   UNL d   1      28.998 -13.258  -3.520  0.00  0.00    -0.061 SA
ATOM      4  C   UNL d   1      27.834 -12.084  -3.027  0.00  0.00     0.171 C 
ATOM      5  N   UNL d   1      28.197 -10.798  -2.806  0.00  0.00    -0.335 N 
ATOM      6  N   UNL d   1      26.604 -12.551  -2.901  0.00  0.00    -0.218 NA
ATOM      7  H   UNL d   1      29.162 -10.507  -2.900  0.00  0.00     0.168 HD
ENDROOT
BRANCH   1   8
ATOM      8  C   UNL d   1      25.414 -14.761  -2.758  0.00  0.00     0.275 C 
ATOM      9  N   UNL d   1      25.553 -15.707  -1.742  0.00  0.00    -0.322 N 
ATOM     10  H   UNL d   1      26.474 -15.789  -1.323  0.00  0.00     0.169 HD
ATOM     11  O   UNL d   1      24.383 -14.547  -3.405  0.00  0.00    -0.266 OA
BRANCH   9  12
ATOM     12  C   UNL d   1      24.517 -16.587  -1.297  0.00  0.00     0.035 A 
ATOM     13  C   UNL d   1      23.170 -16.189  -1.268  0.00  0.00     0.032 A 
ATOM     14  C   UNL d   1      22.167 -17.038  -0.720  0.00  0.00     0.032 A 
ATOM     15  C   UNL d   1      22.500 -18.302  -0.219  0.00  0.00     0.034 A 
ATOM     16  C   UNL d   1      23.823 -18.707  -0.301  0.00  0.00     0.032 A 
ATOM     17  C   UNL d   1      24.800 -17.875  -0.843  0.00  0.00     0.032 A 
BRANCH  15  18
ATOM     18  N   UNL d   1      21.532 -19.191   0.311  0.00  0.00    -0.328 N 
ATOM     19  C   UNL d   1      20.489 -19.698  -0.458  0.00  0.00     0.218 C 
ATOM     20  C   UNL d   1      19.491 -20.549   0.284  0.00  0.00     0.117 C 
ATOM     21  O   UNL d   1      20.359 -19.531  -1.669  0.00  0.00    -0.274 OA
ATOM     22  H   UNL d   1      21.662 -19.526   1.257  0.00  0.00     0.169 HD
ENDBRANCH  15  18
ENDBRANCH   9  12
ENDBRANCH   1   8
BRANCH   5  23
ATOM     23  C   UNL d   1      27.364  -9.892  -2.120  0.00  0.00     0.040 A 
ATOM     24  C   UNL d   1      27.593  -9.681  -0.755  0.00  0.00     0.030 A 
ATOM     25  C   UNL d   1      26.832  -8.760  -0.032  0.00  0.00     0.009 A 
ATOM     26  C   UNL d   1      25.851  -8.001  -0.673  0.00  0.00    -0.061 A 
ATOM     27  C   UNL d   1      25.153  -6.879   0.037  0.00  0.00     0.048 C 
ATOM     28  C   UNL d   1      25.569  -8.256  -2.019  0.00  0.00     0.015 A 
ATOM     29  C   UNL d   1      26.304  -9.206  -2.749  0.00  0.00    -0.035 A 
ATOM     30  C   UNL d   1      25.953  -9.432  -4.194  0.00  0.00     0.050 C 
ENDBRANCH   5  23
TORSDOF 4
ENDMDL
MODEL 8
REMARK VINA RESULT:    -8.090      3.827      5.592
REMARK INTER + INTRA:         -10.476
REMARK INTER:                  -9.283
REMARK INTRA:                  -1.193
REMARK CONF_INDEPENDENT:        1.193
REMARK UNBOUND:                -1.193
REMARK  4 active torsions:
REMARK  status: ('A' for Active; 'I' for Inactive)
REMARK       I    between atoms: C_2  and  N_4 
REMARK    1  A    between atoms: N_4  and  C_5 
REMARK    2  A    between atoms: C_8  and  N_9 
REMARK       I    between atoms: N_9  and  C_10 
REMARK    3  A    between atoms: C_10  and  C_12 
REMARK    4  A    between atoms: N_16  and  C_17 
ROOT
ATOM      1  C   UNL d   1      26.597 -13.893  -2.069  0.00  0.00     0.134 C 
ATOM      2  C   UNL d   1      27.292 -13.508  -3.203  0.00  0.00     0.090 C 
ATOM      3  S   UNL d   1      28.556 -12.432  -2.798  0.00  0.00    -0.061 SA
ATOM      4  C   UNL d   1      28.100 -12.538  -1.138  0.00  0.00     0.171 C 
ATOM      5  N   UNL d   1      28.817 -11.903  -0.180  0.00  0.00    -0.335 N 
ATOM      6  N   UNL d   1      27.020 -13.266  -0.911  0.00  0.00    -0.218 NA
ATOM      7  H   UNL d   1      29.649 -11.377  -0.417  0.00  0.00     0.168 HD
ENDROOT
BRANCH   1   8
ATOM      8  C   UNL d   1      25.571 -14.939  -2.103  0.00  0.00     0.275 C 
ATOM      9  N   UNL d   1      25.294 -15.602  -0.906  0.00  0.00    -0.322 N 
ATOM     10  H   UNL d   1      25.869 -15.352  -0.107  0.00  0.00     0.169 HD
ATOM     11  O   UNL d   1      25.002 -15.137  -3.182  0.00  0.00    -0.266 OA
BRANCH   9  12
ATOM     12  C   UNL d   1      24.309 -16.627  -0.748  0.00  0.00     0.035 A 
ATOM     13  C   UNL d   1      22.937 -16.363  -0.893  0.00  0.00     0.032 A 
ATOM     14  C   UNL d   1      21.966 -17.368  -0.624  0.00  0.00     0.032 A 
ATOM     15  C   UNL d   1      22.360 -18.653  -0.232  0.00  0.00     0.034 A 
ATOM     16  C   UNL d   1      23.717 -18.919  -0.144  0.00  0.00     0.032 A 
ATOM     17  C   UNL d   1      24.665 -17.934  -0.413  0.00  0.00     0.032 A 
BRANCH  15  18
ATOM     18  N   UNL d   1      21.430 -19.692   0.020  0.00  0.00    -0.328 N 
ATOM     19  C   UNL d   1      20.078 -19.570  -0.287  0.00  0.00     0.218 C 
ATOM     20  C   UNL d   1      19.210 -20.726   0.137  0.00  0.00     0.117 C 
ATOM     21  O   UNL d   1      19.575 -18.626  -0.895  0.00  0.00    -0.274 OA
ATOM     22  H   UNL d   1      21.786 -20.577   0.356  0.00  0.00     0.169 HD
ENDBRANCH  15  18
ENDBRANCH   9  12
ENDBRANCH   1   8
BRANCH   5  23
ATOM     23  C   UNL d   1      28.670 -12.204   1.188  0.00  0.00     0.040 A 
ATOM     24  C   UNL d   1      28.023 -11.270   2.007  0.00  0.00     0.030 A 
ATOM     25  C   UNL d   1      27.804 -11.532   3.362  0.00  0.00     0.009 A 
ATOM     26  C   UNL d   1      28.194 -12.753   3.914  0.00  0.00    -0.061 A 
ATOM     27  C   UNL d   1      27.804 -13.129   5.313  0.00  0.00     0.048 C 
ATOM     28  C   UNL d   1      28.903 -13.661   3.120  0.00  0.00     0.015 A 
ATOM     29  C   UNL d   1      29.160 -13.394   1.765  0.00  0.00    -0.035 A 
ATOM     30  C   UNL d   1      29.926 -14.412   0.964  0.00  0.00     0.050 C 
ENDBRANCH   5  23
TORSDOF 4
ENDMDL
MODEL 9
REMARK VINA RESULT:    -7.806      1.940      2.248
REMARK INTER + INTRA:         -10.370
REMARK INTER:                  -8.999
REMARK INTRA:                  -1.370
REMARK CONF_INDEPENDENT:        1.193
REMARK UNBOUND:                -1.370
REMARK  4 active torsions:
REMARK  status: ('A' for Active; 'I' for Inactive)
REMARK       I    between atoms: C_2  and  N_4 
REMARK    1  A    between atoms: N_4  and  C_5 
REMARK    2  A    between atoms: C_8  and  N_9 
REMARK       I    between atoms: N_9  and  C_10 
REMARK    3  A    between atoms: C_10  and  C_12 
REMARK    4  A    between atoms: N_16  and  C_17 
ROOT
ATOM      1  C   UNL d   1      28.239 -15.025  -1.002  0.00  0.00     0.134 C 
ATOM      2  C   UNL d   1      28.795 -13.818  -0.611  0.00  0.00     0.090 C 
ATOM      3  S   UNL d   1      30.323 -13.594  -1.344  0.00  0.00    -0.061 SA
ATOM      4  C   UNL d   1      30.156 -15.120  -2.132  0.00  0.00     0.171 C 
ATOM      5  N   UNL d   1      31.097 -15.556  -3.003  0.00  0.00    -0.335 N 
ATOM      6  N   UNL d   1      29.066 -15.791  -1.803  0.00  0.00    -0.218 NA
ATOM      7  H   UNL d   1      31.901 -14.984  -3.229  0.00  0.00     0.168 HD
ENDROOT
BRANCH   1   8
ATOM      8  C   UNL d   1      26.863 -15.395  -0.657  0.00  0.00     0.275 C 
ATOM      9  N   UNL d   1      26.353 -16.561  -1.230  0.00  0.00    -0.322 N 
ATOM     10  H   UNL d   1      26.953 -17.038  -1.895  0.00  0.00     0.169 HD
ATOM     11  O   UNL d   1      26.265 -14.665   0.141  0.00  0.00    -0.266 OA
BRANCH   9  12
ATOM     12  C   UNL d   1      25.045 -17.086  -0.987  0.00  0.00     0.035 A 
ATOM     13  C   UNL d   1      23.888 -16.323  -1.217  0.00  0.00     0.032 A 
ATOM     14  C   UNL d   1      22.601 -16.823  -0.868  0.00  0.00     0.032 A 
ATOM     15  C   UNL d   1      22.459 -18.098  -0.307  0.00  0.00     0.034 A 
ATOM     16  C   UNL d   1      23.602 -18.863  -0.134  0.00  0.00     0.032 A 
ATOM     17  C   UNL d   1      24.859 -18.373  -0.483  0.00  0.00     0.032 A 
BRANCH  15  18
ATOM     18  N   UNL d   1      21.197 -18.645   0.032  0.00  0.00    -0.328 N 
ATOM     19  C   UNL d   1      20.429 -19.363  -0.880  0.00  0.00     0.218 C 
ATOM     20  C   UNL d   1      19.070 -19.789  -0.388  0.00  0.00     0.117 C 
ATOM     21  O   UNL d   1      20.795 -19.691  -2.008  0.00  0.00    -0.274 OA
ATOM     22  H   UNL d   1      20.894 -18.578   0.994  0.00  0.00     0.169 HD
ENDBRANCH  15  18
ENDBRANCH   9  12
ENDBRANCH   1   8
BRANCH   5  23
ATOM     23  C   UNL d   1      30.860 -16.630  -3.885  0.00  0.00     0.040 A 
ATOM     24  C   UNL d   1      30.593 -16.339  -5.229  0.00  0.00     0.030 A 
ATOM     25  C   UNL d   1      30.398 -17.363  -6.159  0.00  0.00     0.009 A 
ATOM     26  C   UNL d   1      30.507 -18.699  -5.770  0.00  0.00    -0.061 A 
ATOM     27  C   UNL d   1      30.487 -19.804  -6.784  0.00  0.00     0.048 C 
ATOM     28  C   UNL d   1      30.703 -18.996  -4.417  0.00  0.00     0.015 A 
ATOM     29  C   UNL d   1      30.866 -17.976  -3.464  0.00  0.00    -0.035 A 
ATOM     30  C   UNL d   1      31.077 -18.362  -2.026  0.00  0.00     0.050 C 
ENDBRANCH   5  23
TORSDOF 4
ENDMDL
