MODEL 1
REMARK VINA RESULT:    -8.921      0.000      0.000
REMARK INTER + INTRA:         -12.015
REMARK INTER:                 -10.711
REMARK INTRA:                  -1.304
REMARK CONF_INDEPENDENT:        1.790
REMARK UNBOUND:                -1.304
REMARK  6 active torsions:
REMARK  status: ('A' for Active; 'I' for Inactive)
REMARK    1  A    between atoms: C_7  and  N_8 
REMARK    2  A    between atoms: N_8  and  C_9 
REMARK    3  A    between atoms: C_9  and  C_10 
REMARK    4  A    between atoms: C_10  and  C_11 
REMARK       I    between atoms: C_11  and  N_13 
REMARK    5  A    between atoms: N_13  and  N_14 
REMARK       I    between atoms: N_14  and  C_15 
REMARK    6  A    between atoms: C_15  and  C_17 
ROOT
ATOM      1  C   UNL d   1      24.691 -17.763  -0.257  0.00  0.00     0.237 C 
ATOM      2  O   UNL d   1      25.057 -18.505   0.656  0.00  0.00    -0.272 OA
ATOM      3  N   UNL d   1      23.375 -17.760  -0.697  0.00  0.00    -0.267 N 
ATOM      4  H   UNL d   1      23.012 -17.168  -1.444  0.00  0.00     0.190 HD
ENDROOT
BRANCH   1   5
ATOM      5  C   UNL d   1      25.643 -16.797  -0.972  0.00  0.00     0.124 C 
BRANCH   5   6
ATOM      6  C   UNL d   1      25.200 -16.589  -2.429  0.00  0.00     0.129 C 
BRANCH   6   7
ATOM      7  N   UNL d   1      24.835 -15.203  -2.733  0.00  0.00    -0.389 N 
ATOM      8  H   UNL d   1      24.008 -14.794  -2.317  0.00  0.00     0.159 HD
BRANCH   7   9
ATOM      9  C   UNL d   1      25.577 -14.423  -3.617  0.00  0.00     0.028 A 
ATOM     10  C   UNL d   1      25.396 -13.032  -3.655  0.00  0.00     0.036 A 
ATOM     11  C   UNL d   1      26.129 -12.208  -4.534  0.00  0.00    -0.059 A 
ATOM     12  C   UNL d   1      27.063 -12.789  -5.398  0.00  0.00     0.013 A 
ATOM     13  C   UNL d   1      25.900 -10.724  -4.535  0.00  0.00     0.048 C 
ATOM     14  C   UNL d   1      27.269 -14.169  -5.382  0.00  0.00    -0.059 A 
ATOM     15  C   UNL d   1      28.271 -14.823  -6.288  0.00  0.00     0.048 C 
ATOM     16  C   UNL d   1      26.526 -14.964  -4.493  0.00  0.00     0.036 A 
ENDBRANCH   7   9
ENDBRANCH   6   7
ENDBRANCH   5   6
ENDBRANCH   1   5
BRANCH   3  17
ATOM     17  N   UNL d   1      22.434 -18.622  -0.058  0.00  0.00    -0.263 N 
ATOM     18  C   UNL d   1      21.095 -18.574  -0.416  0.00  0.00     0.270 C 
ATOM     19  O   UNL d   1      20.663 -17.794  -1.270  0.00  0.00    -0.266 OA
ATOM     20  H   UNL d   1      22.824 -19.320   0.574  0.00  0.00     0.190 HD
BRANCH  18  21
ATOM     21  C   UNL d   1      20.151 -19.500   0.289  0.00  0.00     0.033 A 
ATOM     22  C   UNL d   1      19.087 -20.090  -0.416  0.00  0.00     0.017 A 
ATOM     23  C   UNL d   1      18.102 -20.828   0.259  0.00  0.00     0.001 A 
ATOM     24  C   UNL d   1      18.200 -21.028   1.634  0.00  0.00     0.000 A 
ATOM     25  C   UNL d   1      19.260 -20.459   2.340  0.00  0.00     0.001 A 
ATOM     26  C   UNL d   1      20.228 -19.692   1.675  0.00  0.00     0.017 A 
ENDBRANCH  18  21
ENDBRANCH   3  17
TORSDOF 6
ENDMDL
MODEL 2
REMARK VINA RESULT:    -8.913      0.480      1.821
REMARK INTER + INTRA:         -11.761
REMARK INTER:                 -10.703
REMARK INTRA:                  -1.058
REMARK CONF_INDEPENDENT:        1.790
REMARK UNBOUND:                -1.058
REMARK  6 active torsions:
REMARK  status: ('A' for Active; 'I' for Inactive)
REMARK    1  A    between atoms: C_7  and  N_8 
REMARK    2  A    between atoms: N_8  and  C_9 
REMARK    3  A    between atoms: C_9  and  C_10 
REMARK    4  A    between atoms: C_10  and  C_11 
REMARK       I    between atoms: C_11  and  N_13 
REMARK    5  A    between atoms: N_13  and  N_14 
REMARK       I    between atoms: N_14  and  C_15 
REMARK    6  A    between atoms: C_15  and  C_17 
ROOT
ATOM      1  C   UNL d   1      24.642 -17.832  -0.302  0.00  0.00     0.237 C 
ATOM      2  O   UNL d   1      24.895 -18.275   0.819  0.00  0.00    -0.272 OA
ATOM      3  N   UNL d   1      23.437 -18.111  -0.931  0.00  0.00    -0.267 N 
ATOM      4  H   UNL d   1      23.170 -17.771  -1.855  0.00  0.00     0.190 HD
ENDROOT
BRANCH   1   5
ATOM      5  C   UNL d   1      25.621 -16.947  -1.084  0.00  0.00     0.124 C 
BRANCH   5   6
ATOM      6  C   UNL d   1      24.855 -15.971  -1.989  0.00  0.00     0.129 C 
BRANCH   6   7
ATOM      7  N   UNL d   1      25.295 -16.004  -3.385  0.00  0.00    -0.389 N 
ATOM      8  H   UNL d   1      25.176 -16.847  -3.933  0.00  0.00     0.159 HD
BRANCH   7   9
ATOM      9  C   UNL d   1      25.914 -14.913  -3.989  0.00  0.00     0.028 A 
ATOM     10  C   UNL d   1      26.863 -15.111  -5.004  0.00  0.00     0.036 A 
ATOM     11  C   UNL d   1      27.510 -14.032  -5.642  0.00  0.00    -0.059 A 
ATOM     12  C   UNL d   1      27.204 -12.724  -5.254  0.00  0.00     0.013 A 
ATOM     13  C   UNL d   1      28.517 -14.297  -6.724  0.00  0.00     0.048 C 
ATOM     14  C   UNL d   1      26.261 -12.493  -4.250  0.00  0.00    -0.059 A 
ATOM     15  C   UNL d   1      25.902 -11.102  -3.817  0.00  0.00     0.048 C 
ATOM     16  C   UNL d   1      25.631 -13.588  -3.635  0.00  0.00     0.036 A 
ENDBRANCH   7   9
ENDBRANCH   6   7
ENDBRANCH   5   6
ENDBRANCH   1   5
BRANCH   3  17
ATOM     17  N   UNL d   1      22.474 -18.912  -0.248  0.00  0.00    -0.263 N 
ATOM     18  C   UNL d   1      21.121 -18.722  -0.484  0.00  0.00     0.270 C 
ATOM     19  O   UNL d   1      20.696 -17.864  -1.263  0.00  0.00    -0.266 OA
ATOM     20  H   UNL d   1      22.846 -19.675   0.317  0.00  0.00     0.190 HD
BRANCH  18  21
ATOM     21  C   UNL d   1      20.154 -19.591   0.264  0.00  0.00     0.033 A 
ATOM     22  C   UNL d   1      19.051 -20.151  -0.405  0.00  0.00     0.017 A 
ATOM     23  C   UNL d   1      18.051 -20.829   0.309  0.00  0.00     0.001 A 
ATOM     24  C   UNL d   1      18.170 -21.001   1.686  0.00  0.00     0.000 A 
ATOM     25  C   UNL d   1      19.269 -20.462   2.355  0.00  0.00     0.001 A 
ATOM     26  C   UNL d   1      20.254 -19.753   1.651  0.00  0.00     0.017 A 
ENDBRANCH  18  21
ENDBRANCH   3  17
TORSDOF 6
ENDMDL
MODEL 3
REMARK VINA RESULT:    -8.635      1.224      2.288
REMARK INTER + INTRA:         -11.564
REMARK INTER:                 -10.425
REMARK INTRA:                  -1.139
REMARK CONF_INDEPENDENT:        1.790
REMARK UNBOUND:                -1.139
REMARK  6 active torsions:
REMARK  status: ('A' for Active; 'I' for Inactive)
REMARK    1  A    between atoms: C_7  and  N_8 
REMARK    2  A    between atoms: N_8  and  C_9 
REMARK    3  A    between atoms: C_9  and  C_10 
REMARK    4  A    between atoms: C_10  and  C_11 
REMARK       I    between atoms: C_11  and  N_13 
REMARK    5  A    between atoms: N_13  and  N_14 
REMARK       I    between atoms: N_14  and  C_15 
REMARK    6  A    between atoms: C_15  and  C_17 
ROOT
ATOM      1  C   UNL d   1      24.655 -17.975  -0.429  0.00  0.00     0.237 C 
ATOM      2  O   UNL d   1      24.966 -18.514   0.635  0.00  0.00    -0.272 OA
ATOM      3  N   UNL d   1      23.391 -18.140  -0.977  0.00  0.00    -0.267 N 
ATOM      4  H   UNL d   1      23.075 -17.718  -1.850  0.00  0.00     0.190 HD
ENDROOT
BRANCH   1   5
ATOM      5  C   UNL d   1      25.623 -17.089  -1.223  0.00  0.00     0.124 C 
BRANCH   5   6
ATOM      6  C   UNL d   1      26.838 -16.716  -0.360  0.00  0.00     0.129 C 
BRANCH   6   7
ATOM      7  N   UNL d   1      27.706 -15.712  -0.980  0.00  0.00    -0.389 N 
ATOM      8  H   UNL d   1      28.438 -15.273  -0.437  0.00  0.00     0.159 HD
BRANCH   7   9
ATOM      9  C   UNL d   1      27.536 -15.306  -2.300  0.00  0.00     0.028 A 
ATOM     10  C   UNL d   1      28.441 -15.719  -3.290  0.00  0.00     0.036 A 
ATOM     11  C   UNL d   1      28.302 -15.331  -4.639  0.00  0.00    -0.059 A 
ATOM     12  C   UNL d   1      27.233 -14.507  -5.007  0.00  0.00     0.013 A 
ATOM     13  C   UNL d   1      29.297 -15.802  -5.660  0.00  0.00     0.048 C 
ATOM     14  C   UNL d   1      26.313 -14.082  -4.047  0.00  0.00    -0.059 A 
ATOM     15  C   UNL d   1      25.150 -13.207  -4.411  0.00  0.00     0.048 C 
ATOM     16  C   UNL d   1      26.476 -14.487  -2.712  0.00  0.00     0.036 A 
ENDBRANCH   7   9
ENDBRANCH   6   7
ENDBRANCH   5   6
ENDBRANCH   1   5
BRANCH   3  17
ATOM     17  N   UNL d   1      22.436 -18.936  -0.276  0.00  0.00    -0.263 N 
ATOM     18  C   UNL d   1      21.080 -18.744  -0.493  0.00  0.00     0.270 C 
ATOM     19  O   UNL d   1      20.646 -17.889  -1.271  0.00  0.00    -0.266 OA
ATOM     20  H   UNL d   1      22.815 -19.696   0.288  0.00  0.00     0.190 HD
BRANCH  18  21
ATOM     21  C   UNL d   1      20.122 -19.607   0.272  0.00  0.00     0.033 A 
ATOM     22  C   UNL d   1      19.019 -20.184  -0.383  0.00  0.00     0.017 A 
ATOM     23  C   UNL d   1      18.027 -20.858   0.346  0.00  0.00     0.001 A 
ATOM     24  C   UNL d   1      18.154 -21.007   1.725  0.00  0.00     0.000 A 
ATOM     25  C   UNL d   1      19.252 -20.450   2.381  0.00  0.00     0.001 A 
ATOM     26  C   UNL d   1      20.229 -19.747   1.662  0.00  0.00     0.017 A 
ENDBRANCH  18  21
ENDBRANCH   3  17
TORSDOF 6
ENDMDL
MODEL 4
REMARK VINA RESULT:    -8.393      3.341      4.531
REMARK INTER + INTRA:         -11.344
REMARK INTER:                 -10.183
REMARK INTRA:                  -1.161
REMARK CONF_INDEPENDENT:        1.790
REMARK UNBOUND:                -1.161
REMARK  6 active torsions:
REMARK  status: ('A' for Active; 'I' for Inactive)
REMARK    1  A    between atoms: C_7  and  N_8 
REMARK    2  A    between atoms: N_8  and  C_9 
REMARK    3  A    between atoms: C_9  and  C_10 
REMARK    4  A    between atoms: C_10  and  C_11 
REMARK       I    between atoms: C_11  and  N_13 
REMARK    5  A    between atoms: N_13  and  N_14 
REMARK       I    between atoms: N_14  and  C_15 
REMARK    6  A    between atoms: C_15  and  C_17 
ROOT
ATOM      1  C   UNL d   1      24.757 -17.909  -0.406  0.00  0.00     0.237 C 
ATOM      2  O   UNL d   1      25.076 -18.554   0.594  0.00  0.00    -0.272 OA
ATOM      3  N   UNL d   1      23.478 -17.991  -0.937  0.00  0.00    -0.267 N 
ATOM      4  H   UNL d   1      23.155 -17.481  -1.759  0.00  0.00     0.190 HD
ENDROOT
BRANCH   1   5
ATOM      5  C   UNL d   1      25.731 -16.977  -1.136  0.00  0.00     0.124 C 
BRANCH   5   6
ATOM      6  C   UNL d   1      26.748 -16.385  -0.148  0.00  0.00     0.129 C 
BRANCH   6   7
ATOM      7  N   UNL d   1      26.761 -14.920  -0.135  0.00  0.00    -0.389 N 
ATOM      8  H   UNL d   1      26.561 -14.405  -0.983  0.00  0.00     0.159 HD
BRANCH   7   9
ATOM      9  C   UNL d   1      27.079 -14.196   1.010  0.00  0.00     0.028 A 
ATOM     10  C   UNL d   1      26.716 -12.845   1.117  0.00  0.00     0.036 A 
ATOM     11  C   UNL d   1      27.018 -12.078   2.262  0.00  0.00    -0.059 A 
ATOM     12  C   UNL d   1      27.703 -12.676   3.325  0.00  0.00     0.013 A 
ATOM     13  C   UNL d   1      26.605 -10.636   2.327  0.00  0.00     0.048 C 
ATOM     14  C   UNL d   1      28.075 -14.020   3.252  0.00  0.00    -0.059 A 
ATOM     15  C   UNL d   1      28.800 -14.694   4.378  0.00  0.00     0.048 C 
ATOM     16  C   UNL d   1      27.757 -14.759   2.100  0.00  0.00     0.036 A 
ENDBRANCH   7   9
ENDBRANCH   6   7
ENDBRANCH   5   6
ENDBRANCH   1   5
BRANCH   3  17
ATOM     17  N   UNL d   1      22.518 -18.827  -0.292  0.00  0.00    -0.263 N 
ATOM     18  C   UNL d   1      21.163 -18.627  -0.515  0.00  0.00     0.270 C 
ATOM     19  O   UNL d   1      20.735 -17.733  -1.250  0.00  0.00    -0.266 OA
ATOM     20  H   UNL d   1      22.892 -19.615   0.235  0.00  0.00     0.190 HD
BRANCH  18  21
ATOM     21  C   UNL d   1      20.200 -19.532   0.191  0.00  0.00     0.033 A 
ATOM     22  C   UNL d   1      19.121 -20.097  -0.513  0.00  0.00     0.017 A 
ATOM     23  C   UNL d   1      18.121 -20.813   0.164  0.00  0.00     0.001 A 
ATOM     24  C   UNL d   1      18.217 -21.016   1.538  0.00  0.00     0.000 A 
ATOM     25  C   UNL d   1      19.291 -20.472   2.243  0.00  0.00     0.001 A 
ATOM     26  C   UNL d   1      20.275 -19.727   1.577  0.00  0.00     0.017 A 
ENDBRANCH  18  21
ENDBRANCH   3  17
TORSDOF 6
ENDMDL
MODEL 5
REMARK VINA RESULT:    -8.032      1.918      2.670
REMARK INTER + INTRA:         -10.978
REMARK INTER:                  -9.822
REMARK INTRA:                  -1.156
REMARK CONF_INDEPENDENT:        1.790
REMARK UNBOUND:                -1.156
REMARK  6 active torsions:
REMARK  status: ('A' for Active; 'I' for Inactive)
REMARK    1  A    between atoms: C_7  and  N_8 
REMARK    2  A    between atoms: N_8  and  C_9 
REMARK    3  A    between atoms: C_9  and  C_10 
REMARK    4  A    between atoms: C_10  and  C_11 
REMARK       I    between atoms: C_11  and  N_13 
REMARK    5  A    between atoms: N_13  and  N_14 
REMARK       I    between atoms: N_14  and  C_15 
REMARK    6  A    between atoms: C_15  and  C_17 
ROOT
ATOM      1  C   UNL d   1      24.674 -17.973  -0.397  0.00  0.00     0.237 C 
ATOM      2  O   UNL d   1      24.987 -18.579   0.629  0.00  0.00    -0.272 OA
ATOM      3  N   UNL d   1      23.379 -18.020  -0.893  0.00  0.00    -0.267 N 
ATOM      4  H   UNL d   1      23.060 -17.539  -1.734  0.00  0.00     0.190 HD
ENDROOT
BRANCH   1   5
ATOM      5  C   UNL d   1      25.673 -17.130  -1.199  0.00  0.00     0.124 C 
BRANCH   5   6
ATOM      6  C   UNL d   1      26.822 -16.658  -0.296  0.00  0.00     0.129 C 
BRANCH   6   7
ATOM      7  N   UNL d   1      28.149 -16.922  -0.856  0.00  0.00    -0.389 N 
ATOM      8  H   UNL d   1      28.858 -17.370  -0.289  0.00  0.00     0.159 HD
BRANCH   7   9
ATOM      9  C   UNL d   1      28.491 -16.542  -2.151  0.00  0.00     0.028 A 
ATOM     10  C   UNL d   1      27.714 -15.597  -2.840  0.00  0.00     0.036 A 
ATOM     11  C   UNL d   1      28.028 -15.185  -4.151  0.00  0.00    -0.059 A 
ATOM     12  C   UNL d   1      29.145 -15.732  -4.791  0.00  0.00     0.013 A 
ATOM     13  C   UNL d   1      27.166 -14.169  -4.844  0.00  0.00     0.048 C 
ATOM     14  C   UNL d   1      29.941 -16.671  -4.133  0.00  0.00    -0.059 A 
ATOM     15  C   UNL d   1      31.151 -17.269  -4.787  0.00  0.00     0.048 C 
ATOM     16  C   UNL d   1      29.604 -17.060  -2.825  0.00  0.00     0.036 A 
ENDBRANCH   7   9
ENDBRANCH   6   7
ENDBRANCH   5   6
ENDBRANCH   1   5
BRANCH   3  17
ATOM     17  N   UNL d   1      22.397 -18.771  -0.181  0.00  0.00    -0.263 N 
ATOM     18  C   UNL d   1      21.049 -18.574  -0.444  0.00  0.00     0.270 C 
ATOM     19  O   UNL d   1      20.646 -17.753  -1.272  0.00  0.00    -0.266 OA
ATOM     20  H   UNL d   1      22.751 -19.508   0.428  0.00  0.00     0.190 HD
BRANCH  18  21
ATOM     21  C   UNL d   1      20.061 -19.389   0.336  0.00  0.00     0.033 A 
ATOM     22  C   UNL d   1      20.233 -19.566   1.721  0.00  0.00     0.017 A 
ATOM     23  C   UNL d   1      19.415 -20.454   2.435  0.00  0.00     0.001 A 
ATOM     24  C   UNL d   1      18.385 -21.132   1.786  0.00  0.00     0.000 A 
ATOM     25  C   UNL d   1      18.198 -20.952   0.416  0.00  0.00     0.001 A 
ATOM     26  C   UNL d   1      19.035 -20.091  -0.310  0.00  0.00     0.017 A 
ENDBRANCH  18  21
ENDBRANCH   3  17
TORSDOF 6
ENDMDL
MODEL 6
REMARK VINA RESULT:    -8.009      2.783      4.030
REMARK INTER + INTRA:         -10.917
REMARK INTER:                  -9.799
REMARK INTRA:                  -1.117
REMARK CONF_INDEPENDENT:        1.790
REMARK UNBOUND:                -1.117
REMARK  6 active torsions:
REMARK  status: ('A' for Active; 'I' for Inactive)
REMARK    1  A    between atoms: C_7  and  N_8 
REMARK    2  A    between atoms: N_8  and  C_9 
REMARK    3  A    between atoms: C_9  and  C_10 
REMARK    4  A    between atoms: C_10  and  C_11 
REMARK       I    between atoms: C_11  and  N_13 
REMARK    5  A    between atoms: N_13  and  N_14 
REMARK       I    between atoms: N_14  and  C_15 
REMARK    6  A    between atoms: C_15  and  C_17 
ROOT
ATOM      1  C   UNL d   1      24.815 -18.057  -0.268  0.00  0.00     0.237 C 
ATOM      2  O   UNL d   1      25.034 -18.573   0.829  0.00  0.00    -0.272 OA
ATOM      3  N   UNL d   1      23.578 -18.179  -0.885  0.00  0.00    -0.267 N 
ATOM      4  H   UNL d   1      23.336 -17.773  -1.789  0.00  0.00     0.190 HD
ENDROOT
BRANCH   1   5
ATOM      5  C   UNL d   1      25.872 -17.249  -1.030  0.00  0.00     0.124 C 
BRANCH   5   6
ATOM      6  C   UNL d   1      26.641 -16.331  -0.068  0.00  0.00     0.129 C 
BRANCH   6   7
ATOM      7  N   UNL d   1      28.053 -16.693   0.077  0.00  0.00    -0.389 N 
ATOM      8  H   UNL d   1      28.470 -16.744   0.998  0.00  0.00     0.159 HD
BRANCH   7   9
ATOM      9  C   UNL d   1      28.867 -16.940  -1.024  0.00  0.00     0.028 A 
ATOM     10  C   UNL d   1      29.944 -17.835  -0.922  0.00  0.00     0.036 A 
ATOM     11  C   UNL d   1      30.790 -18.112  -2.016  0.00  0.00    -0.059 A 
ATOM     12  C   UNL d   1      30.557 -17.478  -3.240  0.00  0.00     0.013 A 
ATOM     13  C   UNL d   1      31.928 -19.080  -1.855  0.00  0.00     0.048 C 
ATOM     14  C   UNL d   1      29.492 -16.586  -3.376  0.00  0.00    -0.059 A 
ATOM     15  C   UNL d   1      29.208 -15.897  -4.678  0.00  0.00     0.048 C 
ATOM     16  C   UNL d   1      28.664 -16.331  -2.270  0.00  0.00     0.036 A 
ENDBRANCH   7   9
ENDBRANCH   6   7
ENDBRANCH   5   6
ENDBRANCH   1   5
BRANCH   3  17
ATOM     17  N   UNL d   1      22.544 -18.902  -0.218  0.00  0.00    -0.263 N 
ATOM     18  C   UNL d   1      21.214 -18.608  -0.479  0.00  0.00     0.270 C 
ATOM     19  O   UNL d   1      20.870 -17.723  -1.267  0.00  0.00    -0.266 OA
ATOM     20  H   UNL d   1      22.847 -19.688   0.355  0.00  0.00     0.190 HD
BRANCH  18  21
ATOM     21  C   UNL d   1      20.170 -19.398   0.253  0.00  0.00     0.033 A 
ATOM     22  C   UNL d   1      20.275 -19.583   1.643  0.00  0.00     0.017 A 
ATOM     23  C   UNL d   1      19.402 -20.450   2.317  0.00  0.00     0.001 A 
ATOM     24  C   UNL d   1      18.384 -21.097   1.620  0.00  0.00     0.000 A 
ATOM     25  C   UNL d   1      18.263 -20.908   0.243  0.00  0.00     0.001 A 
ATOM     26  C   UNL d   1      19.155 -20.069  -0.441  0.00  0.00     0.017 A 
ENDBRANCH  18  21
ENDBRANCH   3  17
TORSDOF 6
ENDMDL
MODEL 7
REMARK VINA RESULT:    -7.807      2.925      4.225
REMARK INTER + INTRA:         -10.385
REMARK INTER:                  -9.597
REMARK INTRA:                  -0.788
REMARK CONF_INDEPENDENT:        1.790
REMARK UNBOUND:                -0.788
REMARK  6 active torsions:
REMARK  status: ('A' for Active; 'I' for Inactive)
REMARK    1  A    between atoms: C_7  and  N_8 
REMARK    2  A    between atoms: N_8  and  C_9 
REMARK    3  A    between atoms: C_9  and  C_10 
REMARK    4  A    between atoms: C_10  and  C_11 
REMARK       I    between atoms: C_11  and  N_13 
REMARK    5  A    between atoms: N_13  and  N_14 
REMARK       I    between atoms: N_14  and  C_15 
REMARK    6  A    between atoms: C_15  and  C_17 
ROOT
ATOM      1  C   UNL d   1      24.558 -17.398  -0.179  0.00  0.00     0.237 C 
ATOM      2  O   UNL d   1      24.750 -18.213   0.726  0.00  0.00    -0.272 OA
ATOM      3  N   UNL d   1      23.274 -17.084  -0.602  0.00  0.00    -0.267 N 
ATOM      4  H   UNL d   1      23.052 -16.417  -1.341  0.00  0.00     0.190 HD
ENDROOT
BRANCH   1   5
ATOM      5  C   UNL d   1      25.701 -16.675  -0.900  0.00  0.00     0.124 C 
BRANCH   5   6
ATOM      6  C   UNL d   1      27.060 -17.191  -0.402  0.00  0.00     0.129 C 
BRANCH   6   7
ATOM      7  N   UNL d   1      28.086 -16.149  -0.325  0.00  0.00    -0.389 N 
ATOM      8  H   UNL d   1      28.991 -16.298  -0.752  0.00  0.00     0.159 HD
BRANCH   7   9
ATOM      9  C   UNL d   1      27.872 -14.954   0.356  0.00  0.00     0.028 A 
ATOM     10  C   UNL d   1      27.782 -14.944   1.757  0.00  0.00     0.036 A 
ATOM     11  C   UNL d   1      27.569 -13.754   2.483  0.00  0.00    -0.059 A 
ATOM     12  C   UNL d   1      27.439 -12.545   1.793  0.00  0.00     0.013 A 
ATOM     13  C   UNL d   1      27.482 -13.797   3.982  0.00  0.00     0.048 C 
ATOM     14  C   UNL d   1      27.527 -12.520   0.400  0.00  0.00    -0.059 A 
ATOM     15  C   UNL d   1      27.403 -11.238  -0.370  0.00  0.00     0.048 C 
ATOM     16  C   UNL d   1      27.743 -13.721  -0.296  0.00  0.00     0.036 A 
ENDBRANCH   7   9
ENDBRANCH   6   7
ENDBRANCH   5   6
ENDBRANCH   1   5
BRANCH   3  17
ATOM     17  N   UNL d   1      22.165 -17.707   0.043  0.00  0.00    -0.263 N 
ATOM     18  C   UNL d   1      21.572 -18.826  -0.523  0.00  0.00     0.270 C 
ATOM     19  O   UNL d   1      21.957 -19.314  -1.590  0.00  0.00    -0.266 OA
ATOM     20  H   UNL d   1      21.923 -17.348   0.966  0.00  0.00     0.190 HD
BRANCH  18  21
ATOM     21  C   UNL d   1      20.409 -19.439   0.197  0.00  0.00     0.033 A 
ATOM     22  C   UNL d   1      20.404 -19.497   1.602  0.00  0.00     0.017 A 
ATOM     23  C   UNL d   1      19.405 -20.208   2.285  0.00  0.00     0.001 A 
ATOM     24  C   UNL d   1      18.374 -20.820   1.575  0.00  0.00     0.000 A 
ATOM     25  C   UNL d   1      18.363 -20.755   0.182  0.00  0.00     0.001 A 
ATOM     26  C   UNL d   1      19.377 -20.074  -0.507  0.00  0.00     0.017 A 
ENDBRANCH  18  21
ENDBRANCH   3  17
TORSDOF 6
ENDMDL
MODEL 8
REMARK VINA RESULT:    -6.806      3.871      9.461
REMARK INTER + INTRA:         -10.444
REMARK INTER:                  -8.596
REMARK INTRA:                  -1.848
REMARK CONF_INDEPENDENT:        1.790
REMARK UNBOUND:                -1.848
REMARK  6 active torsions:
REMARK  status: ('A' for Active; 'I' for Inactive)
REMARK    1  A    between atoms: C_7  and  N_8 
REMARK    2  A    between atoms: N_8  and  C_9 
REMARK    3  A    between atoms: C_9  and  C_10 
REMARK    4  A    between atoms: C_10  and  C_11 
REMARK       I    between atoms: C_11  and  N_13 
REMARK    5  A    between atoms: N_13  and  N_14 
REMARK       I    between atoms: N_14  and  C_15 
REMARK    6  A    between atoms: C_15  and  C_17 
ROOT
ATOM      1  C   UNL d   1      27.332 -14.824  -4.615  0.00  0.00     0.237 C 
ATOM      2  O   UNL d   1      26.635 -15.228  -5.547  0.00  0.00    -0.272 OA
ATOM      3  N   UNL d   1      28.613 -15.316  -4.410  0.00  0.00    -0.267 N 
ATOM      4  H   UNL d   1      29.238 -15.021  -3.660  0.00  0.00     0.190 HD
ENDROOT
BRANCH   1   5
ATOM      5  C   UNL d   1      26.852 -13.762  -3.619  0.00  0.00     0.124 C 
BRANCH   5   6
ATOM      6  C   UNL d   1      25.642 -14.280  -2.826  0.00  0.00     0.129 C 
BRANCH   6   7
ATOM      7  N   UNL d   1      25.379 -15.706  -3.032  0.00  0.00    -0.389 N 
ATOM      8  H   UNL d   1      25.375 -16.090  -3.968  0.00  0.00     0.159 HD
BRANCH   7   9
ATOM      9  C   UNL d   1      25.095 -16.563  -1.972  0.00  0.00     0.028 A 
ATOM     10  C   UNL d   1      26.132 -17.066  -1.171  0.00  0.00     0.036 A 
ATOM     11  C   UNL d   1      25.885 -17.935  -0.088  0.00  0.00    -0.059 A 
ATOM     12  C   UNL d   1      24.570 -18.312   0.201  0.00  0.00     0.013 A 
ATOM     13  C   UNL d   1      27.030 -18.444   0.739  0.00  0.00     0.048 C 
ATOM     14  C   UNL d   1      23.515 -17.826  -0.574  0.00  0.00    -0.059 A 
ATOM     15  C   UNL d   1      22.092 -18.202  -0.285  0.00  0.00     0.048 C 
ATOM     16  C   UNL d   1      23.792 -16.960  -1.645  0.00  0.00     0.036 A 
ENDBRANCH   7   9
ENDBRANCH   6   7
ENDBRANCH   5   6
ENDBRANCH   1   5
BRANCH   3  17
ATOM     17  N   UNL d   1      29.128 -16.293  -5.314  0.00  0.00    -0.263 N 
ATOM     18  C   UNL d   1      30.064 -17.218  -4.877  0.00  0.00     0.270 C 
ATOM     19  O   UNL d   1      30.496 -17.231  -3.721  0.00  0.00    -0.266 OA
ATOM     20  H   UNL d   1      28.691 -16.325  -6.235  0.00  0.00     0.190 HD
BRANCH  18  21
ATOM     21  C   UNL d   1      30.572 -18.219  -5.871  0.00  0.00     0.033 A 
ATOM     22  C   UNL d   1      30.845 -17.821  -7.193  0.00  0.00     0.017 A 
ATOM     23  C   UNL d   1      31.164 -18.771  -8.175  0.00  0.00     0.001 A 
ATOM     24  C   UNL d   1      31.266 -20.118  -7.836  0.00  0.00     0.000 A 
ATOM     25  C   UNL d   1      31.011 -20.521  -6.524  0.00  0.00     0.001 A 
ATOM     26  C   UNL d   1      30.659 -19.579  -5.547  0.00  0.00     0.017 A 
ENDBRANCH  18  21
ENDBRANCH   3  17
TORSDOF 6
ENDMDL
MODEL 9
REMARK VINA RESULT:    -6.781      3.817      9.354
REMARK INTER + INTRA:         -10.432
REMARK INTER:                  -8.570
REMARK INTRA:                  -1.861
REMARK CONF_INDEPENDENT:        1.790
REMARK UNBOUND:                -1.861
REMARK  6 active torsions:
REMARK  status: ('A' for Active; 'I' for Inactive)
REMARK    1  A    between atoms: C_7  and  N_8 
REMARK    2  A    between atoms: N_8  and  C_9 
REMARK    3  A    between atoms: C_9  and  C_10 
REMARK    4  A    between atoms: C_10  and  C_11 
REMARK       I    between atoms: C_11  and  N_13 
REMARK    5  A    between atoms: N_13  and  N_14 
REMARK       I    between atoms: N_14  and  C_15 
REMARK    6  A    between atoms: C_15  and  C_17 
ROOT
ATOM      1  C   UNL d   1      27.170 -14.762  -4.690  0.00  0.00     0.237 C 
ATOM      2  O   UNL d   1      26.461 -15.249  -5.572  0.00  0.00    -0.272 OA
ATOM      3  N   UNL d   1      28.473 -15.195  -4.494  0.00  0.00    -0.267 N 
ATOM      4  H   UNL d   1      29.108 -14.829  -3.784  0.00  0.00     0.190 HD
ENDROOT
BRANCH   1   5
ATOM      5  C   UNL d   1      26.679 -13.653  -3.751  0.00  0.00     0.124 C 
BRANCH   5   6
ATOM      6  C   UNL d   1      25.609 -14.197  -2.794  0.00  0.00     0.129 C 
BRANCH   6   7
ATOM      7  N   UNL d   1      25.327 -15.622  -2.985  0.00  0.00    -0.389 N 
ATOM      8  H   UNL d   1      25.267 -16.004  -3.921  0.00  0.00     0.159 HD
BRANCH   7   9
ATOM      9  C   UNL d   1      25.099 -16.479  -1.912  0.00  0.00     0.028 A 
ATOM     10  C   UNL d   1      23.804 -16.948  -1.645  0.00  0.00     0.036 A 
ATOM     11  C   UNL d   1      23.532 -17.819  -0.569  0.00  0.00    -0.059 A 
ATOM     12  C   UNL d   1      24.580 -18.228   0.261  0.00  0.00     0.013 A 
ATOM     13  C   UNL d   1      22.128 -18.295  -0.327  0.00  0.00     0.048 C 
ATOM     14  C   UNL d   1      25.881 -17.783   0.020  0.00  0.00    -0.059 A 
ATOM     15  C   UNL d   1      27.029 -18.211   0.885  0.00  0.00     0.048 C 
ATOM     16  C   UNL d   1      26.121 -16.918  -1.061  0.00  0.00     0.036 A 
ENDBRANCH   7   9
ENDBRANCH   6   7
ENDBRANCH   5   6
ENDBRANCH   1   5
BRANCH   3  17
ATOM     17  N   UNL d   1      28.997 -16.210  -5.348  0.00  0.00    -0.263 N 
ATOM     18  C   UNL d   1      29.989 -17.063  -4.885  0.00  0.00     0.270 C 
ATOM     19  O   UNL d   1      30.462 -16.977  -3.749  0.00  0.00    -0.266 OA
ATOM     20  H   UNL d   1      28.529 -16.325  -6.246  0.00  0.00     0.190 HD
BRANCH  18  21
ATOM     21  C   UNL d   1      30.503 -18.110  -5.827  0.00  0.00     0.033 A 
ATOM     22  C   UNL d   1      30.927 -17.746  -7.118  0.00  0.00     0.017 A 
ATOM     23  C   UNL d   1      31.257 -18.727  -8.065  0.00  0.00     0.001 A 
ATOM     24  C   UNL d   1      31.219 -20.075  -7.717  0.00  0.00     0.000 A 
ATOM     25  C   UNL d   1      30.814 -20.444  -6.434  0.00  0.00     0.001 A 
ATOM     26  C   UNL d   1      30.450 -19.469  -5.494  0.00  0.00     0.017 A 
ENDBRANCH  18  21
ENDBRANCH   3  17
TORSDOF 6
ENDMDL
