MODEL 1
REMARK VINA RESULT:   -14.137      0.000      0.000
REMARK INTER + INTRA:         -16.531
REMARK INTER:                 -15.629
REMARK INTRA:                  -0.902
REMARK CONF_INDEPENDENT:        1.492
REMARK UNBOUND:                -0.902
REMARK  5 active torsions:
REMARK  status: ('A' for Active; 'I' for Inactive)
REMARK    1  A    between atoms: C_2  and  C_4 
REMARK    2  A    between atoms: C_4  and  N_5 
REMARK       I    between atoms: N_5  and  C_6 
REMARK       I    between atoms: C_6  and  N_8 
REMARK    3  A    between atoms: N_8  and  N_9 
REMARK       I    between atoms: N_9  and  C_10 
REMARK    4  A    between atoms: C_10  and  C_12 
REMARK    5  A    between atoms: C_15  and  C_16 
ROOT
ATOM      1  N   UNL d   1      23.564 -18.833  -0.903  0.00  0.00    -0.261 N 
ATOM      2  C   UNL d   1      22.355 -18.153  -0.972  0.00  0.00     0.286 C 
ATOM      3  O   UNL d   1      22.254 -16.964  -1.275  0.00  0.00    -0.264 OA
ATOM      4  H   UNL d   1      23.651 -19.818  -0.661  0.00  0.00     0.190 HD
ENDROOT
BRANCH   2   5
ATOM      5  C   UNL d   1      21.103 -18.953  -0.595  0.00  0.00     0.133 C 
ATOM      6  N   UNL d   1      19.896 -18.600  -0.896  0.00  0.00    -0.132 NA
ATOM      7  O   UNL d   1      19.009 -19.552  -0.306  0.00  0.00    -0.245 OA
ATOM      8  C   UNL d   1      19.758 -20.503   0.482  0.00  0.00     0.193 C 
ATOM      9  C   UNL d   1      21.226 -20.195   0.188  0.00  0.00     0.107 C 
BRANCH   8  10
ATOM     10  C   UNL d   1      19.319 -20.481   1.945  0.00  0.00    -0.027 A 
ATOM     11  C   UNL d   1      20.200 -20.825   2.991  0.00  0.00     0.010 A 
ATOM     12  C   UNL d   1      19.756 -20.840   4.324  0.00  0.00     0.001 A 
ATOM     13  C   UNL d   1      18.459 -20.442   4.643  0.00  0.00     0.000 A 
ATOM     14  C   UNL d   1      17.595 -20.061   3.631  0.00  0.00     0.001 A 
ATOM     15  C   UNL d   1      18.026 -20.078   2.310  0.00  0.00     0.010 A 
ENDBRANCH   8  10
ENDBRANCH   2   5
BRANCH   1  16
ATOM     16  N   UNL d   1      24.801 -18.176  -1.224  0.00  0.00    -0.249 N 
ATOM     17  C   UNL d   1      25.661 -17.829  -0.191  0.00  0.00     0.334 C 
ATOM     18  N   UNL d   1      26.832 -17.214  -0.586  0.00  0.00    -0.341 N 
ATOM     19  O   UNL d   1      25.379 -18.049   0.986  0.00  0.00    -0.246 OA
ATOM     20  H   UNL d   1      27.011 -17.074  -1.569  0.00  0.00     0.164 HD
ATOM     21  H   UNL d   1      25.013 -18.053  -2.210  0.00  0.00     0.192 HD
BRANCH  18  22
ATOM     22  C   UNL d   1      27.856 -16.800   0.385  0.00  0.00     0.128 C 
BRANCH  22  23
ATOM     23  C   UNL d   1      27.984 -15.271   0.579  0.00  0.00    -0.005 C 
ATOM     24  C   UNL d   1      29.414 -14.787   0.281  0.00  0.00     0.011 C 
ATOM     25  C   UNL d   1      27.014 -14.514  -0.327  0.00  0.00     0.011 C 
ENDBRANCH  22  23
ENDBRANCH  18  22
ENDBRANCH   1  16
TORSDOF 5
ENDMDL
