MODEL 1
REMARK VINA RESULT:    -8.709      0.000      0.000
REMARK INTER + INTRA:         -12.513
REMARK INTER:                 -10.498
REMARK INTRA:                  -2.015
REMARK CONF_INDEPENDENT:        1.790
REMARK UNBOUND:                -2.015
REMARK  6 active torsions:
REMARK  status: ('A' for Active; 'I' for Inactive)
REMARK    1  A    between atoms: O_2  and  C_3 
REMARK    2  A    between atoms: C_8  and  N_9 
REMARK    3  A    between atoms: C_17  and  C_18 
REMARK    4  A    between atoms: C_18  and  O_19 
REMARK    5  A    between atoms: C_22  and  C_23 
REMARK       I    between atoms: C_23  and  N_25 
REMARK    6  A    between atoms: N_25  and  C_26 
ROOT
ATOM      1  N   UNL d   1      28.354 -15.732  -2.980  0.00  0.00    -0.334 N 
ATOM      2  C   UNL d   1      27.271 -15.614  -2.273  0.00  0.00     0.164 C 
ATOM      3  O   UNL d   1      27.180 -16.223  -0.991  0.00  0.00    -0.290 OA
ATOM      4  C   UNL d   1      25.951 -16.867  -0.524  0.00  0.00     0.113 C 
ATOM      5  C   UNL d   1      25.907 -18.049   0.290  0.00  0.00     0.065 C 
ATOM      6  C   UNL d   1      27.011 -19.050   0.605  0.00  0.00     0.073 C 
ATOM      7  N   UNL d   1      24.707 -18.573   0.659  0.00  0.00    -0.262 NA
ATOM      8  C   UNL d   1      23.573 -17.969   0.250  0.00  0.00     0.127 C 
ATOM      9  C   UNL d   1      23.527 -16.891  -0.639  0.00  0.00    -0.004 C 
ATOM     10  C   UNL d   1      24.760 -16.390  -1.108  0.00  0.00     0.011 C 
ATOM     11  C   UNL d   1      24.884 -15.492  -2.277  0.00  0.00     0.036 C 
ATOM     12  C   UNL d   1      26.032 -15.065  -2.837  0.00  0.00     0.084 C 
ATOM     13  H   UNL d   1      28.345 -15.443  -3.942  0.00  0.00     0.168 HD
ENDROOT
BRANCH  12  14
ATOM     14  C   UNL d   1      25.857 -14.216  -4.083  0.00  0.00     0.260 C 
ATOM     15  O   UNL d   1      24.770 -14.129  -4.611  0.00  0.00    -0.267 OA
ATOM     16  N   UNL d   1      26.983 -13.599  -4.613  0.00  0.00    -0.321 N 
ATOM     17  H   UNL d   1      27.927 -13.659  -4.331  0.00  0.00     0.169 HD
BRANCH  16  18
ATOM     18  C   UNL d   1      26.936 -12.491  -5.476  0.00  0.00     0.056 A 
ATOM     19  C   UNL d   1      25.903 -11.570  -5.206  0.00  0.00     0.031 A 
ATOM     20  C   UNL d   1      25.590 -10.588  -6.136  0.00  0.00     0.002 A 
ATOM     21  C   UNL d   1      26.339 -10.493  -7.304  0.00  0.00     0.002 A 
ATOM     22  C   UNL d   1      27.355 -11.411  -7.577  0.00  0.00     0.026 A 
ATOM     23  C   UNL d   1      27.650 -12.427  -6.679  0.00  0.00     0.060 A 
ATOM     24 CL   UNL d   1      28.706 -13.674  -7.249  0.00  0.00    -0.082 Cl
ENDBRANCH  16  18
ENDBRANCH  12  14
BRANCH   1  25
ATOM     25  C   UNL d   1      29.477 -16.546  -2.836  0.00  0.00     0.067 C 
ATOM     26  C   UNL d   1      30.132 -16.639  -1.595  0.00  0.00     0.032 C 
ATOM     27  C   UNL d   1      31.202 -17.533  -1.455  0.00  0.00     0.002 C 
ATOM     28  C   UNL d   1      31.584 -18.333  -2.530  0.00  0.00     0.003 C 
ATOM     29  C   UNL d   1      31.033 -18.100  -3.780  0.00  0.00     0.039 C 
ATOM     30  C   UNL d   1      30.069 -17.119  -3.932  0.00  0.00     0.094 C 
BRANCH  30  31
ATOM     31  O   UNL d   1      29.763 -16.797  -5.195  0.00  0.00    -0.354 OA
ATOM     32  C   UNL d   1      30.709 -16.823  -6.259  0.00  0.00     0.210 C 
ENDBRANCH  30  31
ENDBRANCH   1  25
BRANCH   9  33
ATOM     33  C   UNL d   1      22.157 -16.308  -0.895  0.00  0.00     0.205 C 
BRANCH  33  34
ATOM     34  O   UNL d   1      21.110 -17.252  -0.979  0.00  0.00    -0.396 OA
ATOM     35  H   UNL d   1      20.315 -16.773  -1.269  0.00  0.00     0.209 HD
ENDBRANCH  33  34
ENDBRANCH   9  33
TORSDOF 6
ENDMDL
MODEL 2
REMARK VINA RESULT:    -8.146      2.584      6.097
REMARK INTER + INTRA:         -11.901
REMARK INTER:                  -9.936
REMARK INTRA:                  -1.965
REMARK CONF_INDEPENDENT:        1.790
REMARK UNBOUND:                -1.965
REMARK  6 active torsions:
REMARK  status: ('A' for Active; 'I' for Inactive)
REMARK    1  A    between atoms: O_2  and  C_3 
REMARK    2  A    between atoms: C_8  and  N_9 
REMARK    3  A    between atoms: C_17  and  C_18 
REMARK    4  A    between atoms: C_18  and  O_19 
REMARK    5  A    between atoms: C_22  and  C_23 
REMARK       I    between atoms: C_23  and  N_25 
REMARK    6  A    between atoms: N_25  and  C_26 
ROOT
ATOM      1  N   UNL d   1      26.105 -15.049  -2.849  0.00  0.00    -0.334 N 
ATOM      2  C   UNL d   1      26.602 -14.873  -4.035  0.00  0.00     0.164 C 
ATOM      3  O   UNL d   1      27.391 -15.889  -4.642  0.00  0.00    -0.290 OA
ATOM      4  C   UNL d   1      28.584 -15.576  -5.432  0.00  0.00     0.113 C 
ATOM      5  C   UNL d   1      29.778 -16.373  -5.458  0.00  0.00     0.065 C 
ATOM      6  C   UNL d   1      30.218 -17.490  -4.520  0.00  0.00     0.073 C 
ATOM      7  N   UNL d   1      30.835 -15.983  -6.219  0.00  0.00    -0.262 NA
ATOM      8  C   UNL d   1      30.742 -14.848  -6.942  0.00  0.00     0.127 C 
ATOM      9  C   UNL d   1      29.667 -13.957  -6.879  0.00  0.00    -0.004 C 
ATOM     10  C   UNL d   1      28.598 -14.296  -6.022  0.00  0.00     0.011 C 
ATOM     11  C   UNL d   1      27.559 -13.334  -5.594  0.00  0.00     0.036 C 
ATOM     12  C   UNL d   1      26.578 -13.565  -4.701  0.00  0.00     0.084 C 
ATOM     13  H   UNL d   1      25.695 -14.268  -2.368  0.00  0.00     0.168 HD
ENDROOT
BRANCH  12  14
ATOM     14  C   UNL d   1      25.702 -12.363  -4.391  0.00  0.00     0.260 C 
ATOM     15  O   UNL d   1      24.856 -12.436  -3.529  0.00  0.00    -0.267 OA
ATOM     16  N   UNL d   1      25.874 -11.219  -5.158  0.00  0.00    -0.321 N 
ATOM     17  H   UNL d   1      26.462 -11.063  -5.936  0.00  0.00     0.169 HD
BRANCH  16  18
ATOM     18  C   UNL d   1      25.462  -9.937  -4.756  0.00  0.00     0.056 A 
ATOM     19  C   UNL d   1      24.782  -9.194  -5.743  0.00  0.00     0.031 A 
ATOM     20  C   UNL d   1      24.565  -7.835  -5.559  0.00  0.00     0.002 A 
ATOM     21  C   UNL d   1      24.974  -7.235  -4.373  0.00  0.00     0.002 A 
ATOM     22  C   UNL d   1      25.656  -7.968  -3.400  0.00  0.00     0.026 A 
ATOM     23  C   UNL d   1      25.923  -9.316  -3.589  0.00  0.00     0.060 A 
ATOM     24 CL   UNL d   1      27.025 -10.045  -2.471  0.00  0.00    -0.082 Cl
ENDBRANCH  16  18
ENDBRANCH  12  14
BRANCH   1  25
ATOM     25  C   UNL d   1      26.344 -16.016  -1.873  0.00  0.00     0.067 C 
ATOM     26  C   UNL d   1      27.650 -16.480  -1.636  0.00  0.00     0.032 C 
ATOM     27  C   UNL d   1      27.873 -17.384  -0.590  0.00  0.00     0.002 C 
ATOM     28  C   UNL d   1      26.811 -17.790   0.216  0.00  0.00     0.003 C 
ATOM     29  C   UNL d   1      25.516 -17.450  -0.144  0.00  0.00     0.039 C 
ATOM     30  C   UNL d   1      25.301 -16.663  -1.262  0.00  0.00     0.094 C 
BRANCH  30  31
ATOM     31  O   UNL d   1      24.029 -16.577  -1.674  0.00  0.00    -0.354 OA
ATOM     32  C   UNL d   1      22.914 -16.713  -0.799  0.00  0.00     0.210 C 
ENDBRANCH  30  31
ENDBRANCH   1  25
BRANCH   9  33
ATOM     33  C   UNL d   1      29.723 -12.791  -7.838  0.00  0.00     0.205 C 
BRANCH  33  34
ATOM     34  O   UNL d   1      28.753 -12.813  -8.866  0.00  0.00    -0.396 OA
ATOM     35  H   UNL d   1      28.902 -13.624  -9.382  0.00  0.00     0.209 HD
ENDBRANCH  33  34
ENDBRANCH   9  33
TORSDOF 6
ENDMDL
MODEL 3
REMARK VINA RESULT:    -8.094      2.330      6.909
REMARK INTER + INTRA:         -11.953
REMARK INTER:                  -9.883
REMARK INTRA:                  -2.070
REMARK CONF_INDEPENDENT:        1.790
REMARK UNBOUND:                -2.070
REMARK  6 active torsions:
REMARK  status: ('A' for Active; 'I' for Inactive)
REMARK    1  A    between atoms: O_2  and  C_3 
REMARK    2  A    between atoms: C_8  and  N_9 
REMARK    3  A    between atoms: C_17  and  C_18 
REMARK    4  A    between atoms: C_18  and  O_19 
REMARK    5  A    between atoms: C_22  and  C_23 
REMARK       I    between atoms: C_23  and  N_25 
REMARK    6  A    between atoms: N_25  and  C_26 
ROOT
ATOM      1  N   UNL d   1      27.990 -15.470  -4.972  0.00  0.00    -0.334 N 
ATOM      2  C   UNL d   1      27.270 -14.431  -5.271  0.00  0.00     0.164 C 
ATOM      3  O   UNL d   1      27.627 -13.603  -6.371  0.00  0.00    -0.290 OA
ATOM      4  C   UNL d   1      27.504 -12.144  -6.314  0.00  0.00     0.113 C 
ATOM      5  C   UNL d   1      28.416 -11.223  -6.931  0.00  0.00     0.065 C 
ATOM      6  C   UNL d   1      29.808 -11.473  -7.497  0.00  0.00     0.073 C 
ATOM      7  N   UNL d   1      28.215  -9.884  -6.805  0.00  0.00    -0.262 NA
ATOM      8  C   UNL d   1      27.154  -9.442  -6.099  0.00  0.00     0.127 C 
ATOM      9  C   UNL d   1      26.292 -10.266  -5.370  0.00  0.00    -0.004 C 
ATOM     10  C   UNL d   1      26.539 -11.655  -5.410  0.00  0.00     0.011 C 
ATOM     11  C   UNL d   1      25.942 -12.618  -4.459  0.00  0.00     0.036 C 
ATOM     12  C   UNL d   1      26.217 -13.933  -4.378  0.00  0.00     0.084 C 
ATOM     13  H   UNL d   1      27.826 -15.946  -4.103  0.00  0.00     0.168 HD
ENDROOT
BRANCH  12  14
ATOM     14  C   UNL d   1      25.516 -14.663  -3.246  0.00  0.00     0.260 C 
ATOM     15  O   UNL d   1      24.346 -14.450  -3.019  0.00  0.00    -0.267 OA
ATOM     16  N   UNL d   1      26.271 -15.527  -2.464  0.00  0.00    -0.321 N 
ATOM     17  H   UNL d   1      27.239 -15.721  -2.491  0.00  0.00     0.169 HD
BRANCH  16  18
ATOM     18  C   UNL d   1      25.721 -16.554  -1.677  0.00  0.00     0.056 A 
ATOM     19  C   UNL d   1      24.405 -16.926  -2.020  0.00  0.00     0.031 A 
ATOM     20  C   UNL d   1      23.666 -17.729  -1.161  0.00  0.00     0.002 A 
ATOM     21  C   UNL d   1      24.258 -18.201   0.006  0.00  0.00     0.002 A 
ATOM     22  C   UNL d   1      25.557 -17.825   0.350  0.00  0.00     0.026 A 
ATOM     23  C   UNL d   1      26.293 -16.986  -0.474  0.00  0.00     0.060 A 
ATOM     24 CL   UNL d   1      27.758 -16.348   0.190  0.00  0.00    -0.082 Cl
ENDBRANCH  16  18
ENDBRANCH  12  14
BRANCH   1  25
ATOM     25  C   UNL d   1      29.248 -15.888  -5.406  0.00  0.00     0.067 C 
ATOM     26  C   UNL d   1      29.670 -15.623  -6.721  0.00  0.00     0.032 C 
ATOM     27  C   UNL d   1      30.972 -15.974  -7.102  0.00  0.00     0.002 C 
ATOM     28  C   UNL d   1      31.835 -16.552  -6.174  0.00  0.00     0.003 C 
ATOM     29  C   UNL d   1      31.341 -16.953  -4.943  0.00  0.00     0.039 C 
ATOM     30  C   UNL d   1      30.013 -16.719  -4.629  0.00  0.00     0.094 C 
BRANCH  30  31
ATOM     31  O   UNL d   1      29.559 -17.338  -3.532  0.00  0.00    -0.354 OA
ATOM     32  C   UNL d   1      30.055 -17.074  -2.224  0.00  0.00     0.210 C 
ENDBRANCH  30  31
ENDBRANCH   1  25
BRANCH   9  33
ATOM     33  C   UNL d   1      25.115  -9.575  -4.722  0.00  0.00     0.205 C 
BRANCH  33  34
ATOM     34  O   UNL d   1      25.251  -9.331  -3.337  0.00  0.00    -0.396 OA
ATOM     35  H   UNL d   1      24.469  -8.825  -3.057  0.00  0.00     0.209 HD
ENDBRANCH  33  34
ENDBRANCH   9  33
TORSDOF 6
ENDMDL
MODEL 4
REMARK VINA RESULT:    -7.827      2.722      8.296
REMARK INTER + INTRA:         -11.287
REMARK INTER:                  -9.617
REMARK INTRA:                  -1.671
REMARK CONF_INDEPENDENT:        1.790
REMARK UNBOUND:                -1.671
REMARK  6 active torsions:
REMARK  status: ('A' for Active; 'I' for Inactive)
REMARK    1  A    between atoms: O_2  and  C_3 
REMARK    2  A    between atoms: C_8  and  N_9 
REMARK    3  A    between atoms: C_17  and  C_18 
REMARK    4  A    between atoms: C_18  and  O_19 
REMARK    5  A    between atoms: C_22  and  C_23 
REMARK       I    between atoms: C_23  and  N_25 
REMARK    6  A    between atoms: N_25  and  C_26 
ROOT
ATOM      1  N   UNL d   1      25.732 -11.674  -4.162  0.00  0.00    -0.334 N 
ATOM      2  C   UNL d   1      26.740 -12.492  -4.142  0.00  0.00     0.164 C 
ATOM      3  O   UNL d   1      27.995 -12.100  -4.685  0.00  0.00    -0.290 OA
ATOM      4  C   UNL d   1      28.831 -13.026  -5.452  0.00  0.00     0.113 C 
ATOM      5  C   UNL d   1      29.634 -12.656  -6.583  0.00  0.00     0.065 C 
ATOM      6  C   UNL d   1      29.602 -11.382  -7.418  0.00  0.00     0.073 C 
ATOM      7  N   UNL d   1      30.366 -13.600  -7.233  0.00  0.00    -0.262 NA
ATOM      8  C   UNL d   1      30.324 -14.877  -6.799  0.00  0.00     0.127 C 
ATOM      9  C   UNL d   1      29.479 -15.340  -5.787  0.00  0.00    -0.004 C 
ATOM     10  C   UNL d   1      28.641 -14.392  -5.162  0.00  0.00     0.011 C 
ATOM     11  C   UNL d   1      27.480 -14.758  -4.321  0.00  0.00     0.036 C 
ATOM     12  C   UNL d   1      26.584 -13.908  -3.785  0.00  0.00     0.084 C 
ATOM     13  H   UNL d   1      24.818 -12.018  -3.930  0.00  0.00     0.168 HD
ENDROOT
BRANCH  12  14
ATOM     14  C   UNL d   1      25.443 -14.572  -3.035  0.00  0.00     0.260 C 
ATOM     15  O   UNL d   1      24.300 -14.403  -3.396  0.00  0.00    -0.267 OA
ATOM     16  N   UNL d   1      25.756 -15.323  -1.910  0.00  0.00    -0.321 N 
ATOM     17  H   UNL d   1      26.627 -15.467  -1.469  0.00  0.00     0.169 HD
BRANCH  16  18
ATOM     18  C   UNL d   1      24.911 -16.305  -1.364  0.00  0.00     0.056 A 
ATOM     19  C   UNL d   1      23.547 -15.952  -1.310  0.00  0.00     0.031 A 
ATOM     20  C   UNL d   1      22.663 -16.716  -0.559  0.00  0.00     0.002 A 
ATOM     21  C   UNL d   1      23.130 -17.855   0.088  0.00  0.00     0.002 A 
ATOM     22  C   UNL d   1      24.482 -18.199   0.043  0.00  0.00     0.026 A 
ATOM     23  C   UNL d   1      25.386 -17.421  -0.665  0.00  0.00     0.060 A 
ATOM     24 CL   UNL d   1      27.063 -17.763  -0.405  0.00  0.00    -0.082 Cl
ENDBRANCH  16  18
ENDBRANCH  12  14
BRANCH   1  25
ATOM     25  C   UNL d   1      25.530 -10.460  -4.819  0.00  0.00     0.067 C 
ATOM     26  C   UNL d   1      25.889 -10.316  -6.171  0.00  0.00     0.032 C 
ATOM     27  C   UNL d   1      25.592  -9.115  -6.830  0.00  0.00     0.002 C 
ATOM     28  C   UNL d   1      24.925  -8.098  -6.151  0.00  0.00     0.003 C 
ATOM     29  C   UNL d   1      24.736  -8.202  -4.782  0.00  0.00     0.039 C 
ATOM     30  C   UNL d   1      25.157  -9.342  -4.119  0.00  0.00     0.094 C 
BRANCH  30  31
ATOM     31  O   UNL d   1      25.155  -9.269  -2.782  0.00  0.00    -0.354 OA
ATOM     32  C   UNL d   1      26.185  -8.631  -2.033  0.00  0.00     0.210 C 
ENDBRANCH  30  31
ENDBRANCH   1  25
BRANCH   9  33
ATOM     33  C   UNL d   1      29.655 -16.789  -5.396  0.00  0.00     0.205 C 
BRANCH  33  34
ATOM     34  O   UNL d   1      29.396 -17.080  -4.038  0.00  0.00    -0.396 OA
ATOM     35  H   UNL d   1      29.487 -18.042  -3.928  0.00  0.00     0.209 HD
ENDBRANCH  33  34
ENDBRANCH   9  33
TORSDOF 6
ENDMDL
MODEL 5
REMARK VINA RESULT:    -7.747      4.094      8.000
REMARK INTER + INTRA:         -11.499
REMARK INTER:                  -9.537
REMARK INTRA:                  -1.962
REMARK CONF_INDEPENDENT:        1.790
REMARK UNBOUND:                -1.962
REMARK  6 active torsions:
REMARK  status: ('A' for Active; 'I' for Inactive)
REMARK    1  A    between atoms: O_2  and  C_3 
REMARK    2  A    between atoms: C_8  and  N_9 
REMARK    3  A    between atoms: C_17  and  C_18 
REMARK    4  A    between atoms: C_18  and  O_19 
REMARK    5  A    between atoms: C_22  and  C_23 
REMARK       I    between atoms: C_23  and  N_25 
REMARK    6  A    between atoms: N_25  and  C_26 
ROOT
ATOM      1  N   UNL d   1      25.793 -15.772   0.036  0.00  0.00    -0.334 N 
ATOM      2  C   UNL d   1      26.422 -14.939  -0.737  0.00  0.00     0.164 C 
ATOM      3  O   UNL d   1      25.949 -14.685  -2.055  0.00  0.00    -0.290 OA
ATOM      4  C   UNL d   1      26.861 -14.523  -3.188  0.00  0.00     0.113 C 
ATOM      5  C   UNL d   1      26.596 -14.981  -4.523  0.00  0.00     0.065 C 
ATOM      6  C   UNL d   1      25.530 -15.950  -5.019  0.00  0.00     0.073 C 
ATOM      7  N   UNL d   1      27.520 -14.790  -5.501  0.00  0.00    -0.262 NA
ATOM      8  C   UNL d   1      28.678 -14.168  -5.199  0.00  0.00     0.127 C 
ATOM      9  C   UNL d   1      29.064 -13.801  -3.906  0.00  0.00    -0.004 C 
ATOM     10  C   UNL d   1      28.157 -14.076  -2.860  0.00  0.00     0.011 C 
ATOM     11  C   UNL d   1      28.532 -14.056  -1.429  0.00  0.00     0.036 C 
ATOM     12  C   UNL d   1      27.747 -14.409  -0.395  0.00  0.00     0.084 C 
ATOM     13  H   UNL d   1      26.226 -16.066   0.893  0.00  0.00     0.168 HD
ENDROOT
BRANCH  12  14
ATOM     14  C   UNL d   1      28.425 -14.370   0.964  0.00  0.00     0.260 C 
ATOM     15  O   UNL d   1      29.631 -14.287   1.038  0.00  0.00    -0.267 OA
ATOM     16  N   UNL d   1      27.626 -14.485   2.093  0.00  0.00    -0.321 N 
ATOM     17  H   UNL d   1      26.654 -14.641   2.165  0.00  0.00     0.169 HD
BRANCH  16  18
ATOM     18  C   UNL d   1      28.018 -14.067   3.376  0.00  0.00     0.056 A 
ATOM     19  C   UNL d   1      28.162 -15.105   4.321  0.00  0.00     0.031 A 
ATOM     20  C   UNL d   1      28.282 -14.801   5.670  0.00  0.00     0.002 A 
ATOM     21  C   UNL d   1      28.313 -13.468   6.067  0.00  0.00     0.002 A 
ATOM     22  C   UNL d   1      28.160 -12.441   5.134  0.00  0.00     0.026 A 
ATOM     23  C   UNL d   1      27.993 -12.729   3.787  0.00  0.00     0.060 A 
ATOM     24 CL   UNL d   1      27.514 -11.411   2.773  0.00  0.00    -0.082 Cl
ENDBRANCH  16  18
ENDBRANCH  12  14
BRANCH   1  25
ATOM     25  C   UNL d   1      24.779 -16.694  -0.217  0.00  0.00     0.067 C 
ATOM     26  C   UNL d   1      23.487 -16.255  -0.557  0.00  0.00     0.032 C 
ATOM     27  C   UNL d   1      22.512 -17.203  -0.894  0.00  0.00     0.002 C 
ATOM     28  C   UNL d   1      22.838 -18.557  -0.915  0.00  0.00     0.003 C 
ATOM     29  C   UNL d   1      24.063 -18.970  -0.415  0.00  0.00     0.039 C 
ATOM     30  C   UNL d   1      24.969 -18.028   0.041  0.00  0.00     0.094 C 
BRANCH  30  31
ATOM     31  O   UNL d   1      26.018 -18.512   0.718  0.00  0.00    -0.354 OA
ATOM     32  C   UNL d   1      27.355 -18.455   0.231  0.00  0.00     0.210 C 
ENDBRANCH  30  31
ENDBRANCH   1  25
BRANCH   9  33
ATOM     33  C   UNL d   1      30.362 -13.035  -3.801  0.00  0.00     0.205 C 
BRANCH  33  34
ATOM     34  O   UNL d   1      30.229 -11.678  -3.431  0.00  0.00    -0.396 OA
ATOM     35  H   UNL d   1      31.031 -11.436  -2.936  0.00  0.00     0.209 HD
ENDBRANCH  33  34
ENDBRANCH   9  33
TORSDOF 6
ENDMDL
MODEL 6
REMARK VINA RESULT:    -7.669      2.534      5.874
REMARK INTER + INTRA:         -11.697
REMARK INTER:                  -9.459
REMARK INTRA:                  -2.238
REMARK CONF_INDEPENDENT:        1.790
REMARK UNBOUND:                -2.238
REMARK  6 active torsions:
REMARK  status: ('A' for Active; 'I' for Inactive)
REMARK    1  A    between atoms: O_2  and  C_3 
REMARK    2  A    between atoms: C_8  and  N_9 
REMARK    3  A    between atoms: C_17  and  C_18 
REMARK    4  A    between atoms: C_18  and  O_19 
REMARK    5  A    between atoms: C_22  and  C_23 
REMARK       I    between atoms: C_23  and  N_25 
REMARK    6  A    between atoms: N_25  and  C_26 
ROOT
ATOM      1  N   UNL d   1      25.876 -15.036  -2.914  0.00  0.00    -0.334 N 
ATOM      2  C   UNL d   1      26.459 -14.849  -4.059  0.00  0.00     0.164 C 
ATOM      3  O   UNL d   1      27.261 -15.874  -4.633  0.00  0.00    -0.290 OA
ATOM      4  C   UNL d   1      28.514 -15.578  -5.332  0.00  0.00     0.113 C 
ATOM      5  C   UNL d   1      29.686 -16.406  -5.293  0.00  0.00     0.065 C 
ATOM      6  C   UNL d   1      30.030 -17.553  -4.352  0.00  0.00     0.073 C 
ATOM      7  N   UNL d   1      30.803 -16.030  -5.971  0.00  0.00    -0.262 NA
ATOM      8  C   UNL d   1      30.790 -14.878  -6.673  0.00  0.00     0.127 C 
ATOM      9  C   UNL d   1      29.736 -13.960  -6.664  0.00  0.00    -0.004 C 
ATOM     10  C   UNL d   1      28.602 -14.286  -5.890  0.00  0.00     0.011 C 
ATOM     11  C   UNL d   1      27.561 -13.305  -5.514  0.00  0.00     0.036 C 
ATOM     12  C   UNL d   1      26.515 -13.528  -4.696  0.00  0.00     0.084 C 
ATOM     13  H   UNL d   1      25.454 -14.254  -2.446  0.00  0.00     0.168 HD
ENDROOT
BRANCH  12  14
ATOM     14  C   UNL d   1      25.651 -12.309  -4.420  0.00  0.00     0.260 C 
ATOM     15  O   UNL d   1      24.780 -12.360  -3.581  0.00  0.00    -0.267 OA
ATOM     16  N   UNL d   1      25.862 -11.175  -5.192  0.00  0.00    -0.321 N 
ATOM     17  H   UNL d   1      26.474 -11.035  -5.954  0.00  0.00     0.169 HD
BRANCH  16  18
ATOM     18  C   UNL d   1      25.461  -9.883  -4.812  0.00  0.00     0.056 A 
ATOM     19  C   UNL d   1      24.780  -9.154  -5.809  0.00  0.00     0.031 A 
ATOM     20  C   UNL d   1      24.571  -7.791  -5.650  0.00  0.00     0.002 A 
ATOM     21  C   UNL d   1      24.993  -7.170  -4.479  0.00  0.00     0.002 A 
ATOM     22  C   UNL d   1      25.676  -7.889  -3.496  0.00  0.00     0.026 A 
ATOM     23  C   UNL d   1      25.933  -9.242  -3.660  0.00  0.00     0.060 A 
ATOM     24 CL   UNL d   1      27.039  -9.956  -2.536  0.00  0.00    -0.082 Cl
ENDBRANCH  16  18
ENDBRANCH  12  14
BRANCH   1  25
ATOM     25  C   UNL d   1      26.021 -16.029  -1.946  0.00  0.00     0.067 C 
ATOM     26  C   UNL d   1      24.892 -16.683  -1.423  0.00  0.00     0.032 C 
ATOM     27  C   UNL d   1      25.073 -17.738  -0.519  0.00  0.00     0.002 C 
ATOM     28  C   UNL d   1      26.360 -18.143  -0.173  0.00  0.00     0.003 C 
ATOM     29  C   UNL d   1      27.444 -17.376  -0.571  0.00  0.00     0.039 C 
ATOM     30  C   UNL d   1      27.238 -16.255  -1.356  0.00  0.00     0.094 C 
BRANCH  30  31
ATOM     31  O   UNL d   1      28.295 -15.445  -1.499  0.00  0.00    -0.354 OA
ATOM     32  C   UNL d   1      29.594 -15.761  -1.005  0.00  0.00     0.210 C 
ENDBRANCH  30  31
ENDBRANCH   1  25
BRANCH   9  33
ATOM     33  C   UNL d   1      29.889 -12.776  -7.591  0.00  0.00     0.205 C 
BRANCH  33  34
ATOM     34  O   UNL d   1      29.025 -12.774  -8.708  0.00  0.00    -0.396 OA
ATOM     35  H   UNL d   1      28.911 -13.700  -8.984  0.00  0.00     0.209 HD
ENDBRANCH  33  34
ENDBRANCH   9  33
TORSDOF 6
ENDMDL
MODEL 7
REMARK VINA RESULT:    -7.491      4.604      8.172
REMARK INTER + INTRA:         -11.292
REMARK INTER:                  -9.281
REMARK INTRA:                  -2.011
REMARK CONF_INDEPENDENT:        1.790
REMARK UNBOUND:                -2.011
REMARK  6 active torsions:
REMARK  status: ('A' for Active; 'I' for Inactive)
REMARK    1  A    between atoms: O_2  and  C_3 
REMARK    2  A    between atoms: C_8  and  N_9 
REMARK    3  A    between atoms: C_17  and  C_18 
REMARK    4  A    between atoms: C_18  and  O_19 
REMARK    5  A    between atoms: C_22  and  C_23 
REMARK       I    between atoms: C_23  and  N_25 
REMARK    6  A    between atoms: N_25  and  C_26 
ROOT
ATOM      1  N   UNL d   1      27.150 -12.514   1.292  0.00  0.00    -0.334 N 
ATOM      2  C   UNL d   1      27.229 -12.476  -0.004  0.00  0.00     0.164 C 
ATOM      3  O   UNL d   1      27.725 -11.315  -0.659  0.00  0.00    -0.290 OA
ATOM      4  C   UNL d   1      27.136 -10.816  -1.904  0.00  0.00     0.113 C 
ATOM      5  C   UNL d   1      27.000  -9.428  -2.244  0.00  0.00     0.065 C 
ATOM      6  C   UNL d   1      27.130  -8.196  -1.357  0.00  0.00     0.073 C 
ATOM      7  N   UNL d   1      26.426  -9.073  -3.424  0.00  0.00    -0.262 NA
ATOM      8  C   UNL d   1      25.991 -10.038  -4.260  0.00  0.00     0.127 C 
ATOM      9  C   UNL d   1      25.976 -11.402  -3.953  0.00  0.00    -0.004 C 
ATOM     10  C   UNL d   1      26.482 -11.785  -2.692  0.00  0.00     0.011 C 
ATOM     11  C   UNL d   1      26.245 -13.113  -2.087  0.00  0.00     0.036 C 
ATOM     12  C   UNL d   1      26.609 -13.502  -0.850  0.00  0.00     0.084 C 
ATOM     13  H   UNL d   1      26.648 -13.266   1.730  0.00  0.00     0.168 HD
ENDROOT
BRANCH  12  14
ATOM     14  C   UNL d   1      26.158 -14.900  -0.463  0.00  0.00     0.260 C 
ATOM     15  O   UNL d   1      26.451 -15.353   0.621  0.00  0.00    -0.267 OA
ATOM     16  N   UNL d   1      25.458 -15.641  -1.405  0.00  0.00    -0.321 N 
ATOM     17  H   UNL d   1      25.234 -15.422  -2.341  0.00  0.00     0.169 HD
BRANCH  16  18
ATOM     18  C   UNL d   1      24.639 -16.739  -1.087  0.00  0.00     0.056 A 
ATOM     19  C   UNL d   1      23.254 -16.474  -1.113  0.00  0.00     0.031 A 
ATOM     20  C   UNL d   1      22.365 -17.389  -0.566  0.00  0.00     0.002 A 
ATOM     21  C   UNL d   1      22.851 -18.583  -0.045  0.00  0.00     0.002 A 
ATOM     22  C   UNL d   1      24.223 -18.841  -0.010  0.00  0.00     0.026 A 
ATOM     23  C   UNL d   1      25.129 -17.917  -0.511  0.00  0.00     0.060 A 
ATOM     24 CL   UNL d   1      26.796 -18.200  -0.145  0.00  0.00    -0.082 Cl
ENDBRANCH  16  18
ENDBRANCH  12  14
BRANCH   1  25
ATOM     25  C   UNL d   1      27.277 -11.522   2.263  0.00  0.00     0.067 C 
ATOM     26  C   UNL d   1      27.018 -10.177   1.943  0.00  0.00     0.032 C 
ATOM     27  C   UNL d   1      27.067  -9.214   2.960  0.00  0.00     0.002 C 
ATOM     28  C   UNL d   1      27.341  -9.600   4.270  0.00  0.00     0.003 C 
ATOM     29  C   UNL d   1      27.755 -10.898   4.524  0.00  0.00     0.039 C 
ATOM     30  C   UNL d   1      27.832 -11.808   3.484  0.00  0.00     0.094 C 
BRANCH  30  31
ATOM     31  O   UNL d   1      28.459 -12.957   3.765  0.00  0.00    -0.354 OA
ATOM     32  C   UNL d   1      27.782 -14.125   4.221  0.00  0.00     0.210 C 
ENDBRANCH  30  31
ENDBRANCH   1  25
BRANCH   9  33
ATOM     33  C   UNL d   1      25.530 -12.321  -5.066  0.00  0.00     0.205 C 
BRANCH  33  34
ATOM     34  O   UNL d   1      24.848 -13.485  -4.645  0.00  0.00    -0.396 OA
ATOM     35  H   UNL d   1      23.957 -13.450  -5.033  0.00  0.00     0.209 HD
ENDBRANCH  33  34
ENDBRANCH   9  33
TORSDOF 6
ENDMDL
MODEL 8
REMARK VINA RESULT:    -7.463      2.536      3.412
REMARK INTER + INTRA:         -11.353
REMARK INTER:                  -9.253
REMARK INTRA:                  -2.100
REMARK CONF_INDEPENDENT:        1.790
REMARK UNBOUND:                -2.100
REMARK  6 active torsions:
REMARK  status: ('A' for Active; 'I' for Inactive)
REMARK    1  A    between atoms: O_2  and  C_3 
REMARK    2  A    between atoms: C_8  and  N_9 
REMARK    3  A    between atoms: C_17  and  C_18 
REMARK    4  A    between atoms: C_18  and  O_19 
REMARK    5  A    between atoms: C_22  and  C_23 
REMARK       I    between atoms: C_23  and  N_25 
REMARK    6  A    between atoms: N_25  and  C_26 
ROOT
ATOM      1  N   UNL d   1      30.231 -17.178  -3.734  0.00  0.00    -0.334 N 
ATOM      2  C   UNL d   1      29.278 -16.381  -3.353  0.00  0.00     0.164 C 
ATOM      3  O   UNL d   1      28.758 -16.464  -2.032  0.00  0.00    -0.290 OA
ATOM      4  C   UNL d   1      27.328 -16.317  -1.752  0.00  0.00     0.113 C 
ATOM      5  C   UNL d   1      26.615 -17.046  -0.741  0.00  0.00     0.065 C 
ATOM      6  C   UNL d   1      27.036 -18.285   0.039  0.00  0.00     0.073 C 
ATOM      7  N   UNL d   1      25.281 -16.841  -0.572  0.00  0.00    -0.262 NA
ATOM      8  C   UNL d   1      24.647 -15.951  -1.363  0.00  0.00     0.127 C 
ATOM      9  C   UNL d   1      25.240 -15.293  -2.445  0.00  0.00    -0.004 C 
ATOM     10  C   UNL d   1      26.602 -15.563  -2.696  0.00  0.00     0.011 C 
ATOM     11  C   UNL d   1      27.282 -15.217  -3.964  0.00  0.00     0.036 C 
ATOM     12  C   UNL d   1      28.544 -15.538  -4.305  0.00  0.00     0.084 C 
ATOM     13  H   UNL d   1      30.472 -17.223  -4.708  0.00  0.00     0.168 HD
ENDROOT
BRANCH  12  14
ATOM     14  C   UNL d   1      28.951 -15.124  -5.708  0.00  0.00     0.260 C 
ATOM     15  O   UNL d   1      28.156 -15.199  -6.618  0.00  0.00    -0.267 OA
ATOM     16  N   UNL d   1      30.263 -14.715  -5.910  0.00  0.00    -0.321 N 
ATOM     17  H   UNL d   1      31.021 -14.692  -5.278  0.00  0.00     0.169 HD
BRANCH  16  18
ATOM     18  C   UNL d   1      30.681 -13.936  -7.002  0.00  0.00     0.056 A 
ATOM     19  C   UNL d   1      29.799 -12.897  -7.363  0.00  0.00     0.031 A 
ATOM     20  C   UNL d   1      29.965 -12.236  -8.573  0.00  0.00     0.002 A 
ATOM     21  C   UNL d   1      31.038 -12.575  -9.391  0.00  0.00     0.002 A 
ATOM     22  C   UNL d   1      31.906 -13.610  -9.039  0.00  0.00     0.026 A 
ATOM     23  C   UNL d   1      31.726 -14.311  -7.855  0.00  0.00     0.060 A 
ATOM     24 CL   UNL d   1      32.662 -15.755  -7.668  0.00  0.00    -0.082 Cl
ENDBRANCH  16  18
ENDBRANCH  12  14
BRANCH   1  25
ATOM     25  C   UNL d   1      30.779 -18.319  -3.150  0.00  0.00     0.067 C 
ATOM     26  C   UNL d   1      30.999 -18.373  -1.762  0.00  0.00     0.032 C 
ATOM     27  C   UNL d   1      31.467 -19.564  -1.192  0.00  0.00     0.002 C 
ATOM     28  C   UNL d   1      31.681 -20.682  -1.996  0.00  0.00     0.003 C 
ATOM     29  C   UNL d   1      31.618 -20.550  -3.374  0.00  0.00     0.039 C 
ATOM     30  C   UNL d   1      31.284 -19.328  -3.931  0.00  0.00     0.094 C 
BRANCH  30  31
ATOM     31  O   UNL d   1      31.473 -19.221  -5.252  0.00  0.00    -0.354 OA
ATOM     32  C   UNL d   1      30.405 -19.144  -6.191  0.00  0.00     0.210 C 
ENDBRANCH  30  31
ENDBRANCH   1  25
BRANCH   9  33
ATOM     33  C   UNL d   1      24.376 -14.270  -3.145  0.00  0.00     0.205 C 
BRANCH  33  34
ATOM     34  O   UNL d   1      24.475 -14.265  -4.554  0.00  0.00    -0.396 OA
ATOM     35  H   UNL d   1      23.776 -13.677  -4.888  0.00  0.00     0.209 HD
ENDBRANCH  33  34
ENDBRANCH   9  33
TORSDOF 6
ENDMDL
MODEL 9
REMARK VINA RESULT:    -7.436      3.004      6.945
REMARK INTER + INTRA:         -11.644
REMARK INTER:                  -9.225
REMARK INTRA:                  -2.418
REMARK CONF_INDEPENDENT:        1.790
REMARK UNBOUND:                -2.418
REMARK  6 active torsions:
REMARK  status: ('A' for Active; 'I' for Inactive)
REMARK    1  A    between atoms: O_2  and  C_3 
REMARK    2  A    between atoms: C_8  and  N_9 
REMARK    3  A    between atoms: C_17  and  C_18 
REMARK    4  A    between atoms: C_18  and  O_19 
REMARK    5  A    between atoms: C_22  and  C_23 
REMARK       I    between atoms: C_23  and  N_25 
REMARK    6  A    between atoms: N_25  and  C_26 
ROOT
ATOM      1  N   UNL d   1      26.807 -13.341  -4.572  0.00  0.00    -0.334 N 
ATOM      2  C   UNL d   1      27.198 -13.151  -3.349  0.00  0.00     0.164 C 
ATOM      3  O   UNL d   1      28.262 -12.250  -3.066  0.00  0.00    -0.290 OA
ATOM      4  C   UNL d   1      29.274 -12.541  -2.049  0.00  0.00     0.113 C 
ATOM      5  C   UNL d   1      30.662 -12.186  -2.152  0.00  0.00     0.065 C 
ATOM      6  C   UNL d   1      31.457 -11.731  -3.369  0.00  0.00     0.073 C 
ATOM      7  N   UNL d   1      31.521 -12.516  -1.152  0.00  0.00    -0.262 NA
ATOM      8  C   UNL d   1      31.052 -13.176  -0.072  0.00  0.00     0.127 C 
ATOM      9  C   UNL d   1      29.747 -13.662   0.051  0.00  0.00    -0.004 C 
ATOM     10  C   UNL d   1      28.862 -13.412  -1.020  0.00  0.00     0.011 C 
ATOM     11  C   UNL d   1      27.575 -14.119  -1.196  0.00  0.00     0.036 C 
ATOM     12  C   UNL d   1      26.739 -14.003  -2.245  0.00  0.00     0.084 C 
ATOM     13  H   UNL d   1      26.175 -14.095  -4.773  0.00  0.00     0.168 HD
ENDROOT
BRANCH  12  14
ATOM     14  C   UNL d   1      25.527 -14.917  -2.199  0.00  0.00     0.260 C 
ATOM     15  O   UNL d   1      24.828 -15.048  -3.179  0.00  0.00    -0.267 OA
ATOM     16  N   UNL d   1      25.230 -15.541  -0.995  0.00  0.00    -0.321 N 
ATOM     17  H   UNL d   1      25.664 -15.451  -0.113  0.00  0.00     0.169 HD
BRANCH  16  18
ATOM     18  C   UNL d   1      24.430 -16.692  -0.886  0.00  0.00     0.056 A 
ATOM     19  C   UNL d   1      23.040 -16.457  -0.928  0.00  0.00     0.031 A 
ATOM     20  C   UNL d   1      22.156 -17.464  -0.566  0.00  0.00     0.002 A 
ATOM     21  C   UNL d   1      22.656 -18.715  -0.218  0.00  0.00     0.002 A 
ATOM     22  C   UNL d   1      24.031 -18.945  -0.167  0.00  0.00     0.026 A 
ATOM     23  C   UNL d   1      24.930 -17.935  -0.480  0.00  0.00     0.060 A 
ATOM     24 CL   UNL d   1      26.590 -18.236  -0.093  0.00  0.00    -0.082 Cl
ENDBRANCH  16  18
ENDBRANCH  12  14
BRANCH   1  25
ATOM     25  C   UNL d   1      27.364 -12.973  -5.796  0.00  0.00     0.067 C 
ATOM     26  C   UNL d   1      27.033 -11.740  -6.386  0.00  0.00     0.032 C 
ATOM     27  C   UNL d   1      27.677 -11.357  -7.570  0.00  0.00     0.002 C 
ATOM     28  C   UNL d   1      28.649 -12.182  -8.131  0.00  0.00     0.003 C 
ATOM     29  C   UNL d   1      28.832 -13.459  -7.624  0.00  0.00     0.039 C 
ATOM     30  C   UNL d   1      28.091 -13.875  -6.531  0.00  0.00     0.094 C 
BRANCH  30  31
ATOM     31  O   UNL d   1      28.153 -15.183  -6.252  0.00  0.00    -0.354 OA
ATOM     32  C   UNL d   1      28.844 -15.709  -5.123  0.00  0.00     0.210 C 
ENDBRANCH  30  31
ENDBRANCH   1  25
BRANCH   9  33
ATOM     33  C   UNL d   1      29.405 -14.294   1.380  0.00  0.00     0.205 C 
BRANCH  33  34
ATOM     34  O   UNL d   1      28.481 -15.362   1.315  0.00  0.00    -0.396 OA
ATOM     35  H   UNL d   1      28.906 -16.133   1.729  0.00  0.00     0.209 HD
ENDBRANCH  33  34
ENDBRANCH   9  33
TORSDOF 6
ENDMDL
