MODEL 1
REMARK VINA RESULT:   -10.206      0.000      0.000
REMARK INTER + INTRA:         -12.851
REMARK INTER:                 -11.101
REMARK INTRA:                  -1.750
REMARK CONF_INDEPENDENT:        0.895
REMARK UNBOUND:                -1.750
REMARK  3 active torsions:
REMARK  status: ('A' for Active; 'I' for Inactive)
REMARK    1  A    between atoms: C_3  and  C_4 
REMARK       I    between atoms: C_4  and  N_6 
REMARK    2  A    between atoms: N_6  and  N_7 
REMARK       I    between atoms: N_7  and  C_8 
REMARK    3  A    between atoms: C_8  and  C_10 
ROOT
ATOM      1  C   UNL d   1      24.669 -17.862  -0.368  0.00  0.00     0.294 C 
ATOM      2  O   UNL d   1      25.107 -18.546   0.565  0.00  0.00    -0.264 OA
ATOM      3  N   UNL d   1      23.318 -17.961  -0.718  0.00  0.00    -0.261 N 
ATOM      4  H   UNL d   1      22.896 -17.452  -1.472  0.00  0.00     0.190 HD
ENDROOT
BRANCH   1   5
ATOM      5  C   UNL d   1      25.497 -16.918  -1.163  0.00  0.00     0.152 A 
ATOM      6  C   UNL d   1      26.872 -16.708  -1.259  0.00  0.00    -0.009 A 
ATOM      7  C   UNL d   1      28.022 -17.358  -0.590  0.00  0.00     0.052 C 
ATOM      8  C   UNL d   1      27.082 -15.655  -2.203  0.00  0.00     0.007 A 
ATOM      9  C   UNL d   1      28.247 -15.028  -2.692  0.00  0.00     0.015 A 
ATOM     10  C   UNL d   1      25.838 -15.248  -2.660  0.00  0.00     0.093 A 
ATOM     11  C   UNL d   1      28.141 -14.009  -3.631  0.00  0.00     0.002 A 
ATOM     12  C   UNL d   1      26.886 -13.610  -4.079  0.00  0.00     0.009 A 
ATOM     13  C   UNL d   1      25.687 -14.214  -3.613  0.00  0.00    -0.027 A 
ATOM     14  C   UNL d   1      24.394 -13.700  -4.174  0.00  0.00     0.051 C 
ATOM     15  O   UNL d   1      24.872 -16.012  -2.032  0.00  0.00    -0.303 OA
ENDBRANCH   1   5
BRANCH   3  16
ATOM     16  N   UNL d   1      22.368 -18.762  -0.052  0.00  0.00    -0.263 N 
ATOM     17  C   UNL d   1      21.030 -18.604  -0.425  0.00  0.00     0.270 C 
ATOM     18  O   UNL d   1      20.661 -17.790  -1.270  0.00  0.00    -0.266 OA
ATOM     19  H   UNL d   1      22.716 -19.510   0.542  0.00  0.00     0.190 HD
BRANCH  17  20
ATOM     20  C   UNL d   1      20.050 -19.512   0.228  0.00  0.00     0.033 C 
ATOM     21  C   UNL d   1      20.156 -19.799   1.596  0.00  0.00     0.017 C 
ATOM     22  C   UNL d   1      19.103 -20.449   2.245  0.00  0.00     0.001 C 
ATOM     23  C   UNL d   1      18.084 -21.036   1.498  0.00  0.00     0.000 C 
ATOM     24  C   UNL d   1      18.063 -20.885   0.113  0.00  0.00     0.001 C 
ATOM     25  C   UNL d   1      19.000 -20.060  -0.513  0.00  0.00     0.017 C 
ENDBRANCH  17  20
ENDBRANCH   3  16
TORSDOF 3
ENDMDL
MODEL 2
REMARK VINA RESULT:   -10.064      0.160      1.018
REMARK INTER + INTRA:         -12.715
REMARK INTER:                 -10.959
REMARK INTRA:                  -1.756
REMARK CONF_INDEPENDENT:        0.895
REMARK UNBOUND:                -1.756
REMARK  3 active torsions:
REMARK  status: ('A' for Active; 'I' for Inactive)
REMARK    1  A    between atoms: C_3  and  C_4 
REMARK       I    between atoms: C_4  and  N_6 
REMARK    2  A    between atoms: N_6  and  N_7 
REMARK       I    between atoms: N_7  and  C_8 
REMARK    3  A    between atoms: C_8  and  C_10 
ROOT
ATOM      1  C   UNL d   1      24.655 -17.861  -0.310  0.00  0.00     0.294 C 
ATOM      2  O   UNL d   1      25.083 -18.510   0.652  0.00  0.00    -0.264 OA
ATOM      3  N   UNL d   1      23.302 -17.950  -0.653  0.00  0.00    -0.261 N 
ATOM      4  H   UNL d   1      22.887 -17.468  -1.429  0.00  0.00     0.190 HD
ENDROOT
BRANCH   1   5
ATOM      5  C   UNL d   1      25.498 -16.970  -1.148  0.00  0.00     0.152 A 
ATOM      6  C   UNL d   1      26.878 -16.801  -1.267  0.00  0.00    -0.009 A 
ATOM      7  C   UNL d   1      28.018 -17.458  -0.588  0.00  0.00     0.052 C 
ATOM      8  C   UNL d   1      27.105 -15.789  -2.251  0.00  0.00     0.007 A 
ATOM      9  C   UNL d   1      28.280 -15.213  -2.776  0.00  0.00     0.015 A 
ATOM     10  C   UNL d   1      25.867 -15.365  -2.709  0.00  0.00     0.093 A 
ATOM     11  C   UNL d   1      28.190 -14.226  -3.751  0.00  0.00     0.002 A 
ATOM     12  C   UNL d   1      26.941 -13.810  -4.199  0.00  0.00     0.009 A 
ATOM     13  C   UNL d   1      25.732 -14.363  -3.698  0.00  0.00    -0.027 A 
ATOM     14  C   UNL d   1      24.447 -13.834  -4.263  0.00  0.00     0.051 C 
ATOM     15  O   UNL d   1      24.888 -16.079  -2.043  0.00  0.00    -0.303 OA
ENDBRANCH   1   5
BRANCH   3  16
ATOM     16  N   UNL d   1      22.339 -18.703   0.050  0.00  0.00    -0.263 N 
ATOM     17  C   UNL d   1      21.008 -18.575  -0.360  0.00  0.00     0.270 C 
ATOM     18  O   UNL d   1      20.656 -17.825  -1.270  0.00  0.00    -0.266 OA
ATOM     19  H   UNL d   1      22.675 -19.405   0.703  0.00  0.00     0.190 HD
BRANCH  17  20
ATOM     20  C   UNL d   1      20.015 -19.434   0.337  0.00  0.00     0.033 C 
ATOM     21  C   UNL d   1      19.004 -20.076  -0.390  0.00  0.00     0.017 C 
ATOM     22  C   UNL d   1      18.232 -21.063   0.230  0.00  0.00     0.001 C 
ATOM     23  C   UNL d   1      18.288 -21.221   1.614  0.00  0.00     0.000 C 
ATOM     24  C   UNL d   1      19.188 -20.464   2.362  0.00  0.00     0.001 C 
ATOM     25  C   UNL d   1      20.104 -19.630   1.718  0.00  0.00     0.017 C 
ENDBRANCH  17  20
ENDBRANCH   3  16
TORSDOF 3
ENDMDL
MODEL 3
REMARK VINA RESULT:    -9.236      1.001      2.215
REMARK INTER + INTRA:         -11.600
REMARK INTER:                 -10.131
REMARK INTRA:                  -1.470
REMARK CONF_INDEPENDENT:        0.895
REMARK UNBOUND:                -1.470
REMARK  3 active torsions:
REMARK  status: ('A' for Active; 'I' for Inactive)
REMARK    1  A    between atoms: C_3  and  C_4 
REMARK       I    between atoms: C_4  and  N_6 
REMARK    2  A    between atoms: N_6  and  N_7 
REMARK       I    between atoms: N_7  and  C_8 
REMARK    3  A    between atoms: C_8  and  C_10 
ROOT
ATOM      1  C   UNL d   1      24.821 -17.917  -0.364  0.00  0.00     0.294 C 
ATOM      2  O   UNL d   1      25.246 -18.572   0.596  0.00  0.00    -0.264 OA
ATOM      3  N   UNL d   1      23.473 -18.017  -0.723  0.00  0.00    -0.261 N 
ATOM      4  H   UNL d   1      23.062 -17.530  -1.497  0.00  0.00     0.190 HD
ENDROOT
BRANCH   1   5
ATOM      5  C   UNL d   1      25.664 -17.007  -1.183  0.00  0.00     0.152 A 
ATOM      6  C   UNL d   1      25.374 -15.895  -1.973  0.00  0.00    -0.009 A 
ATOM      7  C   UNL d   1      24.099 -15.210  -2.288  0.00  0.00     0.052 C 
ATOM      8  C   UNL d   1      26.607 -15.421  -2.518  0.00  0.00     0.007 A 
ATOM      9  C   UNL d   1      26.922 -14.345  -3.374  0.00  0.00     0.015 A 
ATOM     10  C   UNL d   1      27.617 -16.248  -2.052  0.00  0.00     0.093 A 
ATOM     11  C   UNL d   1      28.243 -14.120  -3.743  0.00  0.00     0.002 A 
ATOM     12  C   UNL d   1      29.246 -14.959  -3.269  0.00  0.00     0.009 A 
ATOM     13  C   UNL d   1      28.973 -16.054  -2.405  0.00  0.00    -0.027 A 
ATOM     14  C   UNL d   1      30.139 -16.885  -1.957  0.00  0.00     0.051 C 
ATOM     15  O   UNL d   1      27.050 -17.213  -1.240  0.00  0.00    -0.303 OA
ENDBRANCH   1   5
BRANCH   3  16
ATOM     16  N   UNL d   1      22.511 -18.787  -0.038  0.00  0.00    -0.263 N 
ATOM     17  C   UNL d   1      21.174 -18.610  -0.410  0.00  0.00     0.270 C 
ATOM     18  O   UNL d   1      20.817 -17.804  -1.269  0.00  0.00    -0.266 OA
ATOM     19  H   UNL d   1      22.846 -19.531   0.567  0.00  0.00     0.190 HD
BRANCH  17  20
ATOM     20  C   UNL d   1      20.179 -19.486   0.263  0.00  0.00     0.033 C 
ATOM     21  C   UNL d   1      20.278 -19.741   1.638  0.00  0.00     0.017 C 
ATOM     22  C   UNL d   1      19.214 -20.359   2.301  0.00  0.00     0.001 C 
ATOM     23  C   UNL d   1      18.188 -20.950   1.566  0.00  0.00     0.000 C 
ATOM     24  C   UNL d   1      18.173 -20.833   0.177  0.00  0.00     0.001 C 
ATOM     25  C   UNL d   1      19.123 -20.038  -0.466  0.00  0.00     0.017 C 
ENDBRANCH  17  20
ENDBRANCH   3  16
TORSDOF 3
ENDMDL
MODEL 4
REMARK VINA RESULT:    -8.612      1.611      2.180
REMARK INTER + INTRA:         -10.291
REMARK INTER:                  -9.507
REMARK INTRA:                  -0.784
REMARK CONF_INDEPENDENT:        0.895
REMARK UNBOUND:                -0.784
REMARK  3 active torsions:
REMARK  status: ('A' for Active; 'I' for Inactive)
REMARK    1  A    between atoms: C_3  and  C_4 
REMARK       I    between atoms: C_4  and  N_6 
REMARK    2  A    between atoms: N_6  and  N_7 
REMARK       I    between atoms: N_7  and  C_8 
REMARK    3  A    between atoms: C_8  and  C_10 
ROOT
ATOM      1  C   UNL d   1      24.478 -16.349  -1.476  0.00  0.00     0.294 C 
ATOM      2  O   UNL d   1      23.527 -15.618  -1.782  0.00  0.00    -0.264 OA
ATOM      3  N   UNL d   1      24.266 -17.425  -0.608  0.00  0.00    -0.261 N 
ATOM      4  H   UNL d   1      24.989 -18.049  -0.302  0.00  0.00     0.190 HD
ENDROOT
BRANCH   1   5
ATOM      5  C   UNL d   1      25.862 -16.161  -1.981  0.00  0.00     0.152 A 
ATOM      6  C   UNL d   1      27.115 -16.499  -1.469  0.00  0.00    -0.009 A 
ATOM      7  C   UNL d   1      27.524 -17.177  -0.218  0.00  0.00     0.052 C 
ATOM      8  C   UNL d   1      28.097 -16.064  -2.413  0.00  0.00     0.007 A 
ATOM      9  C   UNL d   1      29.506 -16.137  -2.429  0.00  0.00     0.015 A 
ATOM     10  C   UNL d   1      27.427 -15.474  -3.473  0.00  0.00     0.093 A 
ATOM     11  C   UNL d   1      30.212 -15.619  -3.508  0.00  0.00     0.002 A 
ATOM     12  C   UNL d   1      29.526 -15.029  -4.563  0.00  0.00     0.009 A 
ATOM     13  C   UNL d   1      28.109 -14.934  -4.588  0.00  0.00    -0.027 A 
ATOM     14  C   UNL d   1      27.483 -14.278  -5.784  0.00  0.00     0.051 C 
ATOM     15  O   UNL d   1      26.069 -15.530  -3.216  0.00  0.00    -0.303 OA
ENDBRANCH   1   5
BRANCH   3  16
ATOM     16  N   UNL d   1      23.016 -17.792  -0.067  0.00  0.00    -0.263 N 
ATOM     17  C   UNL d   1      22.267 -18.733  -0.780  0.00  0.00     0.270 C 
ATOM     18  O   UNL d   1      22.638 -19.215  -1.849  0.00  0.00    -0.266 OA
ATOM     19  H   UNL d   1      22.800 -17.477   0.874  0.00  0.00     0.190 HD
BRANCH  17  20
ATOM     20  C   UNL d   1      20.989 -19.170  -0.157  0.00  0.00     0.033 C 
ATOM     21  C   UNL d   1      19.880 -19.471  -0.958  0.00  0.00     0.017 C 
ATOM     22  C   UNL d   1      18.773 -20.106  -0.389  0.00  0.00     0.001 C 
ATOM     23  C   UNL d   1      18.663 -20.201   0.997  0.00  0.00     0.000 C 
ATOM     24  C   UNL d   1      19.705 -19.753   1.807  0.00  0.00     0.001 C 
ATOM     25  C   UNL d   1      20.897 -19.311   1.230  0.00  0.00     0.017 C 
ENDBRANCH  17  20
ENDBRANCH   3  16
TORSDOF 3
ENDMDL
MODEL 5
REMARK VINA RESULT:    -7.703      4.121      9.231
REMARK INTER + INTRA:         -10.094
REMARK INTER:                  -8.598
REMARK INTRA:                  -1.496
REMARK CONF_INDEPENDENT:        0.895
REMARK UNBOUND:                -1.496
REMARK  3 active torsions:
REMARK  status: ('A' for Active; 'I' for Inactive)
REMARK    1  A    between atoms: C_3  and  C_4 
REMARK       I    between atoms: C_4  and  N_6 
REMARK    2  A    between atoms: N_6  and  N_7 
REMARK       I    between atoms: N_7  and  C_8 
REMARK    3  A    between atoms: C_8  and  C_10 
ROOT
ATOM      1  C   UNL d   1      25.124 -13.890  -3.530  0.00  0.00     0.294 C 
ATOM      2  O   UNL d   1      24.626 -14.090  -4.645  0.00  0.00    -0.264 OA
ATOM      3  N   UNL d   1      25.433 -12.583  -3.139  0.00  0.00    -0.261 N 
ATOM      4  H   UNL d   1      25.853 -12.345  -2.260  0.00  0.00     0.190 HD
ENDROOT
BRANCH   1   5
ATOM      5  C   UNL d   1      25.424 -14.967  -2.552  0.00  0.00     0.152 A 
ATOM      6  C   UNL d   1      26.584 -15.342  -1.875  0.00  0.00    -0.009 A 
ATOM      7  C   UNL d   1      27.960 -14.793  -1.889  0.00  0.00     0.052 C 
ATOM      8  C   UNL d   1      26.259 -16.464  -1.051  0.00  0.00     0.007 A 
ATOM      9  C   UNL d   1      27.021 -17.249  -0.161  0.00  0.00     0.015 A 
ATOM     10  C   UNL d   1      24.915 -16.748  -1.241  0.00  0.00     0.093 A 
ATOM     11  C   UNL d   1      26.420 -18.301   0.521  0.00  0.00     0.002 A 
ATOM     12  C   UNL d   1      25.072 -18.575   0.318  0.00  0.00     0.009 A 
ATOM     13  C   UNL d   1      24.268 -17.810  -0.569  0.00  0.00    -0.027 A 
ATOM     14  C   UNL d   1      22.825 -18.200  -0.699  0.00  0.00     0.051 C 
ATOM     15  O   UNL d   1      24.403 -15.842  -2.152  0.00  0.00    -0.303 OA
ENDBRANCH   1   5
BRANCH   3  16
ATOM     16  N   UNL d   1      25.178 -11.429  -3.908  0.00  0.00    -0.263 N 
ATOM     17  C   UNL d   1      25.687 -10.219  -3.426  0.00  0.00     0.270 C 
ATOM     18  O   UNL d   1      26.307 -10.126  -2.367  0.00  0.00    -0.266 OA
ATOM     19  H   UNL d   1      24.780 -11.557  -4.834  0.00  0.00     0.190 HD
BRANCH  17  20
ATOM     20  C   UNL d   1      25.479  -9.024  -4.286  0.00  0.00     0.033 C 
ATOM     21  C   UNL d   1      25.203  -9.177  -5.651  0.00  0.00     0.017 C 
ATOM     22  C   UNL d   1      24.774  -8.073  -6.394  0.00  0.00     0.001 C 
ATOM     23  C   UNL d   1      24.872  -6.793  -5.854  0.00  0.00     0.000 C 
ATOM     24  C   UNL d   1      25.302  -6.626  -4.538  0.00  0.00     0.001 C 
ATOM     25  C   UNL d   1      25.530  -7.743  -3.732  0.00  0.00     0.017 C 
ENDBRANCH  17  20
ENDBRANCH   3  16
TORSDOF 3
ENDMDL
MODEL 6
REMARK VINA RESULT:    -7.384      3.974      9.562
REMARK INTER + INTRA:          -9.747
REMARK INTER:                  -8.279
REMARK INTRA:                  -1.468
REMARK CONF_INDEPENDENT:        0.895
REMARK UNBOUND:                -1.468
REMARK  3 active torsions:
REMARK  status: ('A' for Active; 'I' for Inactive)
REMARK    1  A    between atoms: C_3  and  C_4 
REMARK       I    between atoms: C_4  and  N_6 
REMARK    2  A    between atoms: N_6  and  N_7 
REMARK       I    between atoms: N_7  and  C_8 
REMARK    3  A    between atoms: C_8  and  C_10 
ROOT
ATOM      1  C   UNL d   1      24.788 -13.940  -3.795  0.00  0.00     0.294 C 
ATOM      2  O   UNL d   1      23.635 -13.700  -4.175  0.00  0.00    -0.264 OA
ATOM      3  N   UNL d   1      25.858 -13.240  -4.361  0.00  0.00    -0.261 N 
ATOM      4  H   UNL d   1      26.819 -13.391  -4.118  0.00  0.00     0.190 HD
ENDROOT
BRANCH   1   5
ATOM      5  C   UNL d   1      25.124 -14.944  -2.753  0.00  0.00     0.152 A 
ATOM      6  C   UNL d   1      26.331 -15.375  -2.201  0.00  0.00    -0.009 A 
ATOM      7  C   UNL d   1      27.734 -14.981  -2.460  0.00  0.00     0.052 C 
ATOM      8  C   UNL d   1      26.025 -16.371  -1.222  0.00  0.00     0.007 A 
ATOM      9  C   UNL d   1      26.832 -17.144  -0.361  0.00  0.00     0.015 A 
ATOM     10  C   UNL d   1      24.648 -16.526  -1.198  0.00  0.00     0.093 A 
ATOM     11  C   UNL d   1      26.241 -18.054   0.507  0.00  0.00     0.002 A 
ATOM     12  C   UNL d   1      24.858 -18.200   0.519  0.00  0.00     0.009 A 
ATOM     13  C   UNL d   1      24.008 -17.442  -0.331  0.00  0.00    -0.027 A 
ATOM     14  C   UNL d   1      22.531 -17.686  -0.223  0.00  0.00     0.051 C 
ATOM     15  O   UNL d   1      24.096 -15.662  -2.126  0.00  0.00    -0.303 OA
ENDBRANCH   1   5
BRANCH   3  16
ATOM     16  N   UNL d   1      25.734 -12.218  -5.326  0.00  0.00    -0.263 N 
ATOM     17  C   UNL d   1      26.903 -11.818  -5.981  0.00  0.00     0.270 C 
ATOM     18  O   UNL d   1      28.010 -12.293  -5.729  0.00  0.00    -0.266 OA
ATOM     19  H   UNL d   1      24.797 -11.941  -5.601  0.00  0.00     0.190 HD
BRANCH  17  20
ATOM     20  C   UNL d   1      26.745 -10.797  -7.050  0.00  0.00     0.033 C 
ATOM     21  C   UNL d   1      26.229  -9.530  -6.747  0.00  0.00     0.017 C 
ATOM     22  C   UNL d   1      26.310  -8.509  -7.697  0.00  0.00     0.001 C 
ATOM     23  C   UNL d   1      26.656  -8.811  -9.013  0.00  0.00     0.000 C 
ATOM     24  C   UNL d   1      27.019 -10.113  -9.354  0.00  0.00     0.001 C 
ATOM     25  C   UNL d   1      27.139 -11.087  -8.360  0.00  0.00     0.017 C 
ENDBRANCH  17  20
ENDBRANCH   3  16
TORSDOF 3
ENDMDL
MODEL 7
REMARK VINA RESULT:    -7.333      1.540      3.316
REMARK INTER + INTRA:          -9.912
REMARK INTER:                  -8.228
REMARK INTRA:                  -1.684
REMARK CONF_INDEPENDENT:        0.895
REMARK UNBOUND:                -1.684
REMARK  3 active torsions:
REMARK  status: ('A' for Active; 'I' for Inactive)
REMARK    1  A    between atoms: C_3  and  C_4 
REMARK       I    between atoms: C_4  and  N_6 
REMARK    2  A    between atoms: N_6  and  N_7 
REMARK       I    between atoms: N_7  and  C_8 
REMARK    3  A    between atoms: C_8  and  C_10 
ROOT
ATOM      1  C   UNL d   1      24.572 -15.835  -2.155  0.00  0.00     0.294 C 
ATOM      2  O   UNL d   1      23.703 -14.985  -2.388  0.00  0.00    -0.264 OA
ATOM      3  N   UNL d   1      24.206 -17.048  -1.562  0.00  0.00    -0.261 N 
ATOM      4  H   UNL d   1      24.854 -17.776  -1.328  0.00  0.00     0.190 HD
ENDROOT
BRANCH   1   5
ATOM      5  C   UNL d   1      26.012 -15.654  -2.470  0.00  0.00     0.152 A 
ATOM      6  C   UNL d   1      26.688 -14.927  -3.450  0.00  0.00    -0.009 A 
ATOM      7  C   UNL d   1      26.205 -14.062  -4.550  0.00  0.00     0.052 C 
ATOM      8  C   UNL d   1      28.089 -15.133  -3.250  0.00  0.00     0.007 A 
ATOM      9  C   UNL d   1      29.231 -14.657  -3.926  0.00  0.00     0.015 A 
ATOM     10  C   UNL d   1      28.237 -15.975  -2.158  0.00  0.00     0.093 A 
ATOM     11  C   UNL d   1      30.497 -15.032  -3.493  0.00  0.00     0.002 A 
ATOM     12  C   UNL d   1      30.630 -15.879  -2.398  0.00  0.00     0.009 A 
ATOM     13  C   UNL d   1      29.506 -16.382  -1.688  0.00  0.00    -0.027 A 
ATOM     14  C   UNL d   1      29.778 -17.285  -0.521  0.00  0.00     0.051 C 
ATOM     15  O   UNL d   1      26.979 -16.295  -1.681  0.00  0.00    -0.303 OA
ENDBRANCH   1   5
BRANCH   3  16
ATOM     16  N   UNL d   1      22.885 -17.421  -1.237  0.00  0.00    -0.263 N 
ATOM     17  C   UNL d   1      22.699 -18.702  -0.707  0.00  0.00     0.270 C 
ATOM     18  O   UNL d   1      23.620 -19.503  -0.548  0.00  0.00    -0.266 OA
ATOM     19  H   UNL d   1      22.172 -16.698  -1.257  0.00  0.00     0.190 HD
BRANCH  17  20
ATOM     20  C   UNL d   1      21.315 -19.052  -0.294  0.00  0.00     0.033 C 
ATOM     21  C   UNL d   1      20.294 -19.141  -1.250  0.00  0.00     0.017 C 
ATOM     22  C   UNL d   1      19.064 -19.701  -0.893  0.00  0.00     0.001 C 
ATOM     23  C   UNL d   1      18.767 -19.925   0.450  0.00  0.00     0.000 C 
ATOM     24  C   UNL d   1      19.735 -19.685   1.424  0.00  0.00     0.001 C 
ATOM     25  C   UNL d   1      21.030 -19.325   1.047  0.00  0.00     0.017 C 
ENDBRANCH  17  20
ENDBRANCH   3  16
TORSDOF 3
ENDMDL
