MODEL 1
REMARK VINA RESULT:   -27.308      0.000      0.000
REMARK INTER + INTRA:         -32.060
REMARK INTER:                 -30.590
REMARK INTRA:                  -1.471
REMARK CONF_INDEPENDENT:        3.281
REMARK UNBOUND:                -1.471
REMARK  11 active torsions:
REMARK  status: ('A' for Active; 'I' for Inactive)
REMARK    1  A    between atoms: C_2  and  C_3 
REMARK    2  A    between atoms: C_3  and  C_4 
REMARK    3  A    between atoms: C_4  and  S_5 
REMARK    4  A    between atoms: S_5  and  C_6 
REMARK    5  A    between atoms: C_9  and  C_10 
REMARK       I    between atoms: C_10  and  N_12 
REMARK    6  A    between atoms: N_12  and  C_13 
REMARK    7  A    between atoms: C_14  and  C_13 
REMARK    8  A    between atoms: C_14  and  N_25 
REMARK    9  A    between atoms: C_14  and  C_15 
REMARK   10  A    between atoms: C_18  and  O_19 
REMARK   11  A    between atoms: C_21  and  O_22 
ROOT
ATOM      1  C   UNL d   1      25.961 -14.655  -1.467  0.00  0.00     0.238 C 
ENDROOT
BRANCH   1   2
ATOM      2  N   UNL d   1      26.938 -15.899  -1.489  0.00  0.00    -0.061 N 
ATOM      3  C   UNL d   1      28.374 -15.538  -1.813  0.00  0.00     0.236 C 
ATOM      4  C   UNL d   1      29.315 -16.711  -1.696  0.00  0.00     0.028 C 
ATOM      5  C   UNL d   1      29.195 -17.320  -0.312  0.00  0.00     0.003 C 
ATOM      6  C   UNL d   1      27.798 -17.907  -0.186  0.00  0.00     0.028 C 
ATOM      7  C   UNL d   1      26.773 -16.788  -0.224  0.00  0.00     0.236 C 
ATOM      8  H   UNL d   1      26.605 -16.484  -2.267  0.00  0.00     0.280 HD
ENDBRANCH   1   2
BRANCH   1   9
ATOM      9  C   UNL d   1      26.639 -13.442  -2.070  0.00  0.00    -0.023 A 
ATOM     10  C   UNL d   1      27.525 -12.683  -1.300  0.00  0.00     0.012 A 
ATOM     11  C   UNL d   1      27.944 -11.421  -1.650  0.00  0.00     0.040 A 
ATOM     12  C   UNL d   1      27.534 -10.895  -2.856  0.00  0.00     0.101 A 
ATOM     13  C   UNL d   1      26.643 -11.630  -3.667  0.00  0.00     0.102 A 
ATOM     14  C   UNL d   1      26.219 -12.909  -3.280  0.00  0.00     0.049 A 
BRANCH  12  15
ATOM     15  O   UNL d   1      28.076  -9.661  -3.074  0.00  0.00    -0.353 OA
ATOM     16  C   UNL d   1      27.536  -8.598  -2.309  0.00  0.00     0.210 C 
ENDBRANCH  12  15
BRANCH  13  17
ATOM     17  O   UNL d   1      26.164 -11.022  -4.789  0.00  0.00    -0.353 OA
ATOM     18  C   UNL d   1      27.093 -10.508  -5.725  0.00  0.00     0.210 C 
ENDBRANCH  13  17
ENDBRANCH   1   9
BRANCH   1  19
ATOM     19  C   UNL d   1      24.550 -14.944  -2.100  0.00  0.00     0.161 C 
BRANCH  19  20
ATOM     20  N   UNL d   1      23.853 -16.131  -1.575  0.00  0.00    -0.354 N 
ATOM     21  C   UNL d   1      22.512 -16.169  -1.271  0.00  0.00     0.256 C 
ATOM     22  O   UNL d   1      21.825 -15.146  -1.302  0.00  0.00    -0.268 OA
ATOM     23  H   UNL d   1      24.356 -16.997  -1.461  0.00  0.00     0.162 HD
BRANCH  21  24
ATOM     24  C   UNL d   1      21.890 -17.481  -0.916  0.00  0.00     0.090 A 
ATOM     25  C   UNL d   1      20.578 -17.718  -1.270  0.00  0.00     0.139 A 
ATOM     26  N   UNL d   1      19.905 -18.870  -1.004  0.00  0.00    -0.234 NA
ATOM     27  C   UNL d   1      20.578 -19.845  -0.375  0.00  0.00     0.189 A 
ATOM     28  N   UNL d   1      21.845 -19.731   0.008  0.00  0.00    -0.210 NA
ATOM     29  C   UNL d   1      22.450 -18.556  -0.253  0.00  0.00     0.146 A 
ATOM     30 CL   UNL d   1      23.989 -18.576   0.504  0.00  0.00    -0.061 Cl
BRANCH  27  31
ATOM     31  S   UNL d   1      19.704 -21.256   0.232  0.00  0.00    -0.090 SA
BRANCH  31  32
ATOM     32  C   UNL d   1      18.171 -20.486   0.848  0.00  0.00     0.082 C 
BRANCH  32  33
ATOM     33  C   UNL d   1      18.473 -19.827   2.199  0.00  0.00     0.010 C 
BRANCH  33  34
ATOM     34  C   UNL d   1      19.894 -20.125   2.679  0.00  0.00    -0.004 C 
ATOM     35  C   UNL d   1      19.880 -20.819   4.034  0.00  0.00     0.005 C 
ENDBRANCH  33  34
ENDBRANCH  32  33
ENDBRANCH  31  32
ENDBRANCH  27  31
ENDBRANCH  21  24
ENDBRANCH  19  20
ENDBRANCH   1  19
TORSDOF 11
ENDMDL
MODEL 2
REMARK VINA RESULT:   -27.300      1.759      2.158
REMARK INTER + INTRA:         -32.411
REMARK INTER:                 -30.581
REMARK INTRA:                  -1.829
REMARK CONF_INDEPENDENT:        3.281
REMARK UNBOUND:                -1.829
REMARK  11 active torsions:
REMARK  status: ('A' for Active; 'I' for Inactive)
REMARK    1  A    between atoms: C_2  and  C_3 
REMARK    2  A    between atoms: C_3  and  C_4 
REMARK    3  A    between atoms: C_4  and  S_5 
REMARK    4  A    between atoms: S_5  and  C_6 
REMARK    5  A    between atoms: C_9  and  C_10 
REMARK       I    between atoms: C_10  and  N_12 
REMARK    6  A    between atoms: N_12  and  C_13 
REMARK    7  A    between atoms: C_14  and  C_13 
REMARK    8  A    between atoms: C_14  and  N_25 
REMARK    9  A    between atoms: C_14  and  C_15 
REMARK   10  A    between atoms: C_18  and  O_19 
REMARK   11  A    between atoms: C_21  and  O_22 
ROOT
ATOM      1  C   UNL d   1      25.671 -14.483  -1.793  0.00  0.00     0.238 C 
ENDROOT
BRANCH   1   2
ATOM      2  N   UNL d   1      26.242 -15.545  -0.769  0.00  0.00    -0.061 N 
ATOM      3  C   UNL d   1      26.692 -16.837  -1.421  0.00  0.00     0.236 C 
ATOM      4  C   UNL d   1      27.357 -17.783  -0.454  0.00  0.00     0.028 C 
ATOM      5  C   UNL d   1      28.511 -17.077   0.231  0.00  0.00     0.003 C 
ATOM      6  C   UNL d   1      27.930 -15.964   1.088  0.00  0.00     0.028 C 
ATOM      7  C   UNL d   1      27.290 -14.917   0.193  0.00  0.00     0.236 C 
ATOM      8  H   UNL d   1      25.444 -15.788  -0.167  0.00  0.00     0.280 HD
ENDBRANCH   1   2
BRANCH   1   9
ATOM      9  C   UNL d   1      26.721 -14.131  -2.827  0.00  0.00    -0.023 A 
ATOM     10  C   UNL d   1      27.268 -12.845  -2.855  0.00  0.00     0.012 A 
ATOM     11  C   UNL d   1      27.985 -12.350  -3.919  0.00  0.00     0.040 A 
ATOM     12  C   UNL d   1      28.244 -13.178  -4.990  0.00  0.00     0.101 A 
ATOM     13  C   UNL d   1      27.714 -14.487  -5.000  0.00  0.00     0.102 A 
ATOM     14  C   UNL d   1      26.975 -14.963  -3.907  0.00  0.00     0.049 A 
BRANCH  12  15
ATOM     15  O   UNL d   1      29.004 -12.551  -5.935  0.00  0.00    -0.353 OA
ATOM     16  C   UNL d   1      29.857 -11.522  -5.468  0.00  0.00     0.210 C 
ENDBRANCH  12  15
BRANCH  13  17
ATOM     17  O   UNL d   1      27.888 -15.229  -6.130  0.00  0.00    -0.353 OA
ATOM     18  C   UNL d   1      29.207 -15.560  -6.522  0.00  0.00     0.210 C 
ENDBRANCH  13  17
ENDBRANCH   1   9
BRANCH   1  19
ATOM     19  C   UNL d   1      24.295 -14.895  -2.436  0.00  0.00     0.161 C 
BRANCH  19  20
ATOM     20  N   UNL d   1      23.682 -16.116  -1.885  0.00  0.00    -0.354 N 
ATOM     21  C   UNL d   1      22.447 -16.156  -1.278  0.00  0.00     0.256 C 
ATOM     22  O   UNL d   1      21.824 -15.120  -1.043  0.00  0.00    -0.268 OA
ATOM     23  H   UNL d   1      24.155 -17.001  -1.981  0.00  0.00     0.162 HD
BRANCH  21  24
ATOM     24  C   UNL d   1      21.861 -17.484  -0.923  0.00  0.00     0.090 A 
ATOM     25  C   UNL d   1      20.547 -17.746  -1.252  0.00  0.00     0.139 A 
ATOM     26  N   UNL d   1      19.904 -18.915  -0.982  0.00  0.00    -0.234 NA
ATOM     27  C   UNL d   1      20.610 -19.880  -0.377  0.00  0.00     0.189 A 
ATOM     28  N   UNL d   1      21.883 -19.742  -0.019  0.00  0.00    -0.210 NA
ATOM     29  C   UNL d   1      22.457 -18.552  -0.281  0.00  0.00     0.146 A 
ATOM     30 CL   UNL d   1      24.012 -18.546   0.443  0.00  0.00    -0.061 Cl
BRANCH  27  31
ATOM     31  S   UNL d   1      19.779 -21.315   0.236  0.00  0.00    -0.090 SA
BRANCH  31  32
ATOM     32  C   UNL d   1      18.190 -20.601   0.772  0.00  0.00     0.082 C 
BRANCH  32  33
ATOM     33  C   UNL d   1      18.365 -20.050   2.192  0.00  0.00     0.010 C 
BRANCH  33  34
ATOM     34  C   UNL d   1      19.815 -20.142   2.669  0.00  0.00    -0.004 C 
ATOM     35  C   UNL d   1      19.901 -20.823   4.028  0.00  0.00     0.005 C 
ENDBRANCH  33  34
ENDBRANCH  32  33
ENDBRANCH  31  32
ENDBRANCH  27  31
ENDBRANCH  21  24
ENDBRANCH  19  20
ENDBRANCH   1  19
TORSDOF 11
ENDMDL
