MODEL 1
REMARK VINA RESULT:   -21.363      0.000      0.000
REMARK INTER + INTRA:         -26.960
REMARK INTER:                 -24.943
REMARK INTRA:                  -2.017
REMARK CONF_INDEPENDENT:        3.580
REMARK UNBOUND:                -2.017
REMARK  12 active torsions:
REMARK  status: ('A' for Active; 'I' for Inactive)
REMARK    1  A    between atoms: C_2  and  O_3 
REMARK    2  A    between atoms: O_3  and  C_4 
REMARK    3  A    between atoms: C_6  and  C_7 
REMARK    4  A    between atoms: C_9  and  N_10 
REMARK    5  A    between atoms: C_13  and  C_14 
REMARK    6  A    between atoms: C_14  and  C_15 
REMARK    7  A    between atoms: C_25  and  O_26 
REMARK    8  A    between atoms: O_26  and  C_27 
REMARK    9  A    between atoms: C_27  and  C_28 
REMARK   10  A    between atoms: C_28  and  O_29 
REMARK   11  A    between atoms: O_29  and  C_30 
REMARK   12  A    between atoms: C_33  and  O_34 
ROOT
ATOM      1  C   UNL d   1      25.438 -13.366  -3.015  0.00  0.00     0.102 C 
ATOM      2  C   UNL d   1      24.356 -14.268  -2.987  0.00  0.00     0.051 C 
ATOM      3  C   UNL d   1      24.319 -15.295  -2.029  0.00  0.00    -0.032 C 
ATOM      4  C   UNL d   1      25.448 -15.571  -1.302  0.00  0.00     0.014 C 
ATOM      5  C   UNL d   1      26.411 -14.612  -1.160  0.00  0.00     0.040 C 
ATOM      6  C   UNL d   1      26.431 -13.503  -1.994  0.00  0.00     0.102 C 
ENDROOT
BRANCH   3   7
ATOM      7  C   UNL d   1      23.104 -16.020  -1.702  0.00  0.00     0.032 C 
ATOM      8  C   UNL d   1      22.928 -17.216  -1.089  0.00  0.00     0.082 C 
ATOM      9  C   UNL d   1      21.494 -17.515  -0.996  0.00  0.00     0.162 C 
ATOM     10  C   UNL d   1      23.868 -18.311  -0.473  0.00  0.00     0.283 C 
ATOM     11  N   UNL d   1      21.202 -18.796  -0.725  0.00  0.00    -0.189 N 
ATOM     12  N   UNL d   1      19.905 -19.112  -0.896  0.00  0.00    -0.161 NA
ATOM     13  C   UNL d   1      22.028 -19.685  -0.133  0.00  0.00     0.201 C 
ATOM     14  C   UNL d   1      19.547 -19.962  -0.100  0.00  0.00     0.099 C 
ATOM     15  S   UNL d   1      20.930 -20.916   0.596  0.00  0.00    -0.033 SA
ATOM     16  N   UNL d   1      23.322 -19.549  -0.055  0.00  0.00    -0.182 NA
ATOM     17  O   UNL d   1      25.041 -18.046  -0.216  0.00  0.00    -0.265 OA
BRANCH   9  18
ATOM     18  N   UNL d   1      20.455 -16.741  -1.165  0.00  0.00    -0.281 NA
ATOM     19  H   UNL d   1      19.649 -17.088  -1.641  0.00  0.00     0.188 HD
ENDBRANCH   9  18
BRANCH  14  20
ATOM     20  C   UNL d   1      18.013 -20.080   0.065  0.00  0.00     0.072 C 
BRANCH  20  21
ATOM     21  C   UNL d   1      17.318 -20.900   1.310  0.00  0.00    -0.017 C 
ATOM     22  C   UNL d   1      17.861 -22.304   1.673  0.00  0.00     0.010 C 
ATOM     23  C   UNL d   1      17.490 -20.068   2.614  0.00  0.00     0.010 C 
ENDBRANCH  20  21
ENDBRANCH  14  20
ENDBRANCH   3   7
BRANCH   1  24
ATOM     24  O   UNL d   1      25.239 -12.337  -3.923  0.00  0.00    -0.349 OA
BRANCH  24  25
ATOM     25  C   UNL d   1      26.379 -11.786  -4.583  0.00  0.00     0.171 C 
ATOM     26  C   UNL d   1      26.080 -10.706  -5.595  0.00  0.00     0.034 C 
ENDBRANCH  24  25
ENDBRANCH   1  24
BRANCH   6  27
ATOM     27  O   UNL d   1      27.511 -12.729  -1.596  0.00  0.00    -0.346 OA
BRANCH  27  28
ATOM     28  C   UNL d   1      27.375 -12.387  -0.263  0.00  0.00     0.202 C 
BRANCH  28  29
ATOM     29  C   UNL d   1      28.472 -12.565   0.744  0.00  0.00     0.202 C 
BRANCH  29  30
ATOM     30  O   UNL d   1      28.353 -13.913   1.272  0.00  0.00    -0.349 OA
BRANCH  30  31
ATOM     31  C   UNL d   1      28.394 -13.946   2.639  0.00  0.00     0.069 A 
ATOM     32  C   UNL d   1      29.620 -14.128   3.279  0.00  0.00     0.039 A 
ATOM     33  C   UNL d   1      29.676 -14.106   4.682  0.00  0.00     0.039 A 
ATOM     34  C   UNL d   1      28.522 -13.863   5.436  0.00  0.00     0.068 A 
ATOM     35  C   UNL d   1      27.300 -13.756   4.782  0.00  0.00     0.039 A 
ATOM     36  C   UNL d   1      27.235 -13.829   3.398  0.00  0.00     0.039 A 
BRANCH  34  37
ATOM     37  O   UNL d   1      28.688 -13.740   6.790  0.00  0.00    -0.356 OA
ATOM     38  C   UNL d   1      28.722 -12.404   7.292  0.00  0.00     0.210 C 
ENDBRANCH  34  37
ENDBRANCH  30  31
ENDBRANCH  29  30
ENDBRANCH  28  29
ENDBRANCH  27  28
ENDBRANCH   6  27
TORSDOF 12
ENDMDL
MODEL 2
REMARK VINA RESULT:   -21.185      3.167      5.424
REMARK INTER + INTRA:         -27.298
REMARK INTER:                 -24.765
REMARK INTRA:                  -2.533
REMARK CONF_INDEPENDENT:        3.580
REMARK UNBOUND:                -2.533
REMARK  12 active torsions:
REMARK  status: ('A' for Active; 'I' for Inactive)
REMARK    1  A    between atoms: C_2  and  O_3 
REMARK    2  A    between atoms: O_3  and  C_4 
REMARK    3  A    between atoms: C_6  and  C_7 
REMARK    4  A    between atoms: C_9  and  N_10 
REMARK    5  A    between atoms: C_13  and  C_14 
REMARK    6  A    between atoms: C_14  and  C_15 
REMARK    7  A    between atoms: C_25  and  O_26 
REMARK    8  A    between atoms: O_26  and  C_27 
REMARK    9  A    between atoms: C_27  and  C_28 
REMARK   10  A    between atoms: C_28  and  O_29 
REMARK   11  A    between atoms: O_29  and  C_30 
REMARK   12  A    between atoms: C_33  and  O_34 
ROOT
ATOM      1  C   UNL d   1      25.418 -13.375  -3.124  0.00  0.00     0.102 C 
ATOM      2  C   UNL d   1      24.382 -14.330  -3.079  0.00  0.00     0.051 C 
ATOM      3  C   UNL d   1      24.278 -15.205  -1.984  0.00  0.00    -0.032 C 
ATOM      4  C   UNL d   1      25.324 -15.299  -1.103  0.00  0.00     0.014 C 
ATOM      5  C   UNL d   1      26.218 -14.271  -1.004  0.00  0.00     0.040 C 
ATOM      6  C   UNL d   1      26.287 -13.298  -1.991  0.00  0.00     0.102 C 
ENDROOT
BRANCH   3   7
ATOM      7  C   UNL d   1      23.067 -15.950  -1.687  0.00  0.00     0.032 C 
ATOM      8  C   UNL d   1      22.895 -17.141  -1.064  0.00  0.00     0.082 C 
ATOM      9  C   UNL d   1      21.465 -17.468  -1.013  0.00  0.00     0.162 C 
ATOM     10  C   UNL d   1      23.835 -18.209  -0.403  0.00  0.00     0.283 C 
ATOM     11  N   UNL d   1      21.190 -18.750  -0.734  0.00  0.00    -0.189 N 
ATOM     12  N   UNL d   1      19.905 -19.094  -0.943  0.00  0.00    -0.161 NA
ATOM     13  C   UNL d   1      22.013 -19.615  -0.104  0.00  0.00     0.201 C 
ATOM     14  C   UNL d   1      19.538 -19.941  -0.147  0.00  0.00     0.099 C 
ATOM     15  S   UNL d   1      20.916 -20.859   0.605  0.00  0.00    -0.033 SA
ATOM     16  N   UNL d   1      23.300 -19.453   0.013  0.00  0.00    -0.182 NA
ATOM     17  O   UNL d   1      24.995 -17.918  -0.112  0.00  0.00    -0.265 OA
BRANCH   9  18
ATOM     18  N   UNL d   1      20.418 -16.716  -1.225  0.00  0.00    -0.281 NA
ATOM     19  H   UNL d   1      19.593 -17.115  -1.623  0.00  0.00     0.188 HD
ENDBRANCH   9  18
BRANCH  14  20
ATOM     20  C   UNL d   1      18.002 -20.087  -0.030  0.00  0.00     0.072 C 
BRANCH  20  21
ATOM     21  C   UNL d   1      17.280 -20.852   1.235  0.00  0.00    -0.017 C 
ATOM     22  C   UNL d   1      17.671 -22.320   1.538  0.00  0.00     0.010 C 
ATOM     23  C   UNL d   1      17.619 -20.082   2.544  0.00  0.00     0.010 C 
ENDBRANCH  20  21
ENDBRANCH  14  20
ENDBRANCH   3   7
BRANCH   1  24
ATOM     24  O   UNL d   1      25.280 -12.505  -4.196  0.00  0.00    -0.349 OA
BRANCH  24  25
ATOM     25  C   UNL d   1      26.409 -11.717  -4.576  0.00  0.00     0.171 C 
ATOM     26  C   UNL d   1      26.332 -10.256  -4.203  0.00  0.00     0.034 C 
ENDBRANCH  24  25
ENDBRANCH   1  24
BRANCH   6  27
ATOM     27  O   UNL d   1      27.275 -12.406  -1.599  0.00  0.00    -0.346 OA
BRANCH  27  28
ATOM     28  C   UNL d   1      28.522 -12.975  -1.790  0.00  0.00     0.202 C 
BRANCH  28  29
ATOM     29  C   UNL d   1      28.942 -13.609  -3.082  0.00  0.00     0.202 C 
BRANCH  29  30
ATOM     30  O   UNL d   1      28.561 -15.009  -3.016  0.00  0.00    -0.349 OA
BRANCH  30  31
ATOM     31  C   UNL d   1      29.106 -15.749  -4.029  0.00  0.00     0.069 A 
ATOM     32  C   UNL d   1      29.174 -15.203  -5.311  0.00  0.00     0.039 A 
ATOM     33  C   UNL d   1      29.783 -15.936  -6.342  0.00  0.00     0.039 A 
ATOM     34  C   UNL d   1      30.356 -17.186  -6.082  0.00  0.00     0.068 A 
ATOM     35  C   UNL d   1      30.214 -17.744  -4.817  0.00  0.00     0.039 A 
ATOM     36  C   UNL d   1      29.567 -17.042  -3.809  0.00  0.00     0.039 A 
BRANCH  34  37
ATOM     37  O   UNL d   1      31.033 -17.778  -7.115  0.00  0.00    -0.356 OA
ATOM     38  C   UNL d   1      31.689 -19.007  -6.804  0.00  0.00     0.210 C 
ENDBRANCH  34  37
ENDBRANCH  30  31
ENDBRANCH  29  30
ENDBRANCH  28  29
ENDBRANCH  27  28
ENDBRANCH   6  27
TORSDOF 12
ENDMDL
MODEL 3
REMARK VINA RESULT:   -21.159      2.485      3.791
REMARK INTER + INTRA:         -26.989
REMARK INTER:                 -24.739
REMARK INTRA:                  -2.251
REMARK CONF_INDEPENDENT:        3.580
REMARK UNBOUND:                -2.251
REMARK  12 active torsions:
REMARK  status: ('A' for Active; 'I' for Inactive)
REMARK    1  A    between atoms: C_2  and  O_3 
REMARK    2  A    between atoms: O_3  and  C_4 
REMARK    3  A    between atoms: C_6  and  C_7 
REMARK    4  A    between atoms: C_9  and  N_10 
REMARK    5  A    between atoms: C_13  and  C_14 
REMARK    6  A    between atoms: C_14  and  C_15 
REMARK    7  A    between atoms: C_25  and  O_26 
REMARK    8  A    between atoms: O_26  and  C_27 
REMARK    9  A    between atoms: C_27  and  C_28 
REMARK   10  A    between atoms: C_28  and  O_29 
REMARK   11  A    between atoms: O_29  and  C_30 
REMARK   12  A    between atoms: C_33  and  O_34 
ROOT
ATOM      1  C   UNL d   1      25.435 -13.335  -2.977  0.00  0.00     0.102 C 
ATOM      2  C   UNL d   1      24.368 -14.255  -2.954  0.00  0.00     0.051 C 
ATOM      3  C   UNL d   1      24.311 -15.241  -1.955  0.00  0.00    -0.032 C 
ATOM      4  C   UNL d   1      25.414 -15.464  -1.172  0.00  0.00     0.014 C 
ATOM      5  C   UNL d   1      26.353 -14.481  -1.033  0.00  0.00     0.040 C 
ATOM      6  C   UNL d   1      26.388 -13.409  -1.913  0.00  0.00     0.102 C 
ENDROOT
BRANCH   3   7
ATOM      7  C   UNL d   1      23.096 -15.975  -1.646  0.00  0.00     0.032 C 
ATOM      8  C   UNL d   1      22.921 -17.177  -1.046  0.00  0.00     0.082 C 
ATOM      9  C   UNL d   1      21.488 -17.485  -0.968  0.00  0.00     0.162 C 
ATOM     10  C   UNL d   1      23.861 -18.274  -0.433  0.00  0.00     0.283 C 
ATOM     11  N   UNL d   1      21.200 -18.769  -0.713  0.00  0.00    -0.189 N 
ATOM     12  N   UNL d   1      19.906 -19.090  -0.898  0.00  0.00    -0.161 NA
ATOM     13  C   UNL d   1      22.025 -19.661  -0.122  0.00  0.00     0.201 C 
ATOM     14  C   UNL d   1      19.545 -19.950  -0.114  0.00  0.00     0.099 C 
ATOM     15  S   UNL d   1      20.926 -20.904   0.584  0.00  0.00    -0.033 SA
ATOM     16  N   UNL d   1      23.317 -19.519  -0.032  0.00  0.00    -0.182 NA
ATOM     17  O   UNL d   1      25.031 -18.006  -0.163  0.00  0.00    -0.265 OA
BRANCH   9  18
ATOM     18  N   UNL d   1      20.447 -16.713  -1.138  0.00  0.00    -0.281 NA
ATOM     19  H   UNL d   1      19.556 -17.119  -1.336  0.00  0.00     0.188 HD
ENDBRANCH   9  18
BRANCH  14  20
ATOM     20  C   UNL d   1      18.010 -20.077   0.037  0.00  0.00     0.072 C 
BRANCH  20  21
ATOM     21  C   UNL d   1      17.307 -20.845   1.309  0.00  0.00    -0.017 C 
ATOM     22  C   UNL d   1      17.700 -22.314   1.603  0.00  0.00     0.010 C 
ATOM     23  C   UNL d   1      17.666 -20.078   2.615  0.00  0.00     0.010 C 
ENDBRANCH  20  21
ENDBRANCH  14  20
ENDBRANCH   3   7
BRANCH   1  24
ATOM     24  O   UNL d   1      25.254 -12.349  -3.937  0.00  0.00    -0.349 OA
BRANCH  24  25
ATOM     25  C   UNL d   1      26.342 -12.049  -4.812  0.00  0.00     0.171 C 
ATOM     26  C   UNL d   1      26.874 -10.638  -4.723  0.00  0.00     0.034 C 
ENDBRANCH  24  25
ENDBRANCH   1  24
BRANCH   6  27
ATOM     27  O   UNL d   1      27.436 -12.597  -1.506  0.00  0.00    -0.346 OA
BRANCH  27  28
ATOM     28  C   UNL d   1      27.653 -12.757  -0.149  0.00  0.00     0.202 C 
BRANCH  28  29
ATOM     29  C   UNL d   1      28.178 -11.663   0.730  0.00  0.00     0.202 C 
BRANCH  29  30
ATOM     30  O   UNL d   1      28.359 -10.490  -0.107  0.00  0.00    -0.349 OA
BRANCH  30  31
ATOM     31  C   UNL d   1      27.387  -9.548   0.092  0.00  0.00     0.069 A 
ATOM     32  C   UNL d   1      26.739  -9.488   1.326  0.00  0.00     0.039 A 
ATOM     33  C   UNL d   1      25.781  -8.488   1.556  0.00  0.00     0.039 A 
ATOM     34  C   UNL d   1      25.504  -7.531   0.573  0.00  0.00     0.068 A 
ATOM     35  C   UNL d   1      26.106  -7.651  -0.674  0.00  0.00     0.039 A 
ATOM     36  C   UNL d   1      27.015  -8.670  -0.920  0.00  0.00     0.039 A 
BRANCH  34  37
ATOM     37  O   UNL d   1      24.645  -6.523   0.924  0.00  0.00    -0.356 OA
ATOM     38  C   UNL d   1      25.111  -5.197   0.673  0.00  0.00     0.210 C 
ENDBRANCH  34  37
ENDBRANCH  30  31
ENDBRANCH  29  30
ENDBRANCH  28  29
ENDBRANCH  27  28
ENDBRANCH   6  27
TORSDOF 12
ENDMDL
MODEL 4
REMARK VINA RESULT:   -20.721      2.995      5.400
REMARK INTER + INTRA:         -26.892
REMARK INTER:                 -24.301
REMARK INTRA:                  -2.591
REMARK CONF_INDEPENDENT:        3.580
REMARK UNBOUND:                -2.591
REMARK  12 active torsions:
REMARK  status: ('A' for Active; 'I' for Inactive)
REMARK    1  A    between atoms: C_2  and  O_3 
REMARK    2  A    between atoms: O_3  and  C_4 
REMARK    3  A    between atoms: C_6  and  C_7 
REMARK    4  A    between atoms: C_9  and  N_10 
REMARK    5  A    between atoms: C_13  and  C_14 
REMARK    6  A    between atoms: C_14  and  C_15 
REMARK    7  A    between atoms: C_25  and  O_26 
REMARK    8  A    between atoms: O_26  and  C_27 
REMARK    9  A    between atoms: C_27  and  C_28 
REMARK   10  A    between atoms: C_28  and  O_29 
REMARK   11  A    between atoms: O_29  and  C_30 
REMARK   12  A    between atoms: C_33  and  O_34 
ROOT
ATOM      1  C   UNL d   1      25.383 -13.265  -3.037  0.00  0.00     0.102 C 
ATOM      2  C   UNL d   1      24.327 -14.198  -3.023  0.00  0.00     0.051 C 
ATOM      3  C   UNL d   1      24.270 -15.182  -2.022  0.00  0.00    -0.032 C 
ATOM      4  C   UNL d   1      25.367 -15.390  -1.227  0.00  0.00     0.014 C 
ATOM      5  C   UNL d   1      26.293 -14.397  -1.081  0.00  0.00     0.040 C 
ATOM      6  C   UNL d   1      26.326 -13.326  -1.963  0.00  0.00     0.102 C 
ENDROOT
BRANCH   3   7
ATOM      7  C   UNL d   1      23.061 -15.929  -1.724  0.00  0.00     0.032 C 
ATOM      8  C   UNL d   1      22.891 -17.120  -1.100  0.00  0.00     0.082 C 
ATOM      9  C   UNL d   1      21.461 -17.450  -1.048  0.00  0.00     0.162 C 
ATOM     10  C   UNL d   1      23.834 -18.185  -0.438  0.00  0.00     0.283 C 
ATOM     11  N   UNL d   1      21.189 -18.732  -0.768  0.00  0.00    -0.189 N 
ATOM     12  N   UNL d   1      19.905 -19.080  -0.976  0.00  0.00    -0.161 NA
ATOM     13  C   UNL d   1      22.014 -19.595  -0.137  0.00  0.00     0.201 C 
ATOM     14  C   UNL d   1      19.540 -19.927  -0.180  0.00  0.00     0.099 C 
ATOM     15  S   UNL d   1      20.920 -20.841   0.573  0.00  0.00    -0.033 SA
ATOM     16  N   UNL d   1      23.301 -19.430  -0.021  0.00  0.00    -0.182 NA
ATOM     17  O   UNL d   1      24.992 -17.891  -0.148  0.00  0.00    -0.265 OA
BRANCH   9  18
ATOM     18  N   UNL d   1      20.413 -16.701  -1.261  0.00  0.00    -0.281 NA
ATOM     19  H   UNL d   1      19.570 -17.112  -1.606  0.00  0.00     0.188 HD
ENDBRANCH   9  18
BRANCH  14  20
ATOM     20  C   UNL d   1      18.004 -20.076  -0.062  0.00  0.00     0.072 C 
BRANCH  20  21
ATOM     21  C   UNL d   1      17.285 -20.842   1.202  0.00  0.00    -0.017 C 
ATOM     22  C   UNL d   1      17.664 -22.315   1.495  0.00  0.00     0.010 C 
ATOM     23  C   UNL d   1      17.640 -20.083   2.514  0.00  0.00     0.010 C 
ENDBRANCH  20  21
ENDBRANCH  14  20
ENDBRANCH   3   7
BRANCH   1  24
ATOM     24  O   UNL d   1      25.201 -12.284  -4.001  0.00  0.00    -0.349 OA
BRANCH  24  25
ATOM     25  C   UNL d   1      25.534 -10.937  -3.666  0.00  0.00     0.171 C 
ATOM     26  C   UNL d   1      25.561  -9.970  -4.826  0.00  0.00     0.034 C 
ENDBRANCH  24  25
ENDBRANCH   1  24
BRANCH   6  27
ATOM     27  O   UNL d   1      27.360 -12.501  -1.547  0.00  0.00    -0.346 OA
BRANCH  27  28
ATOM     28  C   UNL d   1      28.387 -13.266  -1.023  0.00  0.00     0.202 C 
BRANCH  28  29
ATOM     29  C   UNL d   1      29.329 -14.064  -1.875  0.00  0.00     0.202 C 
BRANCH  29  30
ATOM     30  O   UNL d   1      28.528 -14.747  -2.875  0.00  0.00    -0.349 OA
BRANCH  30  31
ATOM     31  C   UNL d   1      28.783 -14.303  -4.144  0.00  0.00     0.069 A 
ATOM     32  C   UNL d   1      29.562 -15.086  -4.995  0.00  0.00     0.039 A 
ATOM     33  C   UNL d   1      29.780 -14.664  -6.316  0.00  0.00     0.039 A 
ATOM     34  C   UNL d   1      29.189 -13.488  -6.793  0.00  0.00     0.068 A 
ATOM     35  C   UNL d   1      28.476 -12.686  -5.909  0.00  0.00     0.039 A 
ATOM     36  C   UNL d   1      28.303 -13.077  -4.589  0.00  0.00     0.039 A 
BRANCH  34  37
ATOM     37  O   UNL d   1      29.355 -13.213  -8.124  0.00  0.00    -0.356 OA
ATOM     38  C   UNL d   1      28.789 -11.984  -8.579  0.00  0.00     0.210 C 
ENDBRANCH  34  37
ENDBRANCH  30  31
ENDBRANCH  29  30
ENDBRANCH  28  29
ENDBRANCH  27  28
ENDBRANCH   6  27
TORSDOF 12
ENDMDL
MODEL 5
REMARK VINA RESULT:   -20.468      3.129      3.608
REMARK INTER + INTRA:         -26.681
REMARK INTER:                 -24.048
REMARK INTRA:                  -2.633
REMARK CONF_INDEPENDENT:        3.580
REMARK UNBOUND:                -2.633
REMARK  12 active torsions:
REMARK  status: ('A' for Active; 'I' for Inactive)
REMARK    1  A    between atoms: C_2  and  O_3 
REMARK    2  A    between atoms: O_3  and  C_4 
REMARK    3  A    between atoms: C_6  and  C_7 
REMARK    4  A    between atoms: C_9  and  N_10 
REMARK    5  A    between atoms: C_13  and  C_14 
REMARK    6  A    between atoms: C_14  and  C_15 
REMARK    7  A    between atoms: C_25  and  O_26 
REMARK    8  A    between atoms: O_26  and  C_27 
REMARK    9  A    between atoms: C_27  and  C_28 
REMARK   10  A    between atoms: C_28  and  O_29 
REMARK   11  A    between atoms: O_29  and  C_30 
REMARK   12  A    between atoms: C_33  and  O_34 
ROOT
ATOM      1  C   UNL d   1      25.401 -13.353  -3.126  0.00  0.00     0.102 C 
ATOM      2  C   UNL d   1      24.358 -14.300  -3.078  0.00  0.00     0.051 C 
ATOM      3  C   UNL d   1      24.276 -15.202  -2.004  0.00  0.00    -0.032 C 
ATOM      4  C   UNL d   1      25.343 -15.327  -1.153  0.00  0.00     0.014 C 
ATOM      5  C   UNL d   1      26.248 -14.309  -1.051  0.00  0.00     0.040 C 
ATOM      6  C   UNL d   1      26.300 -13.311  -2.015  0.00  0.00     0.102 C 
ENDROOT
BRANCH   3   7
ATOM      7  C   UNL d   1      23.067 -15.945  -1.695  0.00  0.00     0.032 C 
ATOM      8  C   UNL d   1      22.899 -17.139  -1.076  0.00  0.00     0.082 C 
ATOM      9  C   UNL d   1      21.469 -17.461  -1.007  0.00  0.00     0.162 C 
ATOM     10  C   UNL d   1      23.845 -18.213  -0.433  0.00  0.00     0.283 C 
ATOM     11  N   UNL d   1      21.194 -18.744  -0.731  0.00  0.00    -0.189 N 
ATOM     12  N   UNL d   1      19.905 -19.084  -0.924  0.00  0.00    -0.161 NA
ATOM     13  C   UNL d   1      22.022 -19.615  -0.116  0.00  0.00     0.201 C 
ATOM     14  C   UNL d   1      19.546 -19.933  -0.128  0.00  0.00     0.099 C 
ATOM     15  S   UNL d   1      20.931 -20.859   0.601  0.00  0.00    -0.033 SA
ATOM     16  N   UNL d   1      23.312 -19.457  -0.016  0.00  0.00    -0.182 NA
ATOM     17  O   UNL d   1      25.009 -17.927  -0.156  0.00  0.00    -0.265 OA
BRANCH   9  18
ATOM     18  N   UNL d   1      20.421 -16.705  -1.201  0.00  0.00    -0.281 NA
ATOM     19  H   UNL d   1      19.595 -17.096  -1.604  0.00  0.00     0.188 HD
ENDBRANCH   9  18
BRANCH  14  20
ATOM     20  C   UNL d   1      18.011 -20.075   0.009  0.00  0.00     0.072 C 
BRANCH  20  21
ATOM     21  C   UNL d   1      17.305 -20.851   1.276  0.00  0.00    -0.017 C 
ATOM     22  C   UNL d   1      17.702 -22.320   1.566  0.00  0.00     0.010 C 
ATOM     23  C   UNL d   1      17.654 -20.088   2.586  0.00  0.00     0.010 C 
ENDBRANCH  20  21
ENDBRANCH  14  20
ENDBRANCH   3   7
BRANCH   1  24
ATOM     24  O   UNL d   1      25.243 -12.454  -4.171  0.00  0.00    -0.349 OA
BRANCH  24  25
ATOM     25  C   UNL d   1      26.370 -11.670  -4.565  0.00  0.00     0.171 C 
ATOM     26  C   UNL d   1      26.322 -10.218  -4.153  0.00  0.00     0.034 C 
ENDBRANCH  24  25
ENDBRANCH   1  24
BRANCH   6  27
ATOM     27  O   UNL d   1      27.305 -12.438  -1.626  0.00  0.00    -0.346 OA
BRANCH  27  28
ATOM     28  C   UNL d   1      28.541 -13.018  -1.848  0.00  0.00     0.202 C 
BRANCH  28  29
ATOM     29  C   UNL d   1      28.883 -13.761  -3.104  0.00  0.00     0.202 C 
BRANCH  29  30
ATOM     30  O   UNL d   1      28.394 -15.119  -2.945  0.00  0.00    -0.349 OA
BRANCH  30  31
ATOM     31  C   UNL d   1      29.310 -15.938  -2.343  0.00  0.00     0.069 A 
ATOM     32  C   UNL d   1      30.660 -15.804  -2.666  0.00  0.00     0.039 A 
ATOM     33  C   UNL d   1      31.611 -16.603  -2.011  0.00  0.00     0.039 A 
ATOM     34  C   UNL d   1      31.216 -17.499  -1.011  0.00  0.00     0.068 A 
ATOM     35  C   UNL d   1      29.861 -17.671  -0.755  0.00  0.00     0.039 A 
ATOM     36  C   UNL d   1      28.916 -16.918  -1.439  0.00  0.00     0.039 A 
BRANCH  34  37
ATOM     37  O   UNL d   1      32.218 -18.151  -0.342  0.00  0.00    -0.356 OA
ATOM     38  C   UNL d   1      32.504 -17.666   0.971  0.00  0.00     0.210 C 
ENDBRANCH  34  37
ENDBRANCH  30  31
ENDBRANCH  29  30
ENDBRANCH  28  29
ENDBRANCH  27  28
ENDBRANCH   6  27
TORSDOF 12
ENDMDL
