MODEL 1
REMARK VINA RESULT:    -8.370      0.000      0.000
REMARK INTER + INTRA:         -10.327
REMARK INTER:                  -9.862
REMARK INTRA:                  -0.466
REMARK CONF_INDEPENDENT:        1.492
REMARK UNBOUND:                -0.466
REMARK  5 active torsions:
REMARK  status: ('A' for Active; 'I' for Inactive)
REMARK       I    between atoms: N_2  and  C_3 
REMARK    1  A    between atoms: C_3  and  C_5 
REMARK    2  A    between atoms: C_8  and  N_9 
REMARK       I    between atoms: N_9  and  C_10 
REMARK    3  A    between atoms: C_10  and  C_12 
REMARK    4  A    between atoms: C_15  and  C_16 
REMARK    5  A    between atoms: C_16  and  O_17 
ROOT
ATOM      1  N   UNL d   1      23.642 -18.713  -0.153  0.00  0.00    -0.323 N 
ATOM      2  C   UNL d   1      22.442 -18.058  -0.415  0.00  0.00     0.256 C 
ATOM      3  O   UNL d   1      22.311 -16.919  -0.866  0.00  0.00    -0.267 OA
ATOM      4  H   UNL d   1      23.604 -19.662   0.204  0.00  0.00     0.169 HD
ENDROOT
BRANCH   1   5
ATOM      5  C   UNL d   1      24.935 -18.131  -0.316  0.00  0.00     0.035 A 
ATOM      6  C   UNL d   1      25.149 -17.133  -1.276  0.00  0.00     0.030 A 
ATOM      7  C   UNL d   1      26.449 -16.628  -1.507  0.00  0.00     0.019 A 
ATOM      8  C   UNL d   1      27.537 -17.075  -0.743  0.00  0.00     0.032 A 
ATOM      9  C   UNL d   1      27.320 -18.035   0.238  0.00  0.00     0.019 A 
ATOM     10  C   UNL d   1      26.036 -18.544   0.444  0.00  0.00     0.030 A 
BRANCH   8  11
ATOM     11  C   UNL d   1      28.873 -16.435  -0.869  0.00  0.00     0.251 C 
ATOM     12  N   UNL d   1      29.913 -16.994  -0.154  0.00  0.00    -0.361 N 
ATOM     13  C   UNL d   1      31.238 -16.418  -0.200  0.00  0.00     0.149 C 
ATOM     14  H   UNL d   1      29.777 -17.859   0.354  0.00  0.00     0.162 HD
ATOM     15  O   UNL d   1      29.000 -15.437  -1.580  0.00  0.00    -0.268 OA
ENDBRANCH   8  11
ENDBRANCH   1   5
BRANCH   2  16
ATOM     16  C   UNL d   1      21.168 -18.750  -0.120  0.00  0.00     0.032 A 
ATOM     17  C   UNL d   1      20.979 -19.247   1.181  0.00  0.00     0.017 A 
ATOM     18  C   UNL d   1      19.907 -20.095   1.469  0.00  0.00     0.010 A 
ATOM     19  C   UNL d   1      18.970 -20.407   0.476  0.00  0.00    -0.035 A 
ATOM     20  C   UNL d   1      19.190 -19.932  -0.829  0.00  0.00     0.010 A 
ATOM     21  C   UNL d   1      20.279 -19.105  -1.130  0.00  0.00     0.017 A 
BRANCH  19  22
ATOM     22  C   UNL d   1      17.748 -21.211   0.854  0.00  0.00     0.202 C 
BRANCH  22  23
ATOM     23  O   UNL d   1      18.027 -22.601   0.980  0.00  0.00    -0.396 OA
ATOM     24  H   UNL d   1      17.299 -23.070   0.540  0.00  0.00     0.209 HD
ENDBRANCH  22  23
ENDBRANCH  19  22
ENDBRANCH   2  16
TORSDOF 5
ENDMDL
MODEL 2
REMARK VINA RESULT:    -8.302      0.509      1.164
REMARK INTER + INTRA:         -10.258
REMARK INTER:                  -9.793
REMARK INTRA:                  -0.465
REMARK CONF_INDEPENDENT:        1.492
REMARK UNBOUND:                -0.465
REMARK  5 active torsions:
REMARK  status: ('A' for Active; 'I' for Inactive)
REMARK       I    between atoms: N_2  and  C_3 
REMARK    1  A    between atoms: C_3  and  C_5 
REMARK    2  A    between atoms: C_8  and  N_9 
REMARK       I    between atoms: N_9  and  C_10 
REMARK    3  A    between atoms: C_10  and  C_12 
REMARK    4  A    between atoms: C_15  and  C_16 
REMARK    5  A    between atoms: C_16  and  O_17 
ROOT
ATOM      1  N   UNL d   1      23.675 -18.601  -0.014  0.00  0.00    -0.323 N 
ATOM      2  C   UNL d   1      22.454 -18.041  -0.378  0.00  0.00     0.256 C 
ATOM      3  O   UNL d   1      22.285 -16.986  -0.991  0.00  0.00    -0.267 OA
ATOM      4  H   UNL d   1      23.670 -19.489   0.477  0.00  0.00     0.169 HD
ENDROOT
BRANCH   1   5
ATOM      5  C   UNL d   1      24.946 -17.996  -0.248  0.00  0.00     0.035 A 
ATOM      6  C   UNL d   1      26.066 -18.381   0.501  0.00  0.00     0.030 A 
ATOM      7  C   UNL d   1      27.301 -17.713   0.339  0.00  0.00     0.019 A 
ATOM      8  C   UNL d   1      27.443 -16.691  -0.612  0.00  0.00     0.032 A 
ATOM      9  C   UNL d   1      26.346 -16.336  -1.385  0.00  0.00     0.019 A 
ATOM     10  C   UNL d   1      25.123 -16.987  -1.203  0.00  0.00     0.030 A 
BRANCH   8  11
ATOM     11  C   UNL d   1      28.775 -16.096  -0.900  0.00  0.00     0.251 C 
ATOM     12  N   UNL d   1      29.664 -15.994   0.152  0.00  0.00    -0.361 N 
ATOM     13  C   UNL d   1      30.969 -15.404  -0.036  0.00  0.00     0.149 C 
ATOM     14  H   UNL d   1      29.439 -16.401   1.052  0.00  0.00     0.162 HD
ATOM     15  O   UNL d   1      29.028 -15.704  -2.040  0.00  0.00    -0.268 OA
ENDBRANCH   8  11
ENDBRANCH   1   5
BRANCH   2  16
ATOM     16  C   UNL d   1      21.205 -18.735   0.004  0.00  0.00     0.032 A 
ATOM     17  C   UNL d   1      21.029 -19.071   1.356  0.00  0.00     0.017 A 
ATOM     18  C   UNL d   1      19.987 -19.913   1.750  0.00  0.00     0.010 A 
ATOM     19  C   UNL d   1      19.064 -20.382   0.806  0.00  0.00    -0.035 A 
ATOM     20  C   UNL d   1      19.272 -20.067  -0.549  0.00  0.00     0.010 A 
ATOM     21  C   UNL d   1      20.332 -19.246  -0.953  0.00  0.00     0.017 A 
BRANCH  19  22
ATOM     22  C   UNL d   1      17.871 -21.174   1.283  0.00  0.00     0.202 C 
BRANCH  22  23
ATOM     23  O   UNL d   1      17.278 -21.946   0.245  0.00  0.00    -0.396 OA
ATOM     24  H   UNL d   1      17.280 -22.868   0.550  0.00  0.00     0.209 HD
ENDBRANCH  22  23
ENDBRANCH  19  22
ENDBRANCH   2  16
TORSDOF 5
ENDMDL
MODEL 3
REMARK VINA RESULT:    -7.073      1.942      2.438
REMARK INTER + INTRA:          -9.078
REMARK INTER:                  -8.565
REMARK INTRA:                  -0.513
REMARK CONF_INDEPENDENT:        1.492
REMARK UNBOUND:                -0.513
REMARK  5 active torsions:
REMARK  status: ('A' for Active; 'I' for Inactive)
REMARK       I    between atoms: N_2  and  C_3 
REMARK    1  A    between atoms: C_3  and  C_5 
REMARK    2  A    between atoms: C_8  and  N_9 
REMARK       I    between atoms: N_9  and  C_10 
REMARK    3  A    between atoms: C_10  and  C_12 
REMARK    4  A    between atoms: C_15  and  C_16 
REMARK    5  A    between atoms: C_16  and  O_17 
ROOT
ATOM      1  N   UNL d   1      23.274 -17.302  -0.609  0.00  0.00    -0.323 N 
ATOM      2  C   UNL d   1      22.639 -18.442  -1.096  0.00  0.00     0.256 C 
ATOM      3  O   UNL d   1      23.003 -19.133  -2.048  0.00  0.00    -0.267 OA
ATOM      4  H   UNL d   1      22.873 -16.836   0.199  0.00  0.00     0.169 HD
ENDROOT
BRANCH   1   5
ATOM      5  C   UNL d   1      24.437 -16.712  -1.188  0.00  0.00     0.035 A 
ATOM      6  C   UNL d   1      25.709 -17.233  -0.915  0.00  0.00     0.030 A 
ATOM      7  C   UNL d   1      26.868 -16.590  -1.407  0.00  0.00     0.019 A 
ATOM      8  C   UNL d   1      26.764 -15.453  -2.222  0.00  0.00     0.032 A 
ATOM      9  C   UNL d   1      25.502 -14.959  -2.529  0.00  0.00     0.019 A 
ATOM     10  C   UNL d   1      24.364 -15.588  -2.020  0.00  0.00     0.030 A 
BRANCH   8  11
ATOM     11  C   UNL d   1      27.966 -14.867  -2.873  0.00  0.00     0.251 C 
ATOM     12  N   UNL d   1      28.011 -14.886  -4.252  0.00  0.00    -0.361 N 
ATOM     13  C   UNL d   1      29.155 -14.362  -4.962  0.00  0.00     0.149 C 
ATOM     14  H   UNL d   1      27.210 -15.200  -4.785  0.00  0.00     0.162 HD
ATOM     15  O   UNL d   1      28.871 -14.412  -2.172  0.00  0.00    -0.268 OA
ENDBRANCH   8  11
ENDBRANCH   1   5
BRANCH   2  16
ATOM     16  C   UNL d   1      21.389 -18.897  -0.450  0.00  0.00     0.032 A 
ATOM     17  C   UNL d   1      21.360 -18.950   0.954  0.00  0.00     0.017 A 
ATOM     18  C   UNL d   1      20.301 -19.573   1.620  0.00  0.00     0.010 A 
ATOM     19  C   UNL d   1      19.222 -20.095   0.894  0.00  0.00    -0.035 A 
ATOM     20  C   UNL d   1      19.281 -20.066  -0.510  0.00  0.00     0.010 A 
ATOM     21  C   UNL d   1      20.354 -19.469  -1.184  0.00  0.00     0.017 A 
BRANCH  19  22
ATOM     22  C   UNL d   1      18.030 -20.635   1.648  0.00  0.00     0.202 C 
BRANCH  22  23
ATOM     23  O   UNL d   1      17.727 -21.980   1.297  0.00  0.00    -0.396 OA
ATOM     24  H   UNL d   1      16.905 -21.953   0.780  0.00  0.00     0.209 HD
ENDBRANCH  22  23
ENDBRANCH  19  22
ENDBRANCH   2  16
TORSDOF 5
ENDMDL
MODEL 4
REMARK VINA RESULT:    -6.786      2.199      9.207
REMARK INTER + INTRA:          -8.725
REMARK INTER:                  -8.278
REMARK INTRA:                  -0.447
REMARK CONF_INDEPENDENT:        1.492
REMARK UNBOUND:                -0.447
REMARK  5 active torsions:
REMARK  status: ('A' for Active; 'I' for Inactive)
REMARK       I    between atoms: N_2  and  C_3 
REMARK    1  A    between atoms: C_3  and  C_5 
REMARK    2  A    between atoms: C_8  and  N_9 
REMARK       I    between atoms: N_9  and  C_10 
REMARK    3  A    between atoms: C_10  and  C_12 
REMARK    4  A    between atoms: C_15  and  C_16 
REMARK    5  A    between atoms: C_16  and  O_17 
ROOT
ATOM      1  N   UNL d   1      25.673 -16.515  -0.499  0.00  0.00    -0.323 N 
ATOM      2  C   UNL d   1      26.857 -17.006   0.045  0.00  0.00     0.256 C 
ATOM      3  O   UNL d   1      27.029 -18.122   0.537  0.00  0.00    -0.267 OA
ATOM      4  H   UNL d   1      25.675 -15.578  -0.889  0.00  0.00     0.169 HD
ENDROOT
BRANCH   1   5
ATOM      5  C   UNL d   1      24.434 -17.223  -0.518  0.00  0.00     0.035 A 
ATOM      6  C   UNL d   1      24.411 -18.618  -0.386  0.00  0.00     0.030 A 
ATOM      7  C   UNL d   1      23.195 -19.329  -0.505  0.00  0.00     0.019 A 
ATOM      8  C   UNL d   1      21.984 -18.648  -0.701  0.00  0.00     0.032 A 
ATOM      9  C   UNL d   1      21.999 -17.262  -0.790  0.00  0.00     0.019 A 
ATOM     10  C   UNL d   1      23.208 -16.570  -0.693  0.00  0.00     0.030 A 
BRANCH   8  11
ATOM     11  C   UNL d   1      20.686 -19.374  -0.666  0.00  0.00     0.251 C 
ATOM     12  N   UNL d   1      20.394 -20.093   0.476  0.00  0.00    -0.361 N 
ATOM     13  C   UNL d   1      19.166 -20.847   0.580  0.00  0.00     0.149 C 
ATOM     14  H   UNL d   1      21.002 -20.039   1.283  0.00  0.00     0.162 HD
ATOM     15  O   UNL d   1      19.940 -19.325  -1.645  0.00  0.00    -0.268 OA
ENDBRANCH   8  11
ENDBRANCH   1   5
BRANCH   2  16
ATOM     16  C   UNL d   1      28.049 -16.132   0.076  0.00  0.00     0.032 A 
ATOM     17  C   UNL d   1      29.190 -16.556  -0.626  0.00  0.00     0.017 A 
ATOM     18  C   UNL d   1      30.411 -15.897  -0.463  0.00  0.00     0.010 A 
ATOM     19  C   UNL d   1      30.495 -14.762   0.355  0.00  0.00    -0.035 A 
ATOM     20  C   UNL d   1      29.355 -14.369   1.078  0.00  0.00     0.010 A 
ATOM     21  C   UNL d   1      28.135 -15.044   0.941  0.00  0.00     0.017 A 
BRANCH  19  22
ATOM     22  C   UNL d   1      31.792 -13.991   0.401  0.00  0.00     0.202 C 
BRANCH  22  23
ATOM     23  O   UNL d   1      31.924 -13.080  -0.685  0.00  0.00    -0.396 OA
ATOM     24  H   UNL d   1      32.527 -13.496  -1.323  0.00  0.00     0.209 HD
ENDBRANCH  22  23
ENDBRANCH  19  22
ENDBRANCH   2  16
TORSDOF 5
ENDMDL
MODEL 5
REMARK VINA RESULT:    -6.695      2.507      9.208
REMARK INTER + INTRA:          -8.715
REMARK INTER:                  -8.186
REMARK INTRA:                  -0.529
REMARK CONF_INDEPENDENT:        1.492
REMARK UNBOUND:                -0.529
REMARK  5 active torsions:
REMARK  status: ('A' for Active; 'I' for Inactive)
REMARK       I    between atoms: N_2  and  C_3 
REMARK    1  A    between atoms: C_3  and  C_5 
REMARK    2  A    between atoms: C_8  and  N_9 
REMARK       I    between atoms: N_9  and  C_10 
REMARK    3  A    between atoms: C_10  and  C_12 
REMARK    4  A    between atoms: C_15  and  C_16 
REMARK    5  A    between atoms: C_16  and  O_17 
ROOT
ATOM      1  N   UNL d   1      25.442 -16.368  -0.873  0.00  0.00    -0.323 N 
ATOM      2  C   UNL d   1      25.807 -15.645  -2.005  0.00  0.00     0.256 C 
ATOM      3  O   UNL d   1      25.155 -15.528  -3.044  0.00  0.00    -0.267 OA
ATOM      4  H   UNL d   1      26.070 -16.365  -0.076  0.00  0.00     0.169 HD
ENDROOT
BRANCH   1   5
ATOM      5  C   UNL d   1      24.255 -17.152  -0.761  0.00  0.00     0.035 A 
ATOM      6  C   UNL d   1      24.334 -18.533  -0.532  0.00  0.00     0.030 A 
ATOM      7  C   UNL d   1      23.163 -19.325  -0.520  0.00  0.00     0.019 A 
ATOM      8  C   UNL d   1      21.899 -18.738  -0.684  0.00  0.00     0.032 A 
ATOM      9  C   UNL d   1      21.815 -17.364  -0.870  0.00  0.00     0.019 A 
ATOM     10  C   UNL d   1      22.979 -16.592  -0.902  0.00  0.00     0.030 A 
BRANCH   8  11
ATOM     11  C   UNL d   1      20.658 -19.539  -0.514  0.00  0.00     0.251 C 
ATOM     12  N   UNL d   1      20.424 -20.086   0.732  0.00  0.00    -0.361 N 
ATOM     13  C   UNL d   1      19.254 -20.900   0.975  0.00  0.00     0.149 C 
ATOM     14  H   UNL d   1      21.030 -19.862   1.511  0.00  0.00     0.162 HD
ATOM     15  O   UNL d   1      19.906 -19.700  -1.476  0.00  0.00    -0.268 OA
ENDBRANCH   8  11
ENDBRANCH   1   5
BRANCH   2  16
ATOM     16  C   UNL d   1      27.110 -14.943  -2.018  0.00  0.00     0.032 A 
ATOM     17  C   UNL d   1      28.021 -15.273  -3.035  0.00  0.00     0.017 A 
ATOM     18  C   UNL d   1      29.340 -14.817  -2.982  0.00  0.00     0.010 A 
ATOM     19  C   UNL d   1      29.752 -13.970  -1.945  0.00  0.00    -0.035 A 
ATOM     20  C   UNL d   1      28.841 -13.676  -0.916  0.00  0.00     0.010 A 
ATOM     21  C   UNL d   1      27.525 -14.154  -0.948  0.00  0.00     0.017 A 
BRANCH  19  22
ATOM     22  C   UNL d   1      31.143 -13.383  -1.992  0.00  0.00     0.202 C 
BRANCH  22  23
ATOM     23  O   UNL d   1      31.144 -11.970  -1.827  0.00  0.00    -0.396 OA
ATOM     24  H   UNL d   1      32.043 -11.667  -2.038  0.00  0.00     0.209 HD
ENDBRANCH  22  23
ENDBRANCH  19  22
ENDBRANCH   2  16
TORSDOF 5
ENDMDL
MODEL 6
REMARK VINA RESULT:    -6.694      2.694      9.245
REMARK INTER + INTRA:          -8.709
REMARK INTER:                  -8.186
REMARK INTRA:                  -0.524
REMARK CONF_INDEPENDENT:        1.492
REMARK UNBOUND:                -0.524
REMARK  5 active torsions:
REMARK  status: ('A' for Active; 'I' for Inactive)
REMARK       I    between atoms: N_2  and  C_3 
REMARK    1  A    between atoms: C_3  and  C_5 
REMARK    2  A    between atoms: C_8  and  N_9 
REMARK       I    between atoms: N_9  and  C_10 
REMARK    3  A    between atoms: C_10  and  C_12 
REMARK    4  A    between atoms: C_15  and  C_16 
REMARK    5  A    between atoms: C_16  and  O_17 
ROOT
ATOM      1  N   UNL d   1      25.455 -16.382  -0.947  0.00  0.00    -0.323 N 
ATOM      2  C   UNL d   1      25.810 -15.672  -2.091  0.00  0.00     0.256 C 
ATOM      3  O   UNL d   1      25.144 -15.561  -3.122  0.00  0.00    -0.267 OA
ATOM      4  H   UNL d   1      26.095 -16.375  -0.159  0.00  0.00     0.169 HD
ENDROOT
BRANCH   1   5
ATOM      5  C   UNL d   1      24.264 -17.156  -0.811  0.00  0.00     0.035 A 
ATOM      6  C   UNL d   1      24.337 -18.532  -0.556  0.00  0.00     0.030 A 
ATOM      7  C   UNL d   1      23.162 -19.317  -0.520  0.00  0.00     0.019 A 
ATOM      8  C   UNL d   1      21.900 -18.725  -0.684  0.00  0.00     0.032 A 
ATOM      9  C   UNL d   1      21.823 -17.355  -0.895  0.00  0.00     0.019 A 
ATOM     10  C   UNL d   1      22.991 -16.591  -0.950  0.00  0.00     0.030 A 
BRANCH   8  11
ATOM     11  C   UNL d   1      20.655 -19.515  -0.488  0.00  0.00     0.251 C 
ATOM     12  N   UNL d   1      20.421 -20.025   0.773  0.00  0.00    -0.361 N 
ATOM     13  C   UNL d   1      19.248 -20.825   1.042  0.00  0.00     0.149 C 
ATOM     14  H   UNL d   1      21.030 -19.781   1.544  0.00  0.00     0.162 HD
ATOM     15  O   UNL d   1      19.901 -19.700  -1.444  0.00  0.00    -0.268 OA
ENDBRANCH   8  11
ENDBRANCH   1   5
BRANCH   2  16
ATOM     16  C   UNL d   1      27.117 -14.980  -2.129  0.00  0.00     0.032 A 
ATOM     17  C   UNL d   1      27.113 -13.576  -2.166  0.00  0.00     0.017 A 
ATOM     18  C   UNL d   1      28.290 -12.869  -2.423  0.00  0.00     0.010 A 
ATOM     19  C   UNL d   1      29.503 -13.552  -2.582  0.00  0.00    -0.035 A 
ATOM     20  C   UNL d   1      29.486 -14.958  -2.577  0.00  0.00     0.010 A 
ATOM     21  C   UNL d   1      28.304 -15.673  -2.350  0.00  0.00     0.017 A 
BRANCH  19  22
ATOM     22  C   UNL d   1      30.777 -12.754  -2.718  0.00  0.00     0.202 C 
BRANCH  22  23
ATOM     23  O   UNL d   1      30.537 -11.354  -2.805  0.00  0.00    -0.396 OA
ATOM     24  H   UNL d   1      30.834 -10.970  -1.962  0.00  0.00     0.209 HD
ENDBRANCH  22  23
ENDBRANCH  19  22
ENDBRANCH   2  16
TORSDOF 5
ENDMDL
MODEL 7
REMARK VINA RESULT:    -6.190      6.064      8.612
REMARK INTER + INTRA:          -8.147
REMARK INTER:                  -7.682
REMARK INTRA:                  -0.465
REMARK CONF_INDEPENDENT:        1.492
REMARK UNBOUND:                -0.465
REMARK  5 active torsions:
REMARK  status: ('A' for Active; 'I' for Inactive)
REMARK       I    between atoms: N_2  and  C_3 
REMARK    1  A    between atoms: C_3  and  C_5 
REMARK    2  A    between atoms: C_8  and  N_9 
REMARK       I    between atoms: N_9  and  C_10 
REMARK    3  A    between atoms: C_10  and  C_12 
REMARK    4  A    between atoms: C_15  and  C_16 
REMARK    5  A    between atoms: C_16  and  O_17 
ROOT
ATOM      1  N   UNL d   1      28.075 -14.659   2.511  0.00  0.00    -0.323 N 
ATOM      2  C   UNL d   1      27.254 -13.883   1.697  0.00  0.00     0.256 C 
ATOM      3  O   UNL d   1      26.670 -12.847   2.019  0.00  0.00    -0.267 OA
ATOM      4  H   UNL d   1      28.510 -15.483   2.109  0.00  0.00     0.169 HD
ENDROOT
BRANCH   1   5
ATOM      5  C   UNL d   1      28.326 -14.399   3.892  0.00  0.00     0.035 A 
ATOM      6  C   UNL d   1      27.402 -13.675   4.658  0.00  0.00     0.030 A 
ATOM      7  C   UNL d   1      27.695 -13.333   5.997  0.00  0.00     0.019 A 
ATOM      8  C   UNL d   1      28.889 -13.756   6.601  0.00  0.00     0.032 A 
ATOM      9  C   UNL d   1      29.788 -14.509   5.856  0.00  0.00     0.019 A 
ATOM     10  C   UNL d   1      29.499 -14.825   4.526  0.00  0.00     0.030 A 
BRANCH   8  11
ATOM     11  C   UNL d   1      29.131 -13.537   8.051  0.00  0.00     0.251 C 
ATOM     12  N   UNL d   1      28.961 -14.619   8.892  0.00  0.00    -0.361 N 
ATOM     13  C   UNL d   1      29.150 -14.485  10.318  0.00  0.00     0.149 C 
ATOM     14  H   UNL d   1      28.774 -15.538   8.510  0.00  0.00     0.162 HD
ATOM     15  O   UNL d   1      29.451 -12.415   8.448  0.00  0.00    -0.268 OA
ENDBRANCH   8  11
ENDBRANCH   1   5
BRANCH   2  16
ATOM     16  C   UNL d   1      27.012 -14.315   0.303  0.00  0.00     0.032 A 
ATOM     17  C   UNL d   1      26.971 -13.324  -0.691  0.00  0.00     0.017 A 
ATOM     18  C   UNL d   1      26.533 -13.630  -1.982  0.00  0.00     0.010 A 
ATOM     19  C   UNL d   1      26.191 -14.946  -2.316  0.00  0.00    -0.035 A 
ATOM     20  C   UNL d   1      26.203 -15.921  -1.304  0.00  0.00     0.010 A 
ATOM     21  C   UNL d   1      26.613 -15.614  -0.000  0.00  0.00     0.017 A 
BRANCH  19  22
ATOM     22  C   UNL d   1      25.857 -15.270  -3.753  0.00  0.00     0.202 C 
BRANCH  22  23
ATOM     23  O   UNL d   1      24.809 -14.456  -4.266  0.00  0.00    -0.396 OA
ATOM     24  H   UNL d   1      24.894 -14.473  -5.234  0.00  0.00     0.209 HD
ENDBRANCH  22  23
ENDBRANCH  19  22
ENDBRANCH   2  16
TORSDOF 5
ENDMDL
MODEL 8
REMARK VINA RESULT:    -5.933      5.946      9.079
REMARK INTER + INTRA:          -7.918
REMARK INTER:                  -7.425
REMARK INTRA:                  -0.494
REMARK CONF_INDEPENDENT:        1.492
REMARK UNBOUND:                -0.494
REMARK  5 active torsions:
REMARK  status: ('A' for Active; 'I' for Inactive)
REMARK       I    between atoms: N_2  and  C_3 
REMARK    1  A    between atoms: C_3  and  C_5 
REMARK    2  A    between atoms: C_8  and  N_9 
REMARK       I    between atoms: N_9  and  C_10 
REMARK    3  A    between atoms: C_10  and  C_12 
REMARK    4  A    between atoms: C_15  and  C_16 
REMARK    5  A    between atoms: C_16  and  O_17 
ROOT
ATOM      1  N   UNL d   1      27.878 -14.874   2.391  0.00  0.00    -0.323 N 
ATOM      2  C   UNL d   1      27.626 -13.819   3.264  0.00  0.00     0.256 C 
ATOM      3  O   UNL d   1      27.008 -12.785   3.005  0.00  0.00    -0.267 OA
ATOM      4  H   UNL d   1      28.387 -15.678   2.742  0.00  0.00     0.169 HD
ENDROOT
BRANCH   1   5
ATOM      5  C   UNL d   1      27.502 -14.894   1.014  0.00  0.00     0.035 A 
ATOM      6  C   UNL d   1      27.568 -13.726   0.242  0.00  0.00     0.030 A 
ATOM      7  C   UNL d   1      27.103 -13.722  -1.092  0.00  0.00     0.019 A 
ATOM      8  C   UNL d   1      26.617 -14.897  -1.685  0.00  0.00     0.032 A 
ATOM      9  C   UNL d   1      26.589 -16.066  -0.935  0.00  0.00     0.019 A 
ATOM     10  C   UNL d   1      27.032 -16.056   0.390  0.00  0.00     0.030 A 
BRANCH   8  11
ATOM     11  C   UNL d   1      26.276 -14.938  -3.132  0.00  0.00     0.251 C 
ATOM     12  N   UNL d   1      27.318 -14.820  -4.031  0.00  0.00    -0.361 N 
ATOM     13  C   UNL d   1      27.070 -14.823  -5.455  0.00  0.00     0.149 C 
ATOM     14  H   UNL d   1      28.275 -14.804  -3.704  0.00  0.00     0.162 HD
ATOM     15  O   UNL d   1      25.098 -15.054  -3.472  0.00  0.00    -0.268 OA
ENDBRANCH   8  11
ENDBRANCH   1   5
BRANCH   2  16
ATOM     16  C   UNL d   1      28.147 -13.892   4.646  0.00  0.00     0.032 A 
ATOM     17  C   UNL d   1      27.571 -13.047   5.608  0.00  0.00     0.017 A 
ATOM     18  C   UNL d   1      28.155 -12.904   6.870  0.00  0.00     0.010 A 
ATOM     19  C   UNL d   1      29.287 -13.656   7.211  0.00  0.00    -0.035 A 
ATOM     20  C   UNL d   1      29.873 -14.472   6.228  0.00  0.00     0.010 A 
ATOM     21  C   UNL d   1      29.309 -14.596   4.952  0.00  0.00     0.017 A 
BRANCH  19  22
ATOM     22  C   UNL d   1      29.810 -13.585   8.626  0.00  0.00     0.202 C 
BRANCH  22  23
ATOM     23  O   UNL d   1      29.664 -14.816   9.324  0.00  0.00    -0.396 OA
ATOM     24  H   UNL d   1      29.867 -15.521   8.686  0.00  0.00     0.209 HD
ENDBRANCH  22  23
ENDBRANCH  19  22
ENDBRANCH   2  16
TORSDOF 5
ENDMDL
MODEL 9
REMARK VINA RESULT:    -5.815      2.017      9.400
REMARK INTER + INTRA:          -7.768
REMARK INTER:                  -7.306
REMARK INTRA:                  -0.462
REMARK CONF_INDEPENDENT:        1.492
REMARK UNBOUND:                -0.462
REMARK  5 active torsions:
REMARK  status: ('A' for Active; 'I' for Inactive)
REMARK       I    between atoms: N_2  and  C_3 
REMARK    1  A    between atoms: C_3  and  C_5 
REMARK    2  A    between atoms: C_8  and  N_9 
REMARK       I    between atoms: N_9  and  C_10 
REMARK    3  A    between atoms: C_10  and  C_12 
REMARK    4  A    between atoms: C_15  and  C_16 
REMARK    5  A    between atoms: C_16  and  O_17 
ROOT
ATOM      1  N   UNL d   1      27.095 -17.072  -0.467  0.00  0.00    -0.323 N 
ATOM      2  C   UNL d   1      27.799 -16.432  -1.483  0.00  0.00     0.256 C 
ATOM      3  O   UNL d   1      27.335 -16.008  -2.542  0.00  0.00    -0.267 OA
ATOM      4  H   UNL d   1      27.602 -17.356   0.365  0.00  0.00     0.169 HD
ENDROOT
BRANCH   1   5
ATOM      5  C   UNL d   1      25.706 -17.395  -0.523  0.00  0.00     0.035 A 
ATOM      6  C   UNL d   1      24.825 -16.616  -1.285  0.00  0.00     0.030 A 
ATOM      7  C   UNL d   1      23.436 -16.875  -1.262  0.00  0.00     0.019 A 
ATOM      8  C   UNL d   1      22.920 -17.949  -0.521  0.00  0.00     0.032 A 
ATOM      9  C   UNL d   1      23.796 -18.749   0.202  0.00  0.00     0.019 A 
ATOM     10  C   UNL d   1      25.165 -18.472   0.190  0.00  0.00     0.030 A 
BRANCH   8  11
ATOM     11  C   UNL d   1      21.484 -18.324  -0.618  0.00  0.00     0.251 C 
ATOM     12  N   UNL d   1      21.088 -19.482   0.021  0.00  0.00    -0.361 N 
ATOM     13  C   UNL d   1      19.716 -19.932  -0.047  0.00  0.00     0.149 C 
ATOM     14  H   UNL d   1      21.738 -19.990   0.608  0.00  0.00     0.162 HD
ATOM     15  O   UNL d   1      20.717 -17.614  -1.270  0.00  0.00    -0.268 OA
ENDBRANCH   8  11
ENDBRANCH   1   5
BRANCH   2  16
ATOM     16  C   UNL d   1      29.257 -16.234  -1.330  0.00  0.00     0.032 A 
ATOM     17  C   UNL d   1      30.070 -16.465  -2.452  0.00  0.00     0.017 A 
ATOM     18  C   UNL d   1      31.461 -16.512  -2.324  0.00  0.00     0.010 A 
ATOM     19  C   UNL d   1      32.063 -16.263  -1.084  0.00  0.00    -0.035 A 
ATOM     20  C   UNL d   1      31.237 -16.068   0.037  0.00  0.00     0.010 A 
ATOM     21  C   UNL d   1      29.842 -16.049  -0.080  0.00  0.00     0.017 A 
BRANCH  19  22
ATOM     22  C   UNL d   1      33.570 -16.183  -1.009  0.00  0.00     0.202 C 
BRANCH  22  23
ATOM     23  O   UNL d   1      34.209 -17.030  -1.956  0.00  0.00    -0.396 OA
ATOM     24  H   UNL d   1      35.027 -17.346  -1.537  0.00  0.00     0.209 HD
ENDBRANCH  22  23
ENDBRANCH  19  22
ENDBRANCH   2  16
TORSDOF 5
ENDMDL
