MODEL 1
REMARK VINA RESULT:    -8.488      0.000      0.000
REMARK INTER + INTRA:         -13.482
REMARK INTER:                 -10.576
REMARK INTRA:                  -2.906
REMARK CONF_INDEPENDENT:        2.088
REMARK UNBOUND:                -2.906
REMARK  7 active torsions:
REMARK  status: ('A' for Active; 'I' for Inactive)
REMARK    1  A    between atoms: C_12  and  N_13 
REMARK       I    between atoms: N_13  and  C_14 
REMARK    2  A    between atoms: C_14  and  C_16 
REMARK    3  A    between atoms: C_16  and  S_17 
REMARK    4  A    between atoms: S_17  and  C_18 
REMARK    5  A    between atoms: C_21  and  C_22 
REMARK    6  A    between atoms: C_22  and  C_23 
REMARK    7  A    between atoms: N_28  and  C_29 
ROOT
ATOM      1  C   UNL d   1      26.578 -10.554  -4.547  0.00  0.00     0.180 C 
ENDROOT
BRANCH   1   2
ATOM      2  C   UNL d   1      26.868 -11.159  -5.916  0.00  0.00     0.229 C 
ATOM      3  N   UNL d   1      28.094 -11.771  -6.107  0.00  0.00    -0.330 N 
ATOM      4  H   UNL d   1      28.907 -11.522  -5.562  0.00  0.00     0.165 HD
ATOM      5  O   UNL d   1      26.090 -11.008  -6.852  0.00  0.00    -0.273 OA
BRANCH   3   6
ATOM      6  C   UNL d   1      28.342 -12.418  -7.378  0.00  0.00     0.264 A 
ATOM      7  O   UNL d   1      29.309 -11.598  -8.092  0.00  0.00    -0.353 OA
ATOM      8  C   UNL d   1      30.513 -12.378  -8.321  0.00  0.00     0.152 A 
ATOM      9  C   UNL d   1      30.258 -13.673  -7.645  0.00  0.00    -0.017 A 
ATOM     10  C   UNL d   1      30.793 -12.575  -9.809  0.00  0.00     0.044 C 
ATOM     11  C   UNL d   1      29.023 -13.703  -7.159  0.00  0.00     0.066 A 
ATOM     12  C   UNL d   1      31.247 -14.765  -7.488  0.00  0.00     0.105 C 
ATOM     13  C   UNL d   1      28.536 -14.912  -6.502  0.00  0.00     0.266 C 
ATOM     14  N   UNL d   1      29.456 -15.889  -6.255  0.00  0.00    -0.287 N 
ATOM     15  O   UNL d   1      27.382 -15.114  -6.137  0.00  0.00    -0.266 OA
ATOM     16  N   UNL d   1      30.738 -15.969  -6.807  0.00  0.00    -0.229 NA
ATOM     17  H   UNL d   1      29.039 -16.716  -5.837  0.00  0.00     0.184 HD
ATOM     18  H   UNL d   1      31.363 -16.199  -6.031  0.00  0.00     0.147 HD
ATOM     19  C   UNL d   1      32.398 -14.232  -6.642  0.00  0.00     0.033 C 
ENDBRANCH   3   6
ENDBRANCH   1   2
BRANCH   1  20
ATOM     20  S   UNL d   1      25.529 -11.729  -3.563  0.00  0.00    -0.118 SA
BRANCH  20  21
ATOM     21  C   UNL d   1      26.013 -13.404  -4.081  0.00  0.00     0.244 C 
ATOM     22  N   UNL d   1      24.814 -14.220  -4.268  0.00  0.00    -0.183 NA
ATOM     23  N   UNL d   1      24.406 -14.825  -3.111  0.00  0.00    -0.185 NA
ATOM     24  H   UNL d   1      24.065 -13.792  -4.807  0.00  0.00     0.152 HD
ATOM     25  C   UNL d   1      25.458 -14.856  -2.345  0.00  0.00     0.123 C 
ATOM     26  N   UNL d   1      26.578 -14.187  -2.975  0.00  0.00    -0.336 N 
BRANCH  25  27
ATOM     27  C   UNL d   1      25.530 -15.520  -0.983  0.00  0.00     0.126 C 
BRANCH  27  28
ATOM     28  C   UNL d   1      24.439 -16.551  -0.841  0.00  0.00    -0.011 A 
ATOM     29  C   UNL d   1      23.076 -16.330  -0.895  0.00  0.00     0.015 A 
ATOM     30  C   UNL d   1      22.318 -17.480  -0.548  0.00  0.00     0.008 A 
ATOM     31  C   UNL d   1      23.120 -18.575  -0.321  0.00  0.00     0.050 A 
ATOM     32  S   UNL d   1      24.782 -18.200  -0.520  0.00  0.00    -0.106 SA
ENDBRANCH  27  28
ENDBRANCH  25  27
BRANCH  26  33
ATOM     33  C   UNL d   1      27.993 -14.463  -2.713  0.00  0.00     0.088 C 
ATOM     34  C   UNL d   1      28.445 -15.856  -3.195  0.00  0.00     0.025 C 
ATOM     35  C   UNL d   1      29.970 -16.030  -3.048  0.00  0.00     0.002 C 
ATOM     36  C   UNL d   1      30.750 -14.926  -3.759  0.00  0.00     0.000 C 
ATOM     37  C   UNL d   1      30.310 -13.556  -3.257  0.00  0.00     0.002 C 
ATOM     38  C   UNL d   1      28.813 -13.400  -3.415  0.00  0.00     0.025 C 
ENDBRANCH  26  33
ENDBRANCH  20  21
ENDBRANCH   1  20
TORSDOF 7
ENDMDL
MODEL 2
REMARK VINA RESULT:    -8.053      3.449      4.605
REMARK INTER + INTRA:         -13.090
REMARK INTER:                 -10.141
REMARK INTRA:                  -2.948
REMARK CONF_INDEPENDENT:        2.088
REMARK UNBOUND:                -2.948
REMARK  7 active torsions:
REMARK  status: ('A' for Active; 'I' for Inactive)
REMARK    1  A    between atoms: C_12  and  N_13 
REMARK       I    between atoms: N_13  and  C_14 
REMARK    2  A    between atoms: C_14  and  C_16 
REMARK    3  A    between atoms: C_16  and  S_17 
REMARK    4  A    between atoms: S_17  and  C_18 
REMARK    5  A    between atoms: C_21  and  C_22 
REMARK    6  A    between atoms: C_22  and  C_23 
REMARK    7  A    between atoms: N_28  and  C_29 
ROOT
ATOM      1  C   UNL d   1      27.463 -10.875  -1.187  0.00  0.00     0.180 C 
ENDROOT
BRANCH   1   2
ATOM      2  C   UNL d   1      27.292 -11.320  -2.636  0.00  0.00     0.229 C 
ATOM      3  N   UNL d   1      26.050 -11.154  -3.222  0.00  0.00    -0.330 N 
ATOM      4  H   UNL d   1      25.201 -11.120  -2.676  0.00  0.00     0.165 HD
ATOM      5  O   UNL d   1      28.191 -11.910  -3.227  0.00  0.00    -0.273 OA
BRANCH   3   6
ATOM      6  C   UNL d   1      25.905 -11.498  -4.620  0.00  0.00     0.264 A 
ATOM      7  O   UNL d   1      26.961 -10.805  -5.343  0.00  0.00    -0.353 OA
ATOM      8  C   UNL d   1      27.826 -11.786  -5.973  0.00  0.00     0.152 A 
ATOM      9  C   UNL d   1      27.292 -13.098  -5.533  0.00  0.00    -0.017 A 
ATOM     10  C   UNL d   1      27.815 -11.665  -7.495  0.00  0.00     0.044 C 
ATOM     11  C   UNL d   1      26.190 -12.929  -4.814  0.00  0.00     0.066 A 
ATOM     12  C   UNL d   1      27.916 -14.413  -5.812  0.00  0.00     0.105 C 
ATOM     13  C   UNL d   1      25.460 -14.094  -4.326  0.00  0.00     0.266 C 
ATOM     14  N   UNL d   1      26.067 -15.307  -4.481  0.00  0.00    -0.287 N 
ATOM     15  O   UNL d   1      24.365 -14.075  -3.774  0.00  0.00    -0.266 OA
ATOM     16  N   UNL d   1      27.171 -15.575  -5.296  0.00  0.00    -0.229 NA
ATOM     17  H   UNL d   1      25.484 -16.075  -4.159  0.00  0.00     0.184 HD
ATOM     18  H   UNL d   1      27.802 -16.149  -4.733  0.00  0.00     0.147 HD
ATOM     19  C   UNL d   1      29.283 -14.430  -5.139  0.00  0.00     0.033 C 
ENDBRANCH   3   6
ENDBRANCH   1   2
BRANCH   1  20
ATOM     20  S   UNL d   1      27.016 -12.277  -0.054  0.00  0.00    -0.118 SA
BRANCH  20  21
ATOM     21  C   UNL d   1      28.571 -13.136   0.337  0.00  0.00     0.244 C 
ATOM     22  N   UNL d   1      29.133 -13.704  -0.888  0.00  0.00    -0.183 NA
ATOM     23  N   UNL d   1      28.650 -14.955  -1.155  0.00  0.00    -0.185 NA
ATOM     24  H   UNL d   1      29.164 -13.083  -1.692  0.00  0.00     0.152 HD
ATOM     25  C   UNL d   1      28.216 -15.412  -0.014  0.00  0.00     0.123 C 
ATOM     26  N   UNL d   1      28.344 -14.412   1.026  0.00  0.00    -0.336 N 
BRANCH  25  27
ATOM     27  C   UNL d   1      27.671 -16.807   0.219  0.00  0.00     0.126 C 
BRANCH  27  28
ATOM     28  C   UNL d   1      26.217 -16.880  -0.174  0.00  0.00    -0.011 A 
ATOM     29  C   UNL d   1      25.295 -17.826   0.230  0.00  0.00     0.015 A 
ATOM     30  C   UNL d   1      24.056 -17.716  -0.457  0.00  0.00     0.008 A 
ATOM     31  C   UNL d   1      24.036 -16.634  -1.308  0.00  0.00     0.050 A 
ATOM     32  S   UNL d   1      25.516 -15.767  -1.274  0.00  0.00    -0.106 SA
ENDBRANCH  27  28
ENDBRANCH  25  27
BRANCH  26  33
ATOM     33  C   UNL d   1      28.483 -14.685   2.458  0.00  0.00     0.088 C 
ATOM     34  C   UNL d   1      29.863 -14.297   3.026  0.00  0.00     0.025 C 
ATOM     35  C   UNL d   1      29.899 -14.448   4.560  0.00  0.00     0.002 C 
ATOM     36  C   UNL d   1      28.784 -13.662   5.247  0.00  0.00     0.000 C 
ATOM     37  C   UNL d   1      27.424 -14.073   4.693  0.00  0.00     0.002 C 
ATOM     38  C   UNL d   1      27.405 -13.911   3.188  0.00  0.00     0.025 C 
ENDBRANCH  26  33
ENDBRANCH  20  21
ENDBRANCH   1  20
TORSDOF 7
ENDMDL
MODEL 3
REMARK VINA RESULT:    -7.643      2.966      5.190
REMARK INTER + INTRA:         -13.368
REMARK INTER:                  -9.731
REMARK INTRA:                  -3.637
REMARK CONF_INDEPENDENT:        2.088
REMARK UNBOUND:                -3.637
REMARK  7 active torsions:
REMARK  status: ('A' for Active; 'I' for Inactive)
REMARK    1  A    between atoms: C_12  and  N_13 
REMARK       I    between atoms: N_13  and  C_14 
REMARK    2  A    between atoms: C_14  and  C_16 
REMARK    3  A    between atoms: C_16  and  S_17 
REMARK    4  A    between atoms: S_17  and  C_18 
REMARK    5  A    between atoms: C_21  and  C_22 
REMARK    6  A    between atoms: C_22  and  C_23 
REMARK    7  A    between atoms: N_28  and  C_29 
ROOT
ATOM      1  C   UNL d   1      27.559 -11.104  -4.164  0.00  0.00     0.180 C 
ENDROOT
BRANCH   1   2
ATOM      2  C   UNL d   1      27.996 -11.032  -2.705  0.00  0.00     0.229 C 
ATOM      3  N   UNL d   1      27.450 -11.943  -1.820  0.00  0.00    -0.330 N 
ATOM      4  H   UNL d   1      26.551 -12.374  -1.982  0.00  0.00     0.165 HD
ATOM      5  O   UNL d   1      28.719 -10.125  -2.306  0.00  0.00    -0.273 OA
BRANCH   3   6
ATOM      6  C   UNL d   1      27.922 -11.932  -0.452  0.00  0.00     0.264 A 
ATOM      7  O   UNL d   1      26.770 -12.192   0.399  0.00  0.00    -0.353 OA
ATOM      8  C   UNL d   1      26.992 -13.426   1.133  0.00  0.00     0.152 A 
ATOM      9  C   UNL d   1      28.289 -13.937   0.627  0.00  0.00    -0.017 A 
ATOM     10  C   UNL d   1      27.038 -13.194   2.641  0.00  0.00     0.044 C 
ATOM     11  C   UNL d   1      28.824 -13.072  -0.226  0.00  0.00     0.066 A 
ATOM     12  C   UNL d   1      28.890 -15.244   0.980  0.00  0.00     0.105 C 
ATOM     13  C   UNL d   1      30.136 -13.345  -0.804  0.00  0.00     0.266 C 
ATOM     14  N   UNL d   1      30.660 -14.584  -0.575  0.00  0.00    -0.287 N 
ATOM     15  O   UNL d   1      30.793 -12.569  -1.490  0.00  0.00    -0.266 OA
ATOM     16  N   UNL d   1      30.207 -15.507   0.372  0.00  0.00    -0.229 NA
ATOM     17  H   UNL d   1      31.592 -14.689  -0.969  0.00  0.00     0.184 HD
ATOM     18  H   UNL d   1      30.175 -16.409  -0.108  0.00  0.00     0.147 HD
ATOM     19  C   UNL d   1      27.949 -16.337   0.485  0.00  0.00     0.033 C 
ENDBRANCH   3   6
ENDBRANCH   1   2
BRANCH   1  20
ATOM     20  S   UNL d   1      25.815 -11.736  -4.256  0.00  0.00    -0.118 SA
BRANCH  20  21
ATOM     21  C   UNL d   1      25.934 -13.519  -4.593  0.00  0.00     0.244 C 
ATOM     22  N   UNL d   1      24.603 -14.118  -4.512  0.00  0.00    -0.183 NA
ATOM     23  N   UNL d   1      24.277 -14.503  -3.241  0.00  0.00    -0.185 NA
ATOM     24  H   UNL d   1      23.863 -13.626  -5.007  0.00  0.00     0.152 HD
ATOM     25  C   UNL d   1      25.412 -14.637  -2.616  0.00  0.00     0.123 C 
ATOM     26  N   UNL d   1      26.520 -14.260  -3.469  0.00  0.00    -0.336 N 
BRANCH  25  27
ATOM     27  C   UNL d   1      25.574 -15.142  -1.195  0.00  0.00     0.126 C 
BRANCH  27  28
ATOM     28  C   UNL d   1      24.668 -16.322  -0.947  0.00  0.00    -0.011 A 
ATOM     29  C   UNL d   1      23.286 -16.323  -0.959  0.00  0.00     0.015 A 
ATOM     30  C   UNL d   1      22.733 -17.553  -0.514  0.00  0.00     0.008 A 
ATOM     31  C   UNL d   1      23.708 -18.491  -0.256  0.00  0.00     0.050 A 
ATOM     32  S   UNL d   1      25.281 -17.871  -0.545  0.00  0.00    -0.106 SA
ENDBRANCH  27  28
ENDBRANCH  25  27
BRANCH  26  33
ATOM     33  C   UNL d   1      27.893 -14.758  -3.352  0.00  0.00     0.088 C 
ATOM     34  C   UNL d   1      27.985 -16.160  -2.717  0.00  0.00     0.025 C 
ATOM     35  C   UNL d   1      29.427 -16.704  -2.770  0.00  0.00     0.002 C 
ATOM     36  C   UNL d   1      29.994 -16.707  -4.189  0.00  0.00     0.000 C 
ATOM     37  C   UNL d   1      29.918 -15.310  -4.795  0.00  0.00     0.002 C 
ATOM     38  C   UNL d   1      28.495 -14.796  -4.741  0.00  0.00     0.025 C 
ENDBRANCH  26  33
ENDBRANCH  20  21
ENDBRANCH   1  20
TORSDOF 7
ENDMDL
MODEL 4
REMARK VINA RESULT:    -7.393      2.859      5.502
REMARK INTER + INTRA:         -13.102
REMARK INTER:                  -9.481
REMARK INTRA:                  -3.621
REMARK CONF_INDEPENDENT:        2.088
REMARK UNBOUND:                -3.621
REMARK  7 active torsions:
REMARK  status: ('A' for Active; 'I' for Inactive)
REMARK    1  A    between atoms: C_12  and  N_13 
REMARK       I    between atoms: N_13  and  C_14 
REMARK    2  A    between atoms: C_14  and  C_16 
REMARK    3  A    between atoms: C_16  and  S_17 
REMARK    4  A    between atoms: S_17  and  C_18 
REMARK    5  A    between atoms: C_21  and  C_22 
REMARK    6  A    between atoms: C_22  and  C_23 
REMARK    7  A    between atoms: N_28  and  C_29 
ROOT
ATOM      1  C   UNL d   1      27.370 -14.958  -4.527  0.00  0.00     0.180 C 
ENDROOT
BRANCH   1   2
ATOM      2  C   UNL d   1      27.866 -13.680  -5.194  0.00  0.00     0.229 C 
ATOM      3  N   UNL d   1      27.075 -12.549  -5.096  0.00  0.00    -0.330 N 
ATOM      4  H   UNL d   1      26.077 -12.606  -4.957  0.00  0.00     0.165 HD
ATOM      5  O   UNL d   1      28.876 -13.681  -5.891  0.00  0.00    -0.273 OA
BRANCH   3   6
ATOM      6  C   UNL d   1      27.580 -11.314  -5.657  0.00  0.00     0.264 A 
ATOM      7  O   UNL d   1      27.143 -11.265  -7.045  0.00  0.00    -0.353 OA
ATOM      8  C   UNL d   1      26.281 -10.112  -7.230  0.00  0.00     0.152 A 
ATOM      9  C   UNL d   1      26.153  -9.515  -5.878  0.00  0.00    -0.017 A 
ATOM     10  C   UNL d   1      26.867  -9.112  -8.224  0.00  0.00     0.044 C 
ATOM     11  C   UNL d   1      26.920 -10.168  -5.013  0.00  0.00     0.066 A 
ATOM     12  C   UNL d   1      25.266  -8.383  -5.522  0.00  0.00     0.105 C 
ATOM     13  C   UNL d   1      26.996  -9.712  -3.629  0.00  0.00     0.266 C 
ATOM     14  N   UNL d   1      26.114  -8.739  -3.254  0.00  0.00    -0.287 N 
ATOM     15  O   UNL d   1      27.765 -10.139  -2.774  0.00  0.00    -0.266 OA
ATOM     16  N   UNL d   1      25.347  -7.950  -4.116  0.00  0.00    -0.229 NA
ATOM     17  H   UNL d   1      26.253  -8.441  -2.292  0.00  0.00     0.184 HD
ATOM     18  H   UNL d   1      24.405  -7.938  -3.720  0.00  0.00     0.147 HD
ATOM     19  C   UNL d   1      23.828  -8.825  -5.767  0.00  0.00     0.033 C 
ENDBRANCH   3   6
ENDBRANCH   1   2
BRANCH   1  20
ATOM     20  S   UNL d   1      25.532 -15.100  -4.756  0.00  0.00    -0.118 SA
BRANCH  20  21
ATOM     21  C   UNL d   1      24.775 -14.441  -3.240  0.00  0.00     0.244 C 
ATOM     22  N   UNL d   1      24.780 -12.980  -3.290  0.00  0.00    -0.183 NA
ATOM     23  N   UNL d   1      25.939 -12.442  -2.802  0.00  0.00    -0.185 NA
ATOM     24  H   UNL d   1      24.456 -12.565  -4.160  0.00  0.00     0.152 HD
ATOM     25  C   UNL d   1      26.454 -13.362  -2.036  0.00  0.00     0.123 C 
ATOM     26  N   UNL d   1      25.659 -14.572  -2.074  0.00  0.00    -0.336 N 
BRANCH  25  27
ATOM     27  C   UNL d   1      27.703 -13.199  -1.192  0.00  0.00     0.126 C 
BRANCH  27  28
ATOM     28  C   UNL d   1      27.338 -12.893   0.238  0.00  0.00    -0.011 A 
ATOM     29  C   UNL d   1      27.038 -11.654   0.771  0.00  0.00     0.015 A 
ATOM     30  C   UNL d   1      26.910 -11.680   2.186  0.00  0.00     0.008 A 
ATOM     31  C   UNL d   1      27.030 -12.955   2.689  0.00  0.00     0.050 A 
ATOM     32  S   UNL d   1      27.306 -14.107   1.448  0.00  0.00    -0.106 SA
ENDBRANCH  27  28
ENDBRANCH  25  27
BRANCH  26  33
ATOM     33  C   UNL d   1      25.582 -15.575  -1.009  0.00  0.00     0.088 C 
ATOM     34  C   UNL d   1      24.375 -16.525  -1.148  0.00  0.00     0.025 C 
ATOM     35  C   UNL d   1      24.434 -17.658  -0.104  0.00  0.00     0.002 C 
ATOM     36  C   UNL d   1      25.750 -18.433  -0.162  0.00  0.00     0.000 C 
ATOM     37  C   UNL d   1      26.933 -17.485  -0.001  0.00  0.00     0.002 C 
ATOM     38  C   UNL d   1      26.862 -16.384  -1.037  0.00  0.00     0.025 C 
ENDBRANCH  26  33
ENDBRANCH  20  21
ENDBRANCH   1  20
TORSDOF 7
ENDMDL
MODEL 5
REMARK VINA RESULT:    -7.101      4.430      7.343
REMARK INTER + INTRA:         -13.358
REMARK INTER:                  -9.189
REMARK INTRA:                  -4.169
REMARK CONF_INDEPENDENT:        2.088
REMARK UNBOUND:                -4.169
REMARK  7 active torsions:
REMARK  status: ('A' for Active; 'I' for Inactive)
REMARK    1  A    between atoms: C_12  and  N_13 
REMARK       I    between atoms: N_13  and  C_14 
REMARK    2  A    between atoms: C_14  and  C_16 
REMARK    3  A    between atoms: C_16  and  S_17 
REMARK    4  A    between atoms: S_17  and  C_18 
REMARK    5  A    between atoms: C_21  and  C_22 
REMARK    6  A    between atoms: C_22  and  C_23 
REMARK    7  A    between atoms: N_28  and  C_29 
ROOT
ATOM      1  C   UNL d   1      27.643 -12.423   3.179  0.00  0.00     0.180 C 
ENDROOT
BRANCH   1   2
ATOM      2  C   UNL d   1      28.281 -11.237   2.463  0.00  0.00     0.229 C 
ATOM      3  N   UNL d   1      27.618 -10.706   1.372  0.00  0.00    -0.330 N 
ATOM      4  H   UNL d   1      26.979 -11.255   0.815  0.00  0.00     0.165 HD
ATOM      5  O   UNL d   1      29.399 -10.839   2.773  0.00  0.00    -0.273 OA
BRANCH   3   6
ATOM      6  C   UNL d   1      28.177  -9.530   0.740  0.00  0.00     0.264 A 
ATOM      7  O   UNL d   1      29.224  -9.988  -0.162  0.00  0.00    -0.353 OA
ATOM      8  C   UNL d   1      28.871  -9.620  -1.522  0.00  0.00     0.152 A 
ATOM      9  C   UNL d   1      27.532  -8.994  -1.408  0.00  0.00    -0.017 A 
ATOM     10  C   UNL d   1      29.883  -8.656  -2.135  0.00  0.00     0.044 C 
ATOM     11  C   UNL d   1      27.171  -8.906  -0.133  0.00  0.00     0.066 A 
ATOM     12  C   UNL d   1      26.687  -8.564  -2.547  0.00  0.00     0.105 C 
ATOM     13  C   UNL d   1      25.908  -8.265   0.218  0.00  0.00     0.266 C 
ATOM     14  N   UNL d   1      25.070  -7.955  -0.814  0.00  0.00    -0.287 N 
ATOM     15  O   UNL d   1      25.530  -8.001   1.355  0.00  0.00    -0.266 OA
ATOM     16  N   UNL d   1      25.409  -7.934  -2.170  0.00  0.00    -0.229 NA
ATOM     17  H   UNL d   1      24.232  -7.473  -0.500  0.00  0.00     0.184 HD
ATOM     18  H   UNL d   1      24.649  -8.414  -2.656  0.00  0.00     0.147 HD
ATOM     19  C   UNL d   1      26.345  -9.805  -3.364  0.00  0.00     0.033 C 
ENDBRANCH   3   6
ENDBRANCH   1   2
BRANCH   1  20
ATOM     20  S   UNL d   1      26.485 -13.294   2.017  0.00  0.00    -0.118 SA
BRANCH  20  21
ATOM     21  C   UNL d   1      27.514 -13.968   0.678  0.00  0.00     0.244 C 
ATOM     22  N   UNL d   1      28.160 -12.868  -0.038  0.00  0.00    -0.183 NA
ATOM     23  N   UNL d   1      27.383 -12.371  -1.047  0.00  0.00    -0.185 NA
ATOM     24  H   UNL d   1      28.602 -12.160   0.543  0.00  0.00     0.152 HD
ATOM     25  C   UNL d   1      26.541 -13.321  -1.339  0.00  0.00     0.123 C 
ATOM     26  N   UNL d   1      26.710 -14.453  -0.451  0.00  0.00    -0.336 N 
BRANCH  25  27
ATOM     27  C   UNL d   1      25.529 -13.277  -2.467  0.00  0.00     0.126 C 
BRANCH  27  28
ATOM     28  C   UNL d   1      26.152 -13.756  -3.754  0.00  0.00    -0.011 A 
ATOM     29  C   UNL d   1      26.134 -15.043  -4.255  0.00  0.00     0.015 A 
ATOM     30  C   UNL d   1      26.961 -15.200  -5.399  0.00  0.00     0.008 A 
ATOM     31  C   UNL d   1      27.523 -14.007  -5.794  0.00  0.00     0.050 A 
ATOM     32  S   UNL d   1      27.052 -12.711  -4.773  0.00  0.00    -0.106 SA
ENDBRANCH  27  28
ENDBRANCH  25  27
BRANCH  26  33
ATOM     33  C   UNL d   1      26.371 -15.843  -0.768  0.00  0.00     0.088 C 
ATOM     34  C   UNL d   1      26.866 -16.851   0.289  0.00  0.00     0.025 C 
ATOM     35  C   UNL d   1      26.342 -18.270  -0.005  0.00  0.00     0.002 C 
ATOM     36  C   UNL d   1      24.819 -18.312  -0.130  0.00  0.00     0.000 C 
ATOM     37  C   UNL d   1      24.346 -17.328  -1.194  0.00  0.00     0.002 C 
ATOM     38  C   UNL d   1      24.864 -15.940  -0.885  0.00  0.00     0.025 C 
ENDBRANCH  26  33
ENDBRANCH  20  21
ENDBRANCH   1  20
TORSDOF 7
ENDMDL
MODEL 6
REMARK VINA RESULT:    -6.956      3.184      6.261
REMARK INTER + INTRA:         -13.050
REMARK INTER:                  -9.044
REMARK INTRA:                  -4.005
REMARK CONF_INDEPENDENT:        2.088
REMARK UNBOUND:                -4.005
REMARK  7 active torsions:
REMARK  status: ('A' for Active; 'I' for Inactive)
REMARK    1  A    between atoms: C_12  and  N_13 
REMARK       I    between atoms: N_13  and  C_14 
REMARK    2  A    between atoms: C_14  and  C_16 
REMARK    3  A    between atoms: C_16  and  S_17 
REMARK    4  A    between atoms: S_17  and  C_18 
REMARK    5  A    between atoms: C_21  and  C_22 
REMARK    6  A    between atoms: C_22  and  C_23 
REMARK    7  A    between atoms: N_28  and  C_29 
ROOT
ATOM      1  C   UNL d   1      27.598 -12.074   1.329  0.00  0.00     0.180 C 
ENDROOT
BRANCH   1   2
ATOM      2  C   UNL d   1      28.140 -11.118   0.271  0.00  0.00     0.229 C 
ATOM      3  N   UNL d   1      28.062 -11.506  -1.054  0.00  0.00    -0.330 N 
ATOM      4  H   UNL d   1      28.029 -12.478  -1.325  0.00  0.00     0.165 HD
ATOM      5  O   UNL d   1      28.728 -10.090   0.590  0.00  0.00    -0.273 OA
BRANCH   3   6
ATOM      6  C   UNL d   1      28.499 -10.569  -2.066  0.00  0.00     0.264 A 
ATOM      7  O   UNL d   1      29.357 -11.302  -2.985  0.00  0.00    -0.353 OA
ATOM      8  C   UNL d   1      28.759 -11.284  -4.308  0.00  0.00     0.152 A 
ATOM      9  C   UNL d   1      27.467 -10.578  -4.128  0.00  0.00    -0.017 A 
ATOM     10  C   UNL d   1      29.644 -10.570  -5.327  0.00  0.00     0.044 C 
ATOM     11  C   UNL d   1      27.351 -10.141  -2.880  0.00  0.00     0.066 A 
ATOM     12  C   UNL d   1      26.427 -10.417  -5.171  0.00  0.00     0.105 C 
ATOM     13  C   UNL d   1      26.178  -9.363  -2.493  0.00  0.00     0.266 C 
ATOM     14  N   UNL d   1      25.164  -9.289  -3.404  0.00  0.00    -0.287 N 
ATOM     15  O   UNL d   1      26.019  -8.791  -1.420  0.00  0.00    -0.266 OA
ATOM     16  N   UNL d   1      25.245  -9.642  -4.754  0.00  0.00    -0.229 NA
ATOM     17  H   UNL d   1      24.401  -8.698  -3.086  0.00  0.00     0.184 HD
ATOM     18  H   UNL d   1      24.405 -10.190  -4.951  0.00  0.00     0.147 HD
ATOM     19  C   UNL d   1      25.933 -11.807  -5.553  0.00  0.00     0.033 C 
ENDBRANCH   3   6
ENDBRANCH   1   2
BRANCH   1  20
ATOM     20  S   UNL d   1      26.353 -13.212   0.551  0.00  0.00    -0.118 SA
BRANCH  20  21
ATOM     21  C   UNL d   1      27.272 -14.687   0.015  0.00  0.00     0.244 C 
ATOM     22  N   UNL d   1      28.492 -14.274  -0.677  0.00  0.00    -0.183 NA
ATOM     23  N   UNL d   1      28.290 -14.061  -2.013  0.00  0.00    -0.185 NA
ATOM     24  H   UNL d   1      29.044 -13.556  -0.214  0.00  0.00     0.152 HD
ATOM     25  C   UNL d   1      27.215 -14.732  -2.314  0.00  0.00     0.123 C 
ATOM     26  N   UNL d   1      26.642 -15.347  -1.135  0.00  0.00    -0.336 N 
BRANCH  25  27
ATOM     27  C   UNL d   1      26.640 -14.883  -3.709  0.00  0.00     0.126 C 
BRANCH  27  28
ATOM     28  C   UNL d   1      27.745 -14.978  -4.729  0.00  0.00    -0.011 A 
ATOM     29  C   UNL d   1      27.783 -14.372  -5.971  0.00  0.00     0.015 A 
ATOM     30  C   UNL d   1      28.882 -14.804  -6.761  0.00  0.00     0.008 A 
ATOM     31  C   UNL d   1      29.704 -15.664  -6.070  0.00  0.00     0.050 A 
ATOM     32  S   UNL d   1      29.135 -15.950  -4.477  0.00  0.00    -0.106 SA
ENDBRANCH  27  28
ENDBRANCH  25  27
BRANCH  26  33
ATOM     33  C   UNL d   1      25.812 -16.555  -1.121  0.00  0.00     0.088 C 
ATOM     34  C   UNL d   1      25.995 -17.410   0.149  0.00  0.00     0.025 C 
ATOM     35  C   UNL d   1      24.984 -18.573   0.190  0.00  0.00     0.002 C 
ATOM     36  C   UNL d   1      23.540 -18.091   0.058  0.00  0.00     0.000 C 
ATOM     37  C   UNL d   1      23.368 -17.267  -1.213  0.00  0.00     0.002 C 
ATOM     38  C   UNL d   1      24.363 -16.127  -1.232  0.00  0.00     0.025 C 
ENDBRANCH  26  33
ENDBRANCH  20  21
ENDBRANCH   1  20
TORSDOF 7
ENDMDL
MODEL 7
REMARK VINA RESULT:    -6.753      2.887      6.487
REMARK INTER + INTRA:         -13.047
REMARK INTER:                  -8.841
REMARK INTRA:                  -4.206
REMARK CONF_INDEPENDENT:        2.088
REMARK UNBOUND:                -4.206
REMARK  7 active torsions:
REMARK  status: ('A' for Active; 'I' for Inactive)
REMARK    1  A    between atoms: C_12  and  N_13 
REMARK       I    between atoms: N_13  and  C_14 
REMARK    2  A    between atoms: C_14  and  C_16 
REMARK    3  A    between atoms: C_16  and  S_17 
REMARK    4  A    between atoms: S_17  and  C_18 
REMARK    5  A    between atoms: C_21  and  C_22 
REMARK    6  A    between atoms: C_22  and  C_23 
REMARK    7  A    between atoms: N_28  and  C_29 
ROOT
ATOM      1  C   UNL d   1      26.395 -12.596  -5.262  0.00  0.00     0.180 C 
ENDROOT
BRANCH   1   2
ATOM      2  C   UNL d   1      25.548 -13.383  -4.268  0.00  0.00     0.229 C 
ATOM      3  N   UNL d   1      26.158 -13.838  -3.113  0.00  0.00    -0.330 N 
ATOM      4  H   UNL d   1      27.152 -14.010  -3.066  0.00  0.00     0.165 HD
ATOM      5  O   UNL d   1      24.393 -13.700  -4.534  0.00  0.00    -0.273 OA
BRANCH   3   6
ATOM      6  C   UNL d   1      25.339 -14.514  -2.130  0.00  0.00     0.264 A 
ATOM      7  O   UNL d   1      24.968 -15.802  -2.696  0.00  0.00    -0.353 OA
ATOM      8  C   UNL d   1      25.508 -16.860  -1.861  0.00  0.00     0.152 A 
ATOM      9  C   UNL d   1      26.286 -16.154  -0.814  0.00  0.00    -0.017 A 
ATOM     10  C   UNL d   1      24.408 -17.722  -1.247  0.00  0.00     0.044 C 
ATOM     11  C   UNL d   1      26.149 -14.840  -0.946  0.00  0.00     0.066 A 
ATOM     12  C   UNL d   1      27.136 -16.808   0.208  0.00  0.00     0.105 C 
ATOM     13  C   UNL d   1      26.784 -13.948   0.019  0.00  0.00     0.266 C 
ATOM     14  N   UNL d   1      27.651 -14.520   0.904  0.00  0.00    -0.287 N 
ATOM     15  O   UNL d   1      26.621 -12.734   0.088  0.00  0.00    -0.266 OA
ATOM     16  N   UNL d   1      27.780 -15.888   1.161  0.00  0.00    -0.229 NA
ATOM     17  H   UNL d   1      28.021 -13.848   1.572  0.00  0.00     0.184 HD
ATOM     18  H   UNL d   1      28.785 -16.076   1.175  0.00  0.00     0.147 HD
ATOM     19  C   UNL d   1      28.254 -17.546  -0.520  0.00  0.00     0.033 C 
ENDBRANCH   3   6
ENDBRANCH   1   2
BRANCH   1  20
ATOM     20  S   UNL d   1      28.184 -13.041  -5.034  0.00  0.00    -0.118 SA
BRANCH  20  21
ATOM     21  C   UNL d   1      28.333 -14.801  -5.465  0.00  0.00     0.244 C 
ATOM     22  N   UNL d   1      27.447 -15.588  -4.608  0.00  0.00    -0.183 NA
ATOM     23  N   UNL d   1      28.042 -15.950  -3.431  0.00  0.00    -0.185 NA
ATOM     24  H   UNL d   1      26.497 -15.238  -4.511  0.00  0.00     0.152 HD
ATOM     25  C   UNL d   1      29.323 -15.880  -3.653  0.00  0.00     0.123 C 
ATOM     26  N   UNL d   1      29.592 -15.387  -4.988  0.00  0.00    -0.336 N 
BRANCH  25  27
ATOM     27  C   UNL d   1      30.404 -16.281  -2.668  0.00  0.00     0.126 C 
BRANCH  27  28
ATOM     28  C   UNL d   1      30.726 -17.747  -2.804  0.00  0.00    -0.011 A 
ATOM     29  C   UNL d   1      31.215 -18.584  -1.818  0.00  0.00     0.015 A 
ATOM     30  C   UNL d   1      31.579 -19.865  -2.314  0.00  0.00     0.008 A 
ATOM     31  C   UNL d   1      31.277 -20.002  -3.650  0.00  0.00     0.050 A 
ATOM     32  S   UNL d   1      30.566 -18.580  -4.294  0.00  0.00    -0.106 SA
ENDBRANCH  27  28
ENDBRANCH  25  27
BRANCH  26  33
ATOM     33  C   UNL d   1      30.796 -15.667  -5.774  0.00  0.00     0.088 C 
ATOM     34  C   UNL d   1      30.560 -16.671  -6.920  0.00  0.00     0.025 C 
ATOM     35  C   UNL d   1      31.810 -16.803  -7.813  0.00  0.00     0.002 C 
ATOM     36  C   UNL d   1      32.280 -15.454  -8.356  0.00  0.00     0.000 C 
ATOM     37  C   UNL d   1      32.531 -14.479  -7.211  0.00  0.00     0.002 C 
ATOM     38  C   UNL d   1      31.293 -14.357  -6.350  0.00  0.00     0.025 C 
ENDBRANCH  26  33
ENDBRANCH  20  21
ENDBRANCH   1  20
TORSDOF 7
ENDMDL
MODEL 8
REMARK VINA RESULT:    -6.592      2.751      5.946
REMARK INTER + INTRA:         -13.210
REMARK INTER:                  -8.680
REMARK INTRA:                  -4.530
REMARK CONF_INDEPENDENT:        2.088
REMARK UNBOUND:                -4.530
REMARK  7 active torsions:
REMARK  status: ('A' for Active; 'I' for Inactive)
REMARK    1  A    between atoms: C_12  and  N_13 
REMARK       I    between atoms: N_13  and  C_14 
REMARK    2  A    between atoms: C_14  and  C_16 
REMARK    3  A    between atoms: C_16  and  S_17 
REMARK    4  A    between atoms: S_17  and  C_18 
REMARK    5  A    between atoms: C_21  and  C_22 
REMARK    6  A    between atoms: C_22  and  C_23 
REMARK    7  A    between atoms: N_28  and  C_29 
ROOT
ATOM      1  C   UNL d   1      30.222 -15.681   0.640  0.00  0.00     0.180 C 
ENDROOT
BRANCH   1   2
ATOM      2  C   UNL d   1      30.841 -15.833  -0.745  0.00  0.00     0.229 C 
ATOM      3  N   UNL d   1      30.220 -15.199  -1.806  0.00  0.00    -0.330 N 
ATOM      4  H   UNL d   1      29.235 -14.978  -1.794  0.00  0.00     0.165 HD
ATOM      5  O   UNL d   1      31.792 -16.585  -0.934  0.00  0.00    -0.273 OA
BRANCH   3   6
ATOM      6  C   UNL d   1      30.849 -15.273  -3.108  0.00  0.00     0.264 A 
ATOM      7  O   UNL d   1      30.658 -16.631  -3.597  0.00  0.00    -0.353 OA
ATOM      8  C   UNL d   1      29.874 -16.587  -4.819  0.00  0.00     0.152 A 
ATOM      9  C   UNL d   1      29.534 -15.155  -4.999  0.00  0.00    -0.017 A 
ATOM     10  C   UNL d   1      30.651 -17.128  -6.017  0.00  0.00     0.044 C 
ATOM     11  C   UNL d   1      30.123 -14.421  -4.062  0.00  0.00     0.066 A 
ATOM     12  C   UNL d   1      28.633 -14.613  -6.043  0.00  0.00     0.105 C 
ATOM     13  C   UNL d   1      29.973 -12.970  -4.082  0.00  0.00     0.266 C 
ATOM     14  N   UNL d   1      29.070 -12.459  -4.968  0.00  0.00    -0.287 N 
ATOM     15  O   UNL d   1      30.572 -12.177  -3.362  0.00  0.00    -0.266 OA
ATOM     16  N   UNL d   1      28.484 -13.147  -6.035  0.00  0.00    -0.229 NA
ATOM     17  H   UNL d   1      29.051 -11.442  -4.958  0.00  0.00     0.184 HD
ATOM     18  H   UNL d   1      27.489 -12.916  -6.005  0.00  0.00     0.147 HD
ATOM     19  C   UNL d   1      27.246 -15.200  -5.809  0.00  0.00     0.033 C 
ENDBRANCH   3   6
ENDBRANCH   1   2
BRANCH   1  20
ATOM     20  S   UNL d   1      28.406 -15.333   0.469  0.00  0.00    -0.118 SA
BRANCH  20  21
ATOM     21  C   UNL d   1      27.683 -16.780  -0.361  0.00  0.00     0.244 C 
ATOM     22  N   UNL d   1      28.359 -16.995  -1.640  0.00  0.00    -0.183 NA
ATOM     23  N   UNL d   1      27.793 -16.279  -2.659  0.00  0.00    -0.185 NA
ATOM     24  H   UNL d   1      29.375 -16.964  -1.616  0.00  0.00     0.152 HD
ATOM     25  C   UNL d   1      26.580 -16.012  -2.265  0.00  0.00     0.123 C 
ATOM     26  N   UNL d   1      26.355 -16.496  -0.919  0.00  0.00    -0.336 N 
BRANCH  25  27
ATOM     27  C   UNL d   1      25.524 -15.312  -3.098  0.00  0.00     0.126 C 
BRANCH  27  28
ATOM     28  C   UNL d   1      25.877 -13.858  -3.285  0.00  0.00    -0.011 A 
ATOM     29  C   UNL d   1      26.604 -13.063  -2.420  0.00  0.00     0.015 A 
ATOM     30  C   UNL d   1      26.610 -11.695  -2.803  0.00  0.00     0.008 A 
ATOM     31  C   UNL d   1      25.959 -11.494  -4.000  0.00  0.00     0.050 A 
ATOM     32  S   UNL d   1      25.339 -12.959  -4.642  0.00  0.00    -0.106 SA
ENDBRANCH  27  28
ENDBRANCH  25  27
BRANCH  26  33
ATOM     33  C   UNL d   1      25.055 -16.870  -0.353  0.00  0.00     0.088 C 
ATOM     34  C   UNL d   1      23.867 -16.149  -1.021  0.00  0.00     0.025 C 
ATOM     35  C   UNL d   1      22.521 -16.698  -0.507  0.00  0.00     0.002 C 
ATOM     36  C   UNL d   1      22.409 -18.213  -0.678  0.00  0.00     0.000 C 
ATOM     37  C   UNL d   1      23.577 -18.913   0.006  0.00  0.00     0.002 C 
ATOM     38  C   UNL d   1      24.889 -18.366  -0.516  0.00  0.00     0.025 C 
ENDBRANCH  26  33
ENDBRANCH  20  21
ENDBRANCH   1  20
TORSDOF 7
ENDMDL
MODEL 9
REMARK VINA RESULT:    -6.419      2.761      6.478
REMARK INTER + INTRA:         -13.539
REMARK INTER:                  -8.507
REMARK INTRA:                  -5.033
REMARK CONF_INDEPENDENT:        2.088
REMARK UNBOUND:                -5.033
REMARK  7 active torsions:
REMARK  status: ('A' for Active; 'I' for Inactive)
REMARK    1  A    between atoms: C_12  and  N_13 
REMARK       I    between atoms: N_13  and  C_14 
REMARK    2  A    between atoms: C_14  and  C_16 
REMARK    3  A    between atoms: C_16  and  S_17 
REMARK    4  A    between atoms: S_17  and  C_18 
REMARK    5  A    between atoms: C_21  and  C_22 
REMARK    6  A    between atoms: C_22  and  C_23 
REMARK    7  A    between atoms: N_28  and  C_29 
ROOT
ATOM      1  C   UNL d   1      25.915 -12.538  -5.191  0.00  0.00     0.180 C 
ENDROOT
BRANCH   1   2
ATOM      2  C   UNL d   1      25.202 -13.369  -4.131  0.00  0.00     0.229 C 
ATOM      3  N   UNL d   1      25.951 -13.847  -3.071  0.00  0.00    -0.330 N 
ATOM      4  H   UNL d   1      26.946 -14.003  -3.146  0.00  0.00     0.165 HD
ATOM      5  O   UNL d   1      24.029 -13.700  -4.270  0.00  0.00    -0.273 OA
BRANCH   3   6
ATOM      6  C   UNL d   1      25.263 -14.567  -2.020  0.00  0.00     0.264 A 
ATOM      7  O   UNL d   1      24.906 -15.871  -2.559  0.00  0.00    -0.353 OA
ATOM      8  C   UNL d   1      25.576 -16.903  -1.786  0.00  0.00     0.152 A 
ATOM      9  C   UNL d   1      26.412 -16.161  -0.812  0.00  0.00    -0.017 A 
ATOM     10  C   UNL d   1      24.584 -17.822  -1.079  0.00  0.00     0.044 C 
ATOM     11  C   UNL d   1      26.196 -14.855  -0.920  0.00  0.00     0.066 A 
ATOM     12  C   UNL d   1      27.386 -16.774   0.121  0.00  0.00     0.105 C 
ATOM     13  C   UNL d   1      26.873 -13.934  -0.012  0.00  0.00     0.266 C 
ATOM     14  N   UNL d   1      27.847 -14.463   0.784  0.00  0.00    -0.287 N 
ATOM     15  O   UNL d   1      26.655 -12.731   0.081  0.00  0.00    -0.266 OA
ATOM     16  N   UNL d   1      28.070 -15.824   1.017  0.00  0.00    -0.229 NA
ATOM     17  H   UNL d   1      28.243 -13.775   1.419  0.00  0.00     0.184 HD
ATOM     18  H   UNL d   1      29.079 -15.960   0.935  0.00  0.00     0.147 HD
ATOM     19  C   UNL d   1      28.467 -17.450  -0.714  0.00  0.00     0.033 C 
ENDBRANCH   3   6
ENDBRANCH   1   2
BRANCH   1  20
ATOM     20  S   UNL d   1      27.700 -13.044  -5.275  0.00  0.00    -0.118 SA
BRANCH  20  21
ATOM     21  C   UNL d   1      27.713 -14.806  -5.721  0.00  0.00     0.244 C 
ATOM     22  N   UNL d   1      27.010 -15.573  -4.693  0.00  0.00    -0.183 NA
ATOM     23  N   UNL d   1      27.832 -15.950  -3.666  0.00  0.00    -0.185 NA
ATOM     24  H   UNL d   1      26.111 -15.200  -4.398  0.00  0.00     0.152 HD
ATOM     25  C   UNL d   1      29.039 -15.911  -4.155  0.00  0.00     0.123 C 
ATOM     26  N   UNL d   1      29.030 -15.422  -5.518  0.00  0.00    -0.336 N 
BRANCH  25  27
ATOM     27  C   UNL d   1      30.294 -16.338  -3.419  0.00  0.00     0.126 C 
BRANCH  27  28
ATOM     28  C   UNL d   1      30.564 -15.419  -2.255  0.00  0.00    -0.011 A 
ATOM     29  C   UNL d   1      31.342 -15.691  -1.146  0.00  0.00     0.015 A 
ATOM     30  C   UNL d   1      31.250 -14.684  -0.149  0.00  0.00     0.008 A 
ATOM     31  C   UNL d   1      30.471 -13.625  -0.558  0.00  0.00     0.050 A 
ATOM     32  S   UNL d   1      29.850 -13.864  -2.140  0.00  0.00    -0.106 SA
ENDBRANCH  27  28
ENDBRANCH  25  27
BRANCH  26  33
ATOM     33  C   UNL d   1      30.034 -15.730  -6.540  0.00  0.00     0.088 C 
ATOM     34  C   UNL d   1      31.307 -14.868  -6.428  0.00  0.00     0.025 C 
ATOM     35  C   UNL d   1      32.392 -15.343  -7.415  0.00  0.00     0.002 C 
ATOM     36  C   UNL d   1      32.719 -16.826  -7.249  0.00  0.00     0.000 C 
ATOM     37  C   UNL d   1      31.455 -17.668  -7.385  0.00  0.00     0.002 C 
ATOM     38  C   UNL d   1      30.405 -17.192  -6.404  0.00  0.00     0.025 C 
ENDBRANCH  26  33
ENDBRANCH  20  21
ENDBRANCH   1  20
TORSDOF 7
ENDMDL
