MODEL 1
REMARK VINA RESULT:   -10.092      0.000      0.000
REMARK INTER + INTRA:         -13.857
REMARK INTER:                 -12.180
REMARK INTRA:                  -1.677
REMARK CONF_INDEPENDENT:        2.088
REMARK UNBOUND:                -1.677
REMARK  7 active torsions:
REMARK  status: ('A' for Active; 'I' for Inactive)
REMARK    1  A    between atoms: C_2  and  C_3 
REMARK    2  A    between atoms: C_7  and  N_8 
REMARK       I    between atoms: N_8  and  C_9 
REMARK    3  A    between atoms: C_9  and  C_11 
REMARK       I    between atoms: C_11  and  N_13 
REMARK    4  A    between atoms: N_13  and  C_14 
REMARK    5  A    between atoms: C_14  and  C_15 
REMARK    6  A    between atoms: C_19  and  N_20 
REMARK       I    between atoms: N_20  and  C_21 
REMARK    7  A    between atoms: C_21  and  C_23 
ROOT
ATOM      1  C   UNL d   1      27.580 -15.005   0.936  0.00  0.00     0.309 C 
ATOM      2  O   UNL d   1      27.612 -14.650  -0.232  0.00  0.00    -0.262 OA
ATOM      3  N   UNL d   1      27.491 -16.302   1.397  0.00  0.00    -0.349 N 
ATOM      4  H   UNL d   1      27.444 -16.361   2.414  0.00  0.00     0.163 HD
ENDROOT
BRANCH   3   5
ATOM      5  C   UNL d   1      27.393 -17.470   0.539  0.00  0.00     0.161 C 
BRANCH   5   6
ATOM      6  C   UNL d   1      26.145 -17.579  -0.317  0.00  0.00    -0.038 A 
ATOM      7  C   UNL d   1      26.036 -16.945  -1.555  0.00  0.00     0.009 A 
ATOM      8  C   UNL d   1      24.786 -16.854  -2.191  0.00  0.00     0.003 A 
ATOM      9  C   UNL d   1      23.641 -17.455  -1.632  0.00  0.00     0.029 A 
ATOM     10  C   UNL d   1      23.743 -18.139  -0.421  0.00  0.00     0.035 A 
ATOM     11  C   UNL d   1      24.999 -18.201   0.175  0.00  0.00     0.038 A 
BRANCH  10  12
ATOM     12  N   UNL d   1      22.615 -18.722   0.224  0.00  0.00    -0.321 N 
ATOM     13  C   UNL d   1      21.452 -19.167  -0.427  0.00  0.00     0.279 C 
ATOM     14  O   UNL d   1      21.259 -19.132  -1.646  0.00  0.00    -0.265 OA
ATOM     15  H   UNL d   1      22.699 -18.913   1.214  0.00  0.00     0.169 HD
BRANCH  13  16
ATOM     16  C   UNL d   1      20.410 -19.688   0.418  0.00  0.00     0.142 A 
ATOM     17  C   UNL d   1      19.280 -20.432   0.145  0.00  0.00     0.045 A 
ATOM     18  C   UNL d   1      18.730 -20.800   1.398  0.00  0.00     0.027 A 
ATOM     19  C   UNL d   1      19.540 -20.243   2.358  0.00  0.00     0.143 A 
ATOM     20  O   UNL d   1      20.563 -19.573   1.775  0.00  0.00    -0.317 OA
ENDBRANCH  13  16
ENDBRANCH  10  12
ENDBRANCH   5   6
ENDBRANCH   3   5
BRANCH   1  21
ATOM     21  C   UNL d   1      27.649 -13.979   2.088  0.00  0.00     0.313 C 
ATOM     22  N   UNL d   1      28.164 -14.440   3.299  0.00  0.00    -0.319 N 
ATOM     23  H   UNL d   1      28.475 -15.407   3.321  0.00  0.00     0.169 HD
ATOM     24  O   UNL d   1      27.232 -12.857   1.816  0.00  0.00    -0.262 OA
BRANCH  22  25
ATOM     25  C   UNL d   1      28.328 -13.644   4.464  0.00  0.00     0.035 A 
ATOM     26  C   UNL d   1      27.789 -12.355   4.549  0.00  0.00     0.029 A 
ATOM     27  C   UNL d   1      27.924 -11.602   5.733  0.00  0.00     0.003 A 
ATOM     28  C   UNL d   1      28.626 -12.111   6.828  0.00  0.00     0.007 A 
ATOM     29  C   UNL d   1      29.128 -13.406   6.770  0.00  0.00    -0.056 A 
ATOM     30  C   UNL d   1      29.001 -14.133   5.583  0.00  0.00     0.036 A 
BRANCH  29  31
ATOM     31  C   UNL d   1      29.790 -14.080   7.940  0.00  0.00     0.034 C 
ATOM     32  C   UNL d   1      28.920 -14.016   9.181  0.00  0.00     0.010 C 
ENDBRANCH  29  31
ENDBRANCH  22  25
ENDBRANCH   1  21
TORSDOF 7
ENDMDL
MODEL 2
REMARK VINA RESULT:   -10.066      5.396      7.501
REMARK INTER + INTRA:         -14.243
REMARK INTER:                 -12.155
REMARK INTRA:                  -2.088
REMARK CONF_INDEPENDENT:        2.088
REMARK UNBOUND:                -2.088
REMARK  7 active torsions:
REMARK  status: ('A' for Active; 'I' for Inactive)
REMARK    1  A    between atoms: C_2  and  C_3 
REMARK    2  A    between atoms: C_7  and  N_8 
REMARK       I    between atoms: N_8  and  C_9 
REMARK    3  A    between atoms: C_9  and  C_11 
REMARK       I    between atoms: C_11  and  N_13 
REMARK    4  A    between atoms: N_13  and  C_14 
REMARK    5  A    between atoms: C_14  and  C_15 
REMARK    6  A    between atoms: C_19  and  N_20 
REMARK       I    between atoms: N_20  and  C_21 
REMARK    7  A    between atoms: C_21  and  C_23 
ROOT
ATOM      1  C   UNL d   1      25.414 -13.626  -3.706  0.00  0.00     0.309 C 
ATOM      2  O   UNL d   1      24.457 -13.864  -4.427  0.00  0.00    -0.262 OA
ATOM      3  N   UNL d   1      26.150 -14.546  -2.990  0.00  0.00    -0.349 N 
ATOM      4  H   UNL d   1      26.884 -14.118  -2.426  0.00  0.00     0.163 HD
ENDROOT
BRANCH   3   5
ATOM      5  C   UNL d   1      25.875 -15.973  -2.964  0.00  0.00     0.161 C 
BRANCH   5   6
ATOM      6  C   UNL d   1      25.729 -16.609  -1.594  0.00  0.00    -0.038 A 
ATOM      7  C   UNL d   1      26.824 -16.828  -0.758  0.00  0.00     0.009 A 
ATOM      8  C   UNL d   1      26.690 -17.647   0.377  0.00  0.00     0.003 A 
ATOM      9  C   UNL d   1      25.444 -18.202   0.728  0.00  0.00     0.029 A 
ATOM     10  C   UNL d   1      24.327 -17.949  -0.067  0.00  0.00     0.035 A 
ATOM     11  C   UNL d   1      24.507 -17.137  -1.183  0.00  0.00     0.038 A 
BRANCH  10  12
ATOM     12  N   UNL d   1      23.052 -18.523   0.202  0.00  0.00    -0.321 N 
ATOM     13  C   UNL d   1      22.145 -18.972  -0.773  0.00  0.00     0.279 C 
ATOM     14  O   UNL d   1      22.339 -18.949  -1.993  0.00  0.00    -0.265 OA
ATOM     15  H   UNL d   1      22.824 -18.704   1.171  0.00  0.00     0.169 HD
BRANCH  13  16
ATOM     16  C   UNL d   1      20.890 -19.483  -0.289  0.00  0.00     0.142 A 
ATOM     17  C   UNL d   1      20.390 -19.662   0.984  0.00  0.00     0.045 A 
ATOM     18  C   UNL d   1      19.032 -20.034   0.833  0.00  0.00     0.027 A 
ATOM     19  C   UNL d   1      18.788 -20.081  -0.519  0.00  0.00     0.143 A 
ATOM     20  O   UNL d   1      19.905 -19.743  -1.207  0.00  0.00    -0.317 OA
ENDBRANCH  13  16
ENDBRANCH  10  12
ENDBRANCH   5   6
ENDBRANCH   3   5
BRANCH   1  21
ATOM     21  C   UNL d   1      25.935 -12.185  -3.516  0.00  0.00     0.313 C 
ATOM     22  N   UNL d   1      25.511 -11.243  -4.452  0.00  0.00    -0.319 N 
ATOM     23  H   UNL d   1      24.875 -11.575  -5.171  0.00  0.00     0.169 HD
ATOM     24  O   UNL d   1      26.681 -12.020  -2.555  0.00  0.00    -0.262 OA
BRANCH  22  25
ATOM     25  C   UNL d   1      25.863  -9.867  -4.434  0.00  0.00     0.035 A 
ATOM     26  C   UNL d   1      27.147  -9.447  -4.064  0.00  0.00     0.029 A 
ATOM     27  C   UNL d   1      27.487  -8.080  -4.098  0.00  0.00     0.003 A 
ATOM     28  C   UNL d   1      26.544  -7.118  -4.466  0.00  0.00     0.007 A 
ATOM     29  C   UNL d   1      25.281  -7.526  -4.876  0.00  0.00    -0.056 A 
ATOM     30  C   UNL d   1      24.952  -8.884  -4.820  0.00  0.00     0.036 A 
BRANCH  29  31
ATOM     31  C   UNL d   1      24.243  -6.574  -5.404  0.00  0.00     0.034 C 
ATOM     32  C   UNL d   1      22.865  -7.206  -5.413  0.00  0.00     0.010 C 
ENDBRANCH  29  31
ENDBRANCH  22  25
ENDBRANCH   1  21
TORSDOF 7
ENDMDL
MODEL 3
REMARK VINA RESULT:    -9.871      4.974      6.708
REMARK INTER + INTRA:         -14.100
REMARK INTER:                 -11.959
REMARK INTRA:                  -2.141
REMARK CONF_INDEPENDENT:        2.088
REMARK UNBOUND:                -2.141
REMARK  7 active torsions:
REMARK  status: ('A' for Active; 'I' for Inactive)
REMARK    1  A    between atoms: C_2  and  C_3 
REMARK    2  A    between atoms: C_7  and  N_8 
REMARK       I    between atoms: N_8  and  C_9 
REMARK    3  A    between atoms: C_9  and  C_11 
REMARK       I    between atoms: C_11  and  N_13 
REMARK    4  A    between atoms: N_13  and  C_14 
REMARK    5  A    between atoms: C_14  and  C_15 
REMARK    6  A    between atoms: C_19  and  N_20 
REMARK       I    between atoms: N_20  and  C_21 
REMARK    7  A    between atoms: C_21  and  C_23 
ROOT
ATOM      1  C   UNL d   1      25.382 -13.529  -3.580  0.00  0.00     0.309 C 
ATOM      2  O   UNL d   1      24.405 -13.730  -4.285  0.00  0.00    -0.262 OA
ATOM      3  N   UNL d   1      26.133 -14.484  -2.927  0.00  0.00    -0.349 N 
ATOM      4  H   UNL d   1      26.884 -14.084  -2.365  0.00  0.00     0.163 HD
ENDROOT
BRANCH   3   5
ATOM      5  C   UNL d   1      25.851 -15.909  -2.958  0.00  0.00     0.161 C 
BRANCH   5   6
ATOM      6  C   UNL d   1      25.732 -16.605  -1.616  0.00  0.00    -0.038 A 
ATOM      7  C   UNL d   1      26.846 -16.883  -0.823  0.00  0.00     0.009 A 
ATOM      8  C   UNL d   1      26.728 -17.750   0.277  0.00  0.00     0.003 A 
ATOM      9  C   UNL d   1      25.482 -18.298   0.639  0.00  0.00     0.029 A 
ATOM     10  C   UNL d   1      24.347 -17.988  -0.111  0.00  0.00     0.035 A 
ATOM     11  C   UNL d   1      24.511 -17.128  -1.193  0.00  0.00     0.038 A 
BRANCH  10  12
ATOM     12  N   UNL d   1      23.069 -18.549   0.170  0.00  0.00    -0.321 N 
ATOM     13  C   UNL d   1      22.147 -18.983  -0.798  0.00  0.00     0.279 C 
ATOM     14  O   UNL d   1      22.328 -18.955  -2.019  0.00  0.00    -0.265 OA
ATOM     15  H   UNL d   1      22.850 -18.733   1.140  0.00  0.00     0.169 HD
BRANCH  13  16
ATOM     16  C   UNL d   1      20.891 -19.483  -0.302  0.00  0.00     0.142 A 
ATOM     17  C   UNL d   1      20.397 -19.646   0.975  0.00  0.00     0.045 A 
ATOM     18  C   UNL d   1      19.036 -20.014   0.835  0.00  0.00     0.027 A 
ATOM     19  C   UNL d   1      18.786 -20.074  -0.515  0.00  0.00     0.143 A 
ATOM     20  O   UNL d   1      19.901 -19.749  -1.212  0.00  0.00    -0.317 OA
ENDBRANCH  13  16
ENDBRANCH  10  12
ENDBRANCH   5   6
ENDBRANCH   3   5
BRANCH   1  21
ATOM     21  C   UNL d   1      25.916 -12.101  -3.339  0.00  0.00     0.313 C 
ATOM     22  N   UNL d   1      25.456 -11.111  -4.207  0.00  0.00    -0.319 N 
ATOM     23  H   UNL d   1      24.788 -11.405  -4.915  0.00  0.00     0.169 HD
ATOM     24  O   UNL d   1      26.703 -11.986  -2.404  0.00  0.00    -0.262 OA
BRANCH  22  25
ATOM     25  C   UNL d   1      25.813  -9.738  -4.133  0.00  0.00     0.035 A 
ATOM     26  C   UNL d   1      26.043  -8.982  -5.289  0.00  0.00     0.029 A 
ATOM     27  C   UNL d   1      26.350  -7.609  -5.192  0.00  0.00     0.003 A 
ATOM     28  C   UNL d   1      26.465  -6.988  -3.947  0.00  0.00     0.007 A 
ATOM     29  C   UNL d   1      26.196  -7.719  -2.796  0.00  0.00    -0.056 A 
ATOM     30  C   UNL d   1      25.910  -9.083  -2.906  0.00  0.00     0.036 A 
BRANCH  29  31
ATOM     31  C   UNL d   1      26.175  -7.106  -1.423  0.00  0.00     0.034 C 
ATOM     32  C   UNL d   1      25.186  -7.812  -0.516  0.00  0.00     0.010 C 
ENDBRANCH  29  31
ENDBRANCH  22  25
ENDBRANCH   1  21
TORSDOF 7
ENDMDL
MODEL 4
REMARK VINA RESULT:    -9.732      4.928      8.023
REMARK INTER + INTRA:         -14.587
REMARK INTER:                 -11.820
REMARK INTRA:                  -2.767
REMARK CONF_INDEPENDENT:        2.088
REMARK UNBOUND:                -2.767
REMARK  7 active torsions:
REMARK  status: ('A' for Active; 'I' for Inactive)
REMARK    1  A    between atoms: C_2  and  C_3 
REMARK    2  A    between atoms: C_7  and  N_8 
REMARK       I    between atoms: N_8  and  C_9 
REMARK    3  A    between atoms: C_9  and  C_11 
REMARK       I    between atoms: C_11  and  N_13 
REMARK    4  A    between atoms: N_13  and  C_14 
REMARK    5  A    between atoms: C_14  and  C_15 
REMARK    6  A    between atoms: C_19  and  N_20 
REMARK       I    between atoms: N_20  and  C_21 
REMARK    7  A    between atoms: C_21  and  C_23 
ROOT
ATOM      1  C   UNL d   1      26.904 -14.828  -3.542  0.00  0.00     0.309 C 
ATOM      2  O   UNL d   1      27.397 -14.116  -2.679  0.00  0.00    -0.262 OA
ATOM      3  N   UNL d   1      25.638 -15.373  -3.528  0.00  0.00    -0.349 N 
ATOM      4  H   UNL d   1      25.450 -15.965  -4.338  0.00  0.00     0.163 HD
ENDROOT
BRANCH   3   5
ATOM      5  C   UNL d   1      24.683 -15.201  -2.446  0.00  0.00     0.161 C 
BRANCH   5   6
ATOM      6  C   UNL d   1      24.789 -16.176  -1.289  0.00  0.00    -0.038 A 
ATOM      7  C   UNL d   1      26.019 -16.604  -0.789  0.00  0.00     0.009 A 
ATOM      8  C   UNL d   1      26.078 -17.693   0.098  0.00  0.00     0.003 A 
ATOM      9  C   UNL d   1      24.903 -18.324   0.551  0.00  0.00     0.029 A 
ATOM     10  C   UNL d   1      23.661 -17.874   0.104  0.00  0.00     0.035 A 
ATOM     11  C   UNL d   1      23.650 -16.796  -0.777  0.00  0.00     0.038 A 
BRANCH  10  12
ATOM     12  N   UNL d   1      22.440 -18.502   0.481  0.00  0.00    -0.321 N 
ATOM     13  C   UNL d   1      21.470 -18.985  -0.413  0.00  0.00     0.279 C 
ATOM     14  O   UNL d   1      21.554 -18.950  -1.645  0.00  0.00    -0.265 OA
ATOM     15  H   UNL d   1      22.307 -18.695   1.465  0.00  0.00     0.169 HD
BRANCH  13  16
ATOM     16  C   UNL d   1      20.284 -19.550   0.177  0.00  0.00     0.142 A 
ATOM     17  C   UNL d   1      19.154 -20.116  -0.374  0.00  0.00     0.045 A 
ATOM     18  C   UNL d   1      18.409 -20.654   0.705  0.00  0.00     0.027 A 
ATOM     19  C   UNL d   1      19.115 -20.367   1.848  0.00  0.00     0.143 A 
ATOM     20  O   UNL d   1      20.255 -19.704   1.539  0.00  0.00    -0.317 OA
ENDBRANCH  13  16
ENDBRANCH  10  12
ENDBRANCH   5   6
ENDBRANCH   3   5
BRANCH   1  21
ATOM     21  C   UNL d   1      27.690 -15.206  -4.815  0.00  0.00     0.313 C 
ATOM     22  N   UNL d   1      29.078 -15.100  -4.741  0.00  0.00    -0.319 N 
ATOM     23  H   UNL d   1      29.463 -14.806  -3.848  0.00  0.00     0.169 HD
ATOM     24  O   UNL d   1      27.003 -15.556  -5.770  0.00  0.00    -0.262 OA
BRANCH  22  25
ATOM     25  C   UNL d   1      29.973 -15.424  -5.796  0.00  0.00     0.035 A 
ATOM     26  C   UNL d   1      30.740 -14.439  -6.430  0.00  0.00     0.029 A 
ATOM     27  C   UNL d   1      31.655 -14.789  -7.443  0.00  0.00     0.003 A 
ATOM     28  C   UNL d   1      31.789 -16.117  -7.857  0.00  0.00     0.007 A 
ATOM     29  C   UNL d   1      31.064 -17.108  -7.206  0.00  0.00    -0.056 A 
ATOM     30  C   UNL d   1      30.148 -16.742  -6.215  0.00  0.00     0.036 A 
BRANCH  29  31
ATOM     31  C   UNL d   1      31.233 -18.572  -7.501  0.00  0.00     0.034 C 
ATOM     32  C   UNL d   1      30.465 -19.429  -6.512  0.00  0.00     0.010 C 
ENDBRANCH  29  31
ENDBRANCH  22  25
ENDBRANCH   1  21
TORSDOF 7
ENDMDL
MODEL 5
REMARK VINA RESULT:    -9.411      5.221      8.093
REMARK INTER + INTRA:         -14.260
REMARK INTER:                 -11.499
REMARK INTRA:                  -2.761
REMARK CONF_INDEPENDENT:        2.088
REMARK UNBOUND:                -2.761
REMARK  7 active torsions:
REMARK  status: ('A' for Active; 'I' for Inactive)
REMARK    1  A    between atoms: C_2  and  C_3 
REMARK    2  A    between atoms: C_7  and  N_8 
REMARK       I    between atoms: N_8  and  C_9 
REMARK    3  A    between atoms: C_9  and  C_11 
REMARK       I    between atoms: C_11  and  N_13 
REMARK    4  A    between atoms: N_13  and  C_14 
REMARK    5  A    between atoms: C_14  and  C_15 
REMARK    6  A    between atoms: C_19  and  N_20 
REMARK       I    between atoms: N_20  and  C_21 
REMARK    7  A    between atoms: C_21  and  C_23 
ROOT
ATOM      1  C   UNL d   1      25.837 -13.838  -4.054  0.00  0.00     0.309 C 
ATOM      2  O   UNL d   1      25.411 -12.718  -3.815  0.00  0.00    -0.262 OA
ATOM      3  N   UNL d   1      25.435 -15.013  -3.456  0.00  0.00    -0.349 N 
ATOM      4  H   UNL d   1      25.954 -15.826  -3.788  0.00  0.00     0.163 HD
ENDROOT
BRANCH   3   5
ATOM      5  C   UNL d   1      24.436 -15.097  -2.405  0.00  0.00     0.161 C 
BRANCH   5   6
ATOM      6  C   UNL d   1      24.632 -16.189  -1.370  0.00  0.00    -0.038 A 
ATOM      7  C   UNL d   1      25.892 -16.702  -1.062  0.00  0.00     0.009 A 
ATOM      8  C   UNL d   1      26.006 -17.877  -0.300  0.00  0.00     0.003 A 
ATOM      9  C   UNL d   1      24.865 -18.517   0.223  0.00  0.00     0.029 A 
ATOM     10  C   UNL d   1      23.600 -17.987  -0.030  0.00  0.00     0.035 A 
ATOM     11  C   UNL d   1      23.534 -16.824  -0.792  0.00  0.00     0.038 A 
BRANCH  10  12
ATOM     12  N   UNL d   1      22.405 -18.614   0.423  0.00  0.00    -0.321 N 
ATOM     13  C   UNL d   1      21.382 -19.101  -0.408  0.00  0.00     0.279 C 
ATOM     14  O   UNL d   1      21.391 -19.071  -1.643  0.00  0.00    -0.265 OA
ATOM     15  H   UNL d   1      22.332 -18.803   1.414  0.00  0.00     0.169 HD
BRANCH  13  16
ATOM     16  C   UNL d   1      20.235 -19.664   0.255  0.00  0.00     0.142 A 
ATOM     17  C   UNL d   1      19.092 -20.270  -0.223  0.00  0.00     0.045 A 
ATOM     18  C   UNL d   1      18.406 -20.780   0.907  0.00  0.00     0.027 A 
ATOM     19  C   UNL d   1      19.158 -20.440   2.006  0.00  0.00     0.143 A 
ATOM     20  O   UNL d   1      20.270 -19.769   1.622  0.00  0.00    -0.317 OA
ENDBRANCH  13  16
ENDBRANCH  10  12
ENDBRANCH   5   6
ENDBRANCH   3   5
BRANCH   1  21
ATOM     21  C   UNL d   1      26.930 -14.068  -5.120  0.00  0.00     0.313 C 
ATOM     22  N   UNL d   1      27.552 -12.927  -5.628  0.00  0.00    -0.319 N 
ATOM     23  H   UNL d   1      27.252 -12.038  -5.239  0.00  0.00     0.169 HD
ATOM     24  O   UNL d   1      27.134 -15.242  -5.417  0.00  0.00    -0.262 OA
BRANCH  22  25
ATOM     25  C   UNL d   1      28.592 -12.934  -6.595  0.00  0.00     0.035 A 
ATOM     26  C   UNL d   1      28.663 -11.959  -7.597  0.00  0.00     0.029 A 
ATOM     27  C   UNL d   1      29.731 -11.958  -8.516  0.00  0.00     0.003 A 
ATOM     28  C   UNL d   1      30.716 -12.948  -8.469  0.00  0.00     0.007 A 
ATOM     29  C   UNL d   1      30.679 -13.895  -7.453  0.00  0.00    -0.056 A 
ATOM     30  C   UNL d   1      29.604 -13.893  -6.559  0.00  0.00     0.036 A 
BRANCH  29  31
ATOM     31  C   UNL d   1      31.759 -14.921  -7.251  0.00  0.00     0.034 C 
ATOM     32  C   UNL d   1      31.177 -16.309  -7.067  0.00  0.00     0.010 C 
ENDBRANCH  29  31
ENDBRANCH  22  25
ENDBRANCH   1  21
TORSDOF 7
ENDMDL
MODEL 6
REMARK VINA RESULT:    -9.326      5.054      8.207
REMARK INTER + INTRA:         -14.133
REMARK INTER:                 -11.414
REMARK INTRA:                  -2.720
REMARK CONF_INDEPENDENT:        2.088
REMARK UNBOUND:                -2.720
REMARK  7 active torsions:
REMARK  status: ('A' for Active; 'I' for Inactive)
REMARK    1  A    between atoms: C_2  and  C_3 
REMARK    2  A    between atoms: C_7  and  N_8 
REMARK       I    between atoms: N_8  and  C_9 
REMARK    3  A    between atoms: C_9  and  C_11 
REMARK       I    between atoms: C_11  and  N_13 
REMARK    4  A    between atoms: N_13  and  C_14 
REMARK    5  A    between atoms: C_14  and  C_15 
REMARK    6  A    between atoms: C_19  and  N_20 
REMARK       I    between atoms: N_20  and  C_21 
REMARK    7  A    between atoms: C_21  and  C_23 
ROOT
ATOM      1  C   UNL d   1      27.055 -14.892  -3.546  0.00  0.00     0.309 C 
ATOM      2  O   UNL d   1      27.576 -14.350  -2.583  0.00  0.00    -0.262 OA
ATOM      3  N   UNL d   1      25.750 -15.328  -3.635  0.00  0.00    -0.349 N 
ATOM      4  H   UNL d   1      25.541 -15.784  -4.523  0.00  0.00     0.163 HD
ENDROOT
BRANCH   3   5
ATOM      5  C   UNL d   1      24.779 -15.230  -2.558  0.00  0.00     0.161 C 
BRANCH   5   6
ATOM      6  C   UNL d   1      24.908 -16.242  -1.435  0.00  0.00    -0.038 A 
ATOM      7  C   UNL d   1      26.144 -16.747  -1.030  0.00  0.00     0.009 A 
ATOM      8  C   UNL d   1      26.203 -17.862  -0.176  0.00  0.00     0.003 A 
ATOM      9  C   UNL d   1      25.029 -18.444   0.339  0.00  0.00     0.029 A 
ATOM     10  C   UNL d   1      23.786 -17.918  -0.012  0.00  0.00     0.035 A 
ATOM     11  C   UNL d   1      23.775 -16.816  -0.863  0.00  0.00     0.038 A 
BRANCH  10  12
ATOM     12  N   UNL d   1      22.560 -18.492   0.430  0.00  0.00    -0.321 N 
ATOM     13  C   UNL d   1      21.535 -18.957  -0.410  0.00  0.00     0.279 C 
ATOM     14  O   UNL d   1      21.567 -18.950  -1.645  0.00  0.00    -0.265 OA
ATOM     15  H   UNL d   1      22.463 -18.660   1.423  0.00  0.00     0.169 HD
BRANCH  13  16
ATOM     16  C   UNL d   1      20.357 -19.465   0.242  0.00  0.00     0.142 A 
ATOM     17  C   UNL d   1      19.221 -20.081  -0.241  0.00  0.00     0.045 A 
ATOM     18  C   UNL d   1      18.489 -20.516   0.890  0.00  0.00     0.027 A 
ATOM     19  C   UNL d   1      19.206 -20.124   1.994  0.00  0.00     0.143 A 
ATOM     20  O   UNL d   1      20.342 -19.491   1.613  0.00  0.00    -0.317 OA
ENDBRANCH  13  16
ENDBRANCH  10  12
ENDBRANCH   5   6
ENDBRANCH   3   5
BRANCH   1  21
ATOM     21  C   UNL d   1      27.848 -15.153  -4.844  0.00  0.00     0.313 C 
ATOM     22  N   UNL d   1      29.233 -15.255  -4.716  0.00  0.00    -0.319 N 
ATOM     23  H   UNL d   1      29.607 -15.172  -3.775  0.00  0.00     0.169 HD
ATOM     24  O   UNL d   1      27.170 -15.237  -5.864  0.00  0.00    -0.262 OA
BRANCH  22  25
ATOM     25  C   UNL d   1      30.129 -15.515  -5.787  0.00  0.00     0.035 A 
ATOM     26  C   UNL d   1      30.462 -16.823  -6.158  0.00  0.00     0.029 A 
ATOM     27  C   UNL d   1      31.317 -17.058  -7.254  0.00  0.00     0.003 A 
ATOM     28  C   UNL d   1      31.874 -15.993  -7.966  0.00  0.00     0.007 A 
ATOM     29  C   UNL d   1      31.516 -14.692  -7.635  0.00  0.00    -0.056 A 
ATOM     30  C   UNL d   1      30.681 -14.475  -6.534  0.00  0.00     0.036 A 
BRANCH  29  31
ATOM     31  C   UNL d   1      31.968 -13.493  -8.420  0.00  0.00     0.034 C 
ATOM     32  C   UNL d   1      30.812 -12.558  -8.719  0.00  0.00     0.010 C 
ENDBRANCH  29  31
ENDBRANCH  22  25
ENDBRANCH   1  21
TORSDOF 7
ENDMDL
MODEL 7
REMARK VINA RESULT:    -9.323      5.216      8.455
REMARK INTER + INTRA:         -14.241
REMARK INTER:                 -11.411
REMARK INTRA:                  -2.830
REMARK CONF_INDEPENDENT:        2.088
REMARK UNBOUND:                -2.830
REMARK  7 active torsions:
REMARK  status: ('A' for Active; 'I' for Inactive)
REMARK    1  A    between atoms: C_2  and  C_3 
REMARK    2  A    between atoms: C_7  and  N_8 
REMARK       I    between atoms: N_8  and  C_9 
REMARK    3  A    between atoms: C_9  and  C_11 
REMARK       I    between atoms: C_11  and  N_13 
REMARK    4  A    between atoms: N_13  and  C_14 
REMARK    5  A    between atoms: C_14  and  C_15 
REMARK    6  A    between atoms: C_19  and  N_20 
REMARK       I    between atoms: N_20  and  C_21 
REMARK    7  A    between atoms: C_21  and  C_23 
ROOT
ATOM      1  C   UNL d   1      25.978 -15.009  -4.350  0.00  0.00     0.309 C 
ATOM      2  O   UNL d   1      25.427 -15.884  -5.001  0.00  0.00    -0.262 OA
ATOM      3  N   UNL d   1      25.585 -14.536  -3.115  0.00  0.00    -0.349 N 
ATOM      4  H   UNL d   1      26.174 -13.777  -2.774  0.00  0.00     0.163 HD
ENDROOT
BRANCH   3   5
ATOM      5  C   UNL d   1      24.411 -15.001  -2.396  0.00  0.00     0.161 C 
BRANCH   5   6
ATOM      6  C   UNL d   1      24.629 -16.123  -1.397  0.00  0.00    -0.038 A 
ATOM      7  C   UNL d   1      25.893 -16.656  -1.145  0.00  0.00     0.009 A 
ATOM      8  C   UNL d   1      26.020 -17.853  -0.419  0.00  0.00     0.003 A 
ATOM      9  C   UNL d   1      24.890 -18.496   0.123  0.00  0.00     0.029 A 
ATOM     10  C   UNL d   1      23.623 -17.947  -0.074  0.00  0.00     0.035 A 
ATOM     11  C   UNL d   1      23.544 -16.764  -0.802  0.00  0.00     0.038 A 
BRANCH  10  12
ATOM     12  N   UNL d   1      22.436 -18.575   0.400  0.00  0.00    -0.321 N 
ATOM     13  C   UNL d   1      21.381 -19.027  -0.410  0.00  0.00     0.279 C 
ATOM     14  O   UNL d   1      21.349 -18.960  -1.643  0.00  0.00    -0.265 OA
ATOM     15  H   UNL d   1      22.394 -18.793   1.387  0.00  0.00     0.169 HD
BRANCH  13  16
ATOM     16  C   UNL d   1      20.251 -19.597   0.275  0.00  0.00     0.142 A 
ATOM     17  C   UNL d   1      19.114 -20.233  -0.180  0.00  0.00     0.045 A 
ATOM     18  C   UNL d   1      18.448 -20.734   0.965  0.00  0.00     0.027 A 
ATOM     19  C   UNL d   1      19.203 -20.358   2.050  0.00  0.00     0.143 A 
ATOM     20  O   UNL d   1      20.299 -19.675   1.643  0.00  0.00    -0.317 OA
ENDBRANCH  13  16
ENDBRANCH  10  12
ENDBRANCH   5   6
ENDBRANCH   3   5
BRANCH   1  21
ATOM     21  C   UNL d   1      27.250 -14.305  -4.867  0.00  0.00     0.313 C 
ATOM     22  N   UNL d   1      27.786 -14.790  -6.060  0.00  0.00    -0.319 N 
ATOM     23  H   UNL d   1      27.283 -15.552  -6.505  0.00  0.00     0.169 HD
ATOM     24  O   UNL d   1      27.665 -13.388  -4.164  0.00  0.00    -0.262 OA
BRANCH  22  25
ATOM     25  C   UNL d   1      28.935 -14.261  -6.706  0.00  0.00     0.035 A 
ATOM     26  C   UNL d   1      30.220 -14.729  -6.406  0.00  0.00     0.029 A 
ATOM     27  C   UNL d   1      31.342 -14.223  -7.093  0.00  0.00     0.003 A 
ATOM     28  C   UNL d   1      31.198 -13.223  -8.058  0.00  0.00     0.007 A 
ATOM     29  C   UNL d   1      29.923 -12.783  -8.395  0.00  0.00    -0.056 A 
ATOM     30  C   UNL d   1      28.822 -13.282  -7.692  0.00  0.00     0.036 A 
BRANCH  29  31
ATOM     31  C   UNL d   1      29.663 -11.801  -9.503  0.00  0.00     0.034 C 
ATOM     32  C   UNL d   1      28.350 -12.092 -10.204  0.00  0.00     0.010 C 
ENDBRANCH  29  31
ENDBRANCH  22  25
ENDBRANCH   1  21
TORSDOF 7
ENDMDL
MODEL 8
REMARK VINA RESULT:    -8.902      5.843      9.962
REMARK INTER + INTRA:         -13.922
REMARK INTER:                 -10.990
REMARK INTRA:                  -2.931
REMARK CONF_INDEPENDENT:        2.088
REMARK UNBOUND:                -2.931
REMARK  7 active torsions:
REMARK  status: ('A' for Active; 'I' for Inactive)
REMARK    1  A    between atoms: C_2  and  C_3 
REMARK    2  A    between atoms: C_7  and  N_8 
REMARK       I    between atoms: N_8  and  C_9 
REMARK    3  A    between atoms: C_9  and  C_11 
REMARK       I    between atoms: C_11  and  N_13 
REMARK    4  A    between atoms: N_13  and  C_14 
REMARK    5  A    between atoms: C_14  and  C_15 
REMARK    6  A    between atoms: C_19  and  N_20 
REMARK       I    between atoms: N_20  and  C_21 
REMARK    7  A    between atoms: C_21  and  C_23 
ROOT
ATOM      1  C   UNL d   1      26.240 -13.049  -3.697  0.00  0.00     0.309 C 
ATOM      2  O   UNL d   1      27.395 -12.796  -3.389  0.00  0.00    -0.262 OA
ATOM      3  N   UNL d   1      25.465 -12.360  -4.606  0.00  0.00    -0.349 N 
ATOM      4  H   UNL d   1      24.516 -12.727  -4.679  0.00  0.00     0.163 HD
ENDROOT
BRANCH   3   5
ATOM      5  C   UNL d   1      25.907 -11.183  -5.335  0.00  0.00     0.161 C 
BRANCH   5   6
ATOM      6  C   UNL d   1      26.870 -11.420  -6.483  0.00  0.00    -0.038 A 
ATOM      7  C   UNL d   1      26.804 -10.690  -7.670  0.00  0.00     0.009 A 
ATOM      8  C   UNL d   1      27.534 -11.110  -8.795  0.00  0.00     0.003 A 
ATOM      9  C   UNL d   1      28.393 -12.224  -8.730  0.00  0.00     0.029 A 
ATOM     10  C   UNL d   1      28.513 -12.933  -7.535  0.00  0.00     0.035 A 
ATOM     11  C   UNL d   1      27.769 -12.485  -6.447  0.00  0.00     0.038 A 
BRANCH  10  12
ATOM     12  N   UNL d   1      29.321 -14.099  -7.417  0.00  0.00    -0.321 N 
ATOM     13  C   UNL d   1      29.076 -15.168  -6.538  0.00  0.00     0.279 C 
ATOM     14  O   UNL d   1      28.116 -15.250  -5.766  0.00  0.00    -0.265 OA
ATOM     15  H   UNL d   1      30.077 -14.204  -8.081  0.00  0.00     0.169 HD
BRANCH  13  16
ATOM     16  C   UNL d   1      30.042 -16.235  -6.546  0.00  0.00     0.142 A 
ATOM     17  C   UNL d   1      30.185 -17.363  -5.766  0.00  0.00     0.045 A 
ATOM     18  C   UNL d   1      31.218 -18.131  -6.357  0.00  0.00     0.027 A 
ATOM     19  C   UNL d   1      31.658 -17.420  -7.447  0.00  0.00     0.143 A 
ATOM     20  O   UNL d   1      30.949 -16.273  -7.574  0.00  0.00    -0.317 OA
ENDBRANCH  13  16
ENDBRANCH  10  12
ENDBRANCH   5   6
ENDBRANCH   3   5
BRANCH   1  21
ATOM     21  C   UNL d   1      25.485 -14.240  -3.070  0.00  0.00     0.313 C 
ATOM     22  N   UNL d   1      26.168 -14.962  -2.091  0.00  0.00    -0.319 N 
ATOM     23  H   UNL d   1      27.099 -14.631  -1.853  0.00  0.00     0.169 HD
ATOM     24  O   UNL d   1      24.355 -14.434  -3.508  0.00  0.00    -0.262 OA
BRANCH  22  25
ATOM     25  C   UNL d   1      25.636 -16.072  -1.384  0.00  0.00     0.035 A 
ATOM     26  C   UNL d   1      26.466 -16.953  -0.679  0.00  0.00     0.029 A 
ATOM     27  C   UNL d   1      25.911 -18.021   0.055  0.00  0.00     0.003 A 
ATOM     28  C   UNL d   1      24.532 -18.243   0.063  0.00  0.00     0.007 A 
ATOM     29  C   UNL d   1      23.696 -17.350  -0.597  0.00  0.00    -0.056 A 
ATOM     30  C   UNL d   1      24.262 -16.305  -1.334  0.00  0.00     0.036 A 
BRANCH  29  31
ATOM     31  C   UNL d   1      22.196 -17.438  -0.542  0.00  0.00     0.034 C 
ATOM     32  C   UNL d   1      21.710 -18.829  -0.902  0.00  0.00     0.010 C 
ENDBRANCH  29  31
ENDBRANCH  22  25
ENDBRANCH   1  21
TORSDOF 7
ENDMDL
MODEL 9
REMARK VINA RESULT:    -8.509      8.279     11.293
REMARK INTER + INTRA:         -13.225
REMARK INTER:                 -10.597
REMARK INTRA:                  -2.627
REMARK CONF_INDEPENDENT:        2.088
REMARK UNBOUND:                -2.627
REMARK  7 active torsions:
REMARK  status: ('A' for Active; 'I' for Inactive)
REMARK    1  A    between atoms: C_2  and  C_3 
REMARK    2  A    between atoms: C_7  and  N_8 
REMARK       I    between atoms: N_8  and  C_9 
REMARK    3  A    between atoms: C_9  and  C_11 
REMARK       I    between atoms: C_11  and  N_13 
REMARK    4  A    between atoms: N_13  and  C_14 
REMARK    5  A    between atoms: C_14  and  C_15 
REMARK    6  A    between atoms: C_19  and  N_20 
REMARK       I    between atoms: N_20  and  C_21 
REMARK    7  A    between atoms: C_21  and  C_23 
ROOT
ATOM      1  C   UNL d   1      26.312 -13.390  -4.666  0.00  0.00     0.309 C 
ATOM      2  O   UNL d   1      27.409 -13.692  -5.111  0.00  0.00    -0.262 OA
ATOM      3  N   UNL d   1      25.580 -12.266  -4.984  0.00  0.00    -0.349 N 
ATOM      4  H   UNL d   1      24.705 -12.200  -4.464  0.00  0.00     0.163 HD
ENDROOT
BRANCH   3   5
ATOM      5  C   UNL d   1      26.025 -11.230  -5.901  0.00  0.00     0.161 C 
BRANCH   5   6
ATOM      6  C   UNL d   1      25.684  -9.801  -5.525  0.00  0.00    -0.038 A 
ATOM      7  C   UNL d   1      26.363  -9.116  -4.517  0.00  0.00     0.009 A 
ATOM      8  C   UNL d   1      25.854  -7.902  -4.025  0.00  0.00     0.003 A 
ATOM      9  C   UNL d   1      24.697  -7.321  -4.581  0.00  0.00     0.029 A 
ATOM     10  C   UNL d   1      24.036  -7.965  -5.627  0.00  0.00     0.035 A 
ATOM     11  C   UNL d   1      24.573  -9.167  -6.080  0.00  0.00     0.038 A 
BRANCH  10  12
ATOM     12  N   UNL d   1      22.833  -7.460  -6.197  0.00  0.00    -0.321 N 
ATOM     13  C   UNL d   1      22.755  -6.699  -7.375  0.00  0.00     0.279 C 
ATOM     14  O   UNL d   1      23.714  -6.385  -8.087  0.00  0.00    -0.265 OA
ATOM     15  H   UNL d   1      21.964  -7.750  -5.768  0.00  0.00     0.169 HD
BRANCH  13  16
ATOM     16  C   UNL d   1      21.442  -6.250  -7.758  0.00  0.00     0.142 A 
ATOM     17  C   UNL d   1      20.949  -5.715  -8.929  0.00  0.00     0.045 A 
ATOM     18  C   UNL d   1      19.543  -5.632  -8.772  0.00  0.00     0.027 A 
ATOM     19  C   UNL d   1      19.264  -6.099  -7.511  0.00  0.00     0.143 A 
ATOM     20  O   UNL d   1      20.405  -6.482  -6.890  0.00  0.00    -0.317 OA
ENDBRANCH  13  16
ENDBRANCH  10  12
ENDBRANCH   5   6
ENDBRANCH   3   5
BRANCH   1  21
ATOM     21  C   UNL d   1      25.585 -14.293  -3.647  0.00  0.00     0.313 C 
ATOM     22  N   UNL d   1      26.365 -15.248  -2.996  0.00  0.00    -0.319 N 
ATOM     23  H   UNL d   1      27.354 -15.258  -3.227  0.00  0.00     0.169 HD
ATOM     24  O   UNL d   1      24.382 -14.078  -3.521  0.00  0.00    -0.262 OA
BRANCH  22  25
ATOM     25  C   UNL d   1      25.884 -16.153  -2.012  0.00  0.00     0.035 A 
ATOM     26  C   UNL d   1      26.743 -16.722  -1.064  0.00  0.00     0.029 A 
ATOM     27  C   UNL d   1      26.235 -17.580  -0.067  0.00  0.00     0.003 A 
ATOM     28  C   UNL d   1      24.878 -17.907  -0.028  0.00  0.00     0.007 A 
ATOM     29  C   UNL d   1      24.010 -17.314  -0.938  0.00  0.00    -0.056 A 
ATOM     30  C   UNL d   1      24.531 -16.478  -1.930  0.00  0.00     0.036 A 
BRANCH  29  31
ATOM     31  C   UNL d   1      22.520 -17.510  -0.895  0.00  0.00     0.034 C 
ATOM     32  C   UNL d   1      22.156 -18.862  -0.312  0.00  0.00     0.010 C 
ENDBRANCH  29  31
ENDBRANCH  22  25
ENDBRANCH   1  21
TORSDOF 7
ENDMDL
