MODEL 1
REMARK VINA RESULT:   -10.400      0.000      0.000
REMARK INTER + INTRA:         -13.418
REMARK INTER:                 -12.190
REMARK INTRA:                  -1.228
REMARK CONF_INDEPENDENT:        1.790
REMARK UNBOUND:                -1.228
REMARK  6 active torsions:
REMARK  status: ('A' for Active; 'I' for Inactive)
REMARK       I    between atoms: C_2  and  N_3 
REMARK       I    between atoms: C_2  and  N_24 
REMARK    1  A    between atoms: N_3  and  N_4 
REMARK       I    between atoms: N_4  and  C_5 
REMARK    2  A    between atoms: C_5  and  C_7 
REMARK    3  A    between atoms: C_11  and  S_12 
REMARK    4  A    between atoms: S_12  and  N_15 
REMARK    5  A    between atoms: N_15  and  C_16 
REMARK    6  A    between atoms: N_24  and  C_25 
ROOT
ATOM      1  C   UNL d   1      25.693 -15.431  -2.500  0.00  0.00     0.035 A 
ATOM      2  C   UNL d   1      26.467 -15.089  -1.380  0.00  0.00     0.017 A 
ATOM      3  C   UNL d   1      26.340 -15.808  -0.185  0.00  0.00     0.003 A 
ATOM      4  C   UNL d   1      25.413 -16.846  -0.092  0.00  0.00     0.025 A 
ATOM      5  C   UNL d   1      24.642 -17.192  -1.213  0.00  0.00     0.080 A 
ATOM      6  C   UNL d   1      24.772 -16.481  -2.409  0.00  0.00     0.042 A 
ENDROOT
BRANCH   1   7
ATOM      7  C   UNL d   1      25.971 -14.805  -3.826  0.00  0.00     0.270 C 
ATOM      8  N   UNL d   1      27.298 -14.570  -4.159  0.00  0.00    -0.262 N 
ATOM      9  H   UNL d   1      28.100 -14.924  -3.642  0.00  0.00     0.190 HD
ATOM     10  O   UNL d   1      25.034 -14.484  -4.556  0.00  0.00    -0.266 OA
BRANCH   8  11
ATOM     11  N   UNL d   1      27.574 -13.955  -5.396  0.00  0.00    -0.248 N 
ATOM     12  C   UNL d   1      28.420 -14.537  -6.314  0.00  0.00     0.339 C 
ATOM     13  O   UNL d   1      28.980 -15.614  -6.102  0.00  0.00    -0.245 OA
ATOM     14  N   UNL d   1      28.567 -13.895  -7.526  0.00  0.00    -0.308 N 
ATOM     15  H   UNL d   1      29.051 -14.446  -8.228  0.00  0.00     0.170 HD
ATOM     16  H   UNL d   1      27.002 -13.145  -5.617  0.00  0.00     0.192 HD
BRANCH  14  17
ATOM     17  C   UNL d   1      28.152 -12.603  -7.893  0.00  0.00     0.036 A 
ATOM     18  C   UNL d   1      27.725 -11.694  -6.915  0.00  0.00     0.031 A 
ATOM     19  C   UNL d   1      27.323 -10.402  -7.291  0.00  0.00     0.026 A 
ATOM     20  C   UNL d   1      27.379 -10.017  -8.630  0.00  0.00     0.034 A 
ATOM     21 CL   UNL d   1      27.007  -8.402  -9.085  0.00  0.00    -0.084 Cl
ATOM     22  C   UNL d   1      27.760 -10.932  -9.605  0.00  0.00     0.026 A 
ATOM     23  C   UNL d   1      28.117 -12.225  -9.236  0.00  0.00     0.031 A 
ENDBRANCH  14  17
ENDBRANCH   8  11
ENDBRANCH   1   7
BRANCH   5  24
ATOM     24  S   UNL d   1      23.547 -18.589  -1.044  0.00  0.00     0.263 S 
ATOM     25  O   UNL d   1      23.187 -18.988  -2.393  0.00  0.00    -0.200 OA
ATOM     26  O   UNL d   1      24.226 -19.488  -0.144  0.00  0.00    -0.200 OA
BRANCH  24  27
ATOM     27  N   UNL d   1      22.144 -18.021  -0.303  0.00  0.00    -0.281 N 
ATOM     28  H   UNL d   1      22.035 -17.057  -0.022  0.00  0.00     0.179 HD
BRANCH  27  29
ATOM     29  C   UNL d   1      21.097 -18.918   0.063  0.00  0.00     0.042 A 
ATOM     30  C   UNL d   1      20.145 -19.288  -0.894  0.00  0.00     0.032 A 
ATOM     31  C   UNL d   1      19.041 -20.069  -0.523  0.00  0.00     0.026 A 
ATOM     32  C   UNL d   1      18.922 -20.520   0.791  0.00  0.00     0.034 A 
ATOM     33 CL   UNL d   1      17.643 -21.581   1.230  0.00  0.00    -0.084 Cl
ATOM     34  C   UNL d   1      19.852 -20.138   1.748  0.00  0.00     0.026 A 
ATOM     35  C   UNL d   1      20.923 -19.322   1.386  0.00  0.00     0.032 A 
ENDBRANCH  27  29
ENDBRANCH  24  27
ENDBRANCH   5  24
TORSDOF 6
ENDMDL
MODEL 2
REMARK VINA RESULT:    -9.256      5.255      7.341
REMARK INTER + INTRA:         -12.283
REMARK INTER:                 -11.046
REMARK INTRA:                  -1.237
REMARK CONF_INDEPENDENT:        1.790
REMARK UNBOUND:                -1.237
REMARK  6 active torsions:
REMARK  status: ('A' for Active; 'I' for Inactive)
REMARK       I    between atoms: C_2  and  N_3 
REMARK       I    between atoms: C_2  and  N_24 
REMARK    1  A    between atoms: N_3  and  N_4 
REMARK       I    between atoms: N_4  and  C_5 
REMARK    2  A    between atoms: C_5  and  C_7 
REMARK    3  A    between atoms: C_11  and  S_12 
REMARK    4  A    between atoms: S_12  and  N_15 
REMARK    5  A    between atoms: N_15  and  C_16 
REMARK    6  A    between atoms: N_24  and  C_25 
ROOT
ATOM      1  C   UNL d   1      26.629 -10.688  -5.832  0.00  0.00     0.035 A 
ATOM      2  C   UNL d   1      28.008 -10.683  -6.098  0.00  0.00     0.017 A 
ATOM      3  C   UNL d   1      28.769 -11.844  -5.910  0.00  0.00     0.003 A 
ATOM      4  C   UNL d   1      28.165 -13.002  -5.421  0.00  0.00     0.025 A 
ATOM      5  C   UNL d   1      26.786 -13.009  -5.160  0.00  0.00     0.080 A 
ATOM      6  C   UNL d   1      26.022 -11.855  -5.352  0.00  0.00     0.042 A 
ENDROOT
BRANCH   1   7
ATOM      7  C   UNL d   1      25.783  -9.523  -6.224  0.00  0.00     0.270 C 
ATOM      8  N   UNL d   1      24.593  -9.335  -5.535  0.00  0.00    -0.262 N 
ATOM      9  H   UNL d   1      24.322  -9.834  -4.690  0.00  0.00     0.190 HD
ATOM     10  O   UNL d   1      26.137  -8.799  -7.154  0.00  0.00    -0.266 OA
BRANCH   8  11
ATOM     11  N   UNL d   1      23.771  -8.254  -5.912  0.00  0.00    -0.248 N 
ATOM     12  C   UNL d   1      24.051  -6.966  -5.513  0.00  0.00     0.339 C 
ATOM     13  O   UNL d   1      25.023  -6.694  -4.806  0.00  0.00    -0.245 OA
ATOM     14  N   UNL d   1      23.232  -5.968  -5.995  0.00  0.00    -0.308 N 
ATOM     15  H   UNL d   1      23.579  -5.029  -5.822  0.00  0.00     0.170 HD
ATOM     16  H   UNL d   1      23.060  -8.468  -6.605  0.00  0.00     0.192 HD
BRANCH  14  17
ATOM     17  C   UNL d   1      22.001  -6.086  -6.665  0.00  0.00     0.036 A 
ATOM     18  C   UNL d   1      20.802  -5.827  -5.988  0.00  0.00     0.031 A 
ATOM     19  C   UNL d   1      19.578  -5.937  -6.668  0.00  0.00     0.026 A 
ATOM     20  C   UNL d   1      19.562  -6.273  -8.022  0.00  0.00     0.034 A 
ATOM     21 CL   UNL d   1      18.082  -6.291  -8.894  0.00  0.00    -0.084 Cl
ATOM     22  C   UNL d   1      20.748  -6.575  -8.682  0.00  0.00     0.026 A 
ATOM     23  C   UNL d   1      21.956  -6.506  -7.995  0.00  0.00     0.031 A 
ENDBRANCH  14  17
ENDBRANCH   8  11
ENDBRANCH   1   7
BRANCH   5  24
ATOM     24  S   UNL d   1      26.069 -14.553  -4.626  0.00  0.00     0.263 S 
ATOM     25  O   UNL d   1      24.630 -14.360  -4.645  0.00  0.00    -0.200 OA
ATOM     26  O   UNL d   1      26.710 -15.560  -5.436  0.00  0.00    -0.200 OA
BRANCH  24  27
ATOM     27  N   UNL d   1      26.521 -14.769  -3.016  0.00  0.00    -0.281 N 
ATOM     28  H   UNL d   1      27.360 -14.357  -2.633  0.00  0.00     0.179 HD
BRANCH  27  29
ATOM     29  C   UNL d   1      25.789 -15.645  -2.163  0.00  0.00     0.042 A 
ATOM     30  C   UNL d   1      26.454 -16.702  -1.531  0.00  0.00     0.032 A 
ATOM     31  C   UNL d   1      25.729 -17.645  -0.788  0.00  0.00     0.026 A 
ATOM     32  C   UNL d   1      24.351 -17.498  -0.637  0.00  0.00     0.034 A 
ATOM     33 CL   UNL d   1      23.470 -18.574   0.373  0.00  0.00    -0.084 Cl
ATOM     34  C   UNL d   1      23.684 -16.463  -1.280  0.00  0.00     0.026 A 
ATOM     35  C   UNL d   1      24.402 -15.554  -2.056  0.00  0.00     0.032 A 
ENDBRANCH  27  29
ENDBRANCH  24  27
ENDBRANCH   5  24
TORSDOF 6
ENDMDL
MODEL 3
REMARK VINA RESULT:    -9.053      7.813     11.475
REMARK INTER + INTRA:         -12.832
REMARK INTER:                 -10.842
REMARK INTRA:                  -1.990
REMARK CONF_INDEPENDENT:        1.790
REMARK UNBOUND:                -1.990
REMARK  6 active torsions:
REMARK  status: ('A' for Active; 'I' for Inactive)
REMARK       I    between atoms: C_2  and  N_3 
REMARK       I    between atoms: C_2  and  N_24 
REMARK    1  A    between atoms: N_3  and  N_4 
REMARK       I    between atoms: N_4  and  C_5 
REMARK    2  A    between atoms: C_5  and  C_7 
REMARK    3  A    between atoms: C_11  and  S_12 
REMARK    4  A    between atoms: S_12  and  N_15 
REMARK    5  A    between atoms: N_15  and  C_16 
REMARK    6  A    between atoms: N_24  and  C_25 
ROOT
ATOM      1  C   UNL d   1      27.825 -13.995   3.097  0.00  0.00     0.035 A 
ATOM      2  C   UNL d   1      27.455 -12.776   2.506  0.00  0.00     0.017 A 
ATOM      3  C   UNL d   1      27.017 -12.739   1.176  0.00  0.00     0.003 A 
ATOM      4  C   UNL d   1      26.983 -13.912   0.420  0.00  0.00     0.025 A 
ATOM      5  C   UNL d   1      27.349 -15.130   1.012  0.00  0.00     0.080 A 
ATOM      6  C   UNL d   1      27.780 -15.172   2.341  0.00  0.00     0.042 A 
ENDROOT
BRANCH   1   7
ATOM      7  C   UNL d   1      28.094 -14.068   4.563  0.00  0.00     0.270 C 
ATOM      8  N   UNL d   1      28.267 -12.870   5.244  0.00  0.00    -0.262 N 
ATOM      9  H   UNL d   1      28.078 -11.948   4.858  0.00  0.00     0.190 HD
ATOM     10  O   UNL d   1      28.193 -15.166   5.109  0.00  0.00    -0.266 OA
BRANCH   8  11
ATOM     11  N   UNL d   1      28.548 -12.926   6.624  0.00  0.00    -0.248 N 
ATOM     12  C   UNL d   1      28.468 -11.804   7.418  0.00  0.00     0.339 C 
ATOM     13  O   UNL d   1      28.155 -10.701   6.968  0.00  0.00    -0.245 OA
ATOM     14  N   UNL d   1      28.689 -11.975   8.768  0.00  0.00    -0.308 N 
ATOM     15  H   UNL d   1      28.446 -11.166   9.332  0.00  0.00     0.170 HD
ATOM     16  H   UNL d   1      28.667 -13.859   7.007  0.00  0.00     0.192 HD
BRANCH  14  17
ATOM     17  C   UNL d   1      29.209 -13.095   9.441  0.00  0.00     0.036 A 
ATOM     18  C   UNL d   1      30.471 -13.600   9.099  0.00  0.00     0.031 A 
ATOM     19  C   UNL d   1      30.986 -14.713   9.783  0.00  0.00     0.026 A 
ATOM     20  C   UNL d   1      30.255 -15.293  10.819  0.00  0.00     0.034 A 
ATOM     21 CL   UNL d   1      30.927 -16.577  11.744  0.00  0.00    -0.084 Cl
ATOM     22  C   UNL d   1      28.983 -14.822  11.128  0.00  0.00     0.026 A 
ATOM     23  C   UNL d   1      28.457 -13.745  10.421  0.00  0.00     0.031 A 
ENDBRANCH  14  17
ENDBRANCH   8  11
ENDBRANCH   1   7
BRANCH   5  24
ATOM     24  S   UNL d   1      27.192 -16.598   0.011  0.00  0.00     0.263 S 
ATOM     25  O   UNL d   1      28.358 -16.627  -0.853  0.00  0.00    -0.200 OA
ATOM     26  O   UNL d   1      26.917 -17.659   0.949  0.00  0.00    -0.200 OA
BRANCH  24  27
ATOM     27  N   UNL d   1      25.846 -16.372  -0.977  0.00  0.00    -0.281 N 
ATOM     28  H   UNL d   1      25.833 -15.689  -1.721  0.00  0.00     0.179 HD
BRANCH  27  29
ATOM     29  C   UNL d   1      24.626 -17.063  -0.719  0.00  0.00     0.042 A 
ATOM     30  C   UNL d   1      24.649 -18.451  -0.538  0.00  0.00     0.032 A 
ATOM     31  C   UNL d   1      23.448 -19.164  -0.405  0.00  0.00     0.026 A 
ATOM     32  C   UNL d   1      22.233 -18.480  -0.403  0.00  0.00     0.034 A 
ATOM     33 CL   UNL d   1      20.764 -19.324  -0.116  0.00  0.00    -0.084 Cl
ATOM     34  C   UNL d   1      22.204 -17.106  -0.605  0.00  0.00     0.026 A 
ATOM     35  C   UNL d   1      23.397 -16.407  -0.783  0.00  0.00     0.032 A 
ENDBRANCH  27  29
ENDBRANCH  24  27
ENDBRANCH   5  24
TORSDOF 6
ENDMDL
MODEL 4
REMARK VINA RESULT:    -8.928      3.079      3.713
REMARK INTER + INTRA:         -12.515
REMARK INTER:                 -10.718
REMARK INTRA:                  -1.796
REMARK CONF_INDEPENDENT:        1.790
REMARK UNBOUND:                -1.796
REMARK  6 active torsions:
REMARK  status: ('A' for Active; 'I' for Inactive)
REMARK       I    between atoms: C_2  and  N_3 
REMARK       I    between atoms: C_2  and  N_24 
REMARK    1  A    between atoms: N_3  and  N_4 
REMARK       I    between atoms: N_4  and  C_5 
REMARK    2  A    between atoms: C_5  and  C_7 
REMARK    3  A    between atoms: C_11  and  S_12 
REMARK    4  A    between atoms: S_12  and  N_15 
REMARK    5  A    between atoms: N_15  and  C_16 
REMARK    6  A    between atoms: N_24  and  C_25 
ROOT
ATOM      1  C   UNL d   1      27.085 -16.900  -1.194  0.00  0.00     0.035 A 
ATOM      2  C   UNL d   1      27.556 -17.472  -0.001  0.00  0.00     0.017 A 
ATOM      3  C   UNL d   1      26.667 -18.090   0.887  0.00  0.00     0.003 A 
ATOM      4  C   UNL d   1      25.300 -18.106   0.607  0.00  0.00     0.025 A 
ATOM      5  C   UNL d   1      24.830 -17.538  -0.587  0.00  0.00     0.080 A 
ATOM      6  C   UNL d   1      25.715 -16.927  -1.479  0.00  0.00     0.042 A 
ENDROOT
BRANCH   1   7
ATOM      7  C   UNL d   1      28.047 -16.426  -2.232  0.00  0.00     0.270 C 
ATOM      8  N   UNL d   1      27.520 -15.950  -3.424  0.00  0.00    -0.262 N 
ATOM      9  H   UNL d   1      26.534 -15.757  -3.591  0.00  0.00     0.190 HD
ATOM     10  O   UNL d   1      29.257 -16.507  -2.023  0.00  0.00    -0.266 OA
BRANCH   8  11
ATOM     11  N   UNL d   1      28.417 -15.525  -4.424  0.00  0.00    -0.248 N 
ATOM     12  C   UNL d   1      27.977 -15.165  -5.678  0.00  0.00     0.339 C 
ATOM     13  O   UNL d   1      26.785 -15.200  -5.992  0.00  0.00    -0.245 OA
ATOM     14  N   UNL d   1      28.922 -14.692  -6.563  0.00  0.00    -0.308 N 
ATOM     15  H   UNL d   1      28.530 -14.275  -7.402  0.00  0.00     0.170 HD
ATOM     16  H   UNL d   1      29.372 -15.366  -4.115  0.00  0.00     0.192 HD
BRANCH  14  17
ATOM     17  C   UNL d   1      30.324 -14.728  -6.456  0.00  0.00     0.036 A 
ATOM     18  C   UNL d   1      31.055 -15.734  -7.102  0.00  0.00     0.031 A 
ATOM     19  C   UNL d   1      32.455 -15.756  -6.998  0.00  0.00     0.026 A 
ATOM     20  C   UNL d   1      33.115 -14.760  -6.279  0.00  0.00     0.034 A 
ATOM     21 CL   UNL d   1      34.833 -14.706  -6.247  0.00  0.00    -0.084 Cl
ATOM     22  C   UNL d   1      32.389 -13.788  -5.600  0.00  0.00     0.026 A 
ATOM     23  C   UNL d   1      30.999 -13.793  -5.670  0.00  0.00     0.031 A 
ENDBRANCH  14  17
ENDBRANCH   8  11
ENDBRANCH   1   7
BRANCH   5  24
ATOM     24  S   UNL d   1      23.083 -17.680  -0.919  0.00  0.00     0.263 S 
ATOM     25  O   UNL d   1      22.628 -16.346  -1.270  0.00  0.00    -0.200 OA
ATOM     26  O   UNL d   1      22.968 -18.786  -1.837  0.00  0.00    -0.200 OA
BRANCH  24  27
ATOM     27  N   UNL d   1      22.342 -18.092   0.537  0.00  0.00    -0.281 N 
ATOM     28  H   UNL d   1      22.713 -17.802   1.431  0.00  0.00     0.179 HD
BRANCH  27  29
ATOM     29  C   UNL d   1      21.219 -18.970   0.563  0.00  0.00     0.042 A 
ATOM     30  C   UNL d   1      20.588 -19.311  -0.639  0.00  0.00     0.032 A 
ATOM     31  C   UNL d   1      19.411 -20.074  -0.624  0.00  0.00     0.026 A 
ATOM     32  C   UNL d   1      18.900 -20.535   0.588  0.00  0.00     0.034 A 
ATOM     33 CL   UNL d   1      17.531 -21.575   0.612  0.00  0.00    -0.084 Cl
ATOM     34  C   UNL d   1      19.511 -20.182   1.784  0.00  0.00     0.026 A 
ATOM     35  C   UNL d   1      20.655 -19.385   1.768  0.00  0.00     0.032 A 
ENDBRANCH  27  29
ENDBRANCH  24  27
ENDBRANCH   5  24
TORSDOF 6
ENDMDL
MODEL 5
REMARK VINA RESULT:    -8.750      3.856      9.874
REMARK INTER + INTRA:         -12.684
REMARK INTER:                 -10.540
REMARK INTRA:                  -2.144
REMARK CONF_INDEPENDENT:        1.790
REMARK UNBOUND:                -2.144
REMARK  6 active torsions:
REMARK  status: ('A' for Active; 'I' for Inactive)
REMARK       I    between atoms: C_2  and  N_3 
REMARK       I    between atoms: C_2  and  N_24 
REMARK    1  A    between atoms: N_3  and  N_4 
REMARK       I    between atoms: N_4  and  C_5 
REMARK    2  A    between atoms: C_5  and  C_7 
REMARK    3  A    between atoms: C_11  and  S_12 
REMARK    4  A    between atoms: S_12  and  N_15 
REMARK    5  A    between atoms: N_15  and  C_16 
REMARK    6  A    between atoms: N_24  and  C_25 
ROOT
ATOM      1  C   UNL d   1      26.250 -13.093  -4.598  0.00  0.00     0.035 A 
ATOM      2  C   UNL d   1      25.650 -11.907  -5.052  0.00  0.00     0.017 A 
ATOM      3  C   UNL d   1      26.265 -11.139  -6.049  0.00  0.00     0.003 A 
ATOM      4  C   UNL d   1      27.499 -11.531  -6.569  0.00  0.00     0.025 A 
ATOM      5  C   UNL d   1      28.097 -12.719  -6.120  0.00  0.00     0.080 A 
ATOM      6  C   UNL d   1      27.483 -13.491  -5.130  0.00  0.00     0.042 A 
ENDROOT
BRANCH   1   7
ATOM      7  C   UNL d   1      25.505 -14.014  -3.692  0.00  0.00     0.270 C 
ATOM      8  N   UNL d   1      26.249 -14.798  -2.821  0.00  0.00    -0.262 N 
ATOM      9  H   UNL d   1      27.245 -14.689  -2.645  0.00  0.00     0.190 HD
ATOM     10  O   UNL d   1      24.278 -14.082  -3.768  0.00  0.00    -0.266 OA
BRANCH   8  11
ATOM     11  N   UNL d   1      25.559 -15.692  -1.978  0.00  0.00    -0.248 N 
ATOM     12  C   UNL d   1      26.179 -16.287  -0.901  0.00  0.00     0.339 C 
ATOM     13  O   UNL d   1      27.361 -16.075  -0.624  0.00  0.00    -0.245 OA
ATOM     14  N   UNL d   1      25.401 -17.088  -0.093  0.00  0.00    -0.308 N 
ATOM     15  H   UNL d   1      25.850 -17.356   0.777  0.00  0.00     0.170 HD
ATOM     16  H   UNL d   1      24.557 -15.750  -2.131  0.00  0.00     0.192 HD
BRANCH  14  17
ATOM     17  C   UNL d   1      24.103 -17.576  -0.326  0.00  0.00     0.036 A 
ATOM     18  C   UNL d   1      23.835 -18.947  -0.215  0.00  0.00     0.031 A 
ATOM     19  C   UNL d   1      22.534 -19.425  -0.439  0.00  0.00     0.026 A 
ATOM     20  C   UNL d   1      21.506 -18.531  -0.740  0.00  0.00     0.034 A 
ATOM     21 CL   UNL d   1      19.888 -19.088  -0.895  0.00  0.00    -0.084 Cl
ATOM     22  C   UNL d   1      21.780 -17.177  -0.895  0.00  0.00     0.026 A 
ATOM     23  C   UNL d   1      23.078 -16.711  -0.714  0.00  0.00     0.031 A 
ENDBRANCH  14  17
ENDBRANCH   8  11
ENDBRANCH   1   7
BRANCH   5  24
ATOM     24  S   UNL d   1      29.627 -13.202  -6.898  0.00  0.00     0.263 S 
ATOM     25  O   UNL d   1      29.698 -12.465  -8.147  0.00  0.00    -0.200 OA
ATOM     26  O   UNL d   1      30.629 -13.050  -5.872  0.00  0.00    -0.200 OA
BRANCH  24  27
ATOM     27  N   UNL d   1      29.481 -14.834  -7.290  0.00  0.00    -0.281 N 
ATOM     28  H   UNL d   1      28.993 -15.147  -8.117  0.00  0.00     0.179 HD
BRANCH  27  29
ATOM     29  C   UNL d   1      29.945 -15.844  -6.397  0.00  0.00     0.042 A 
ATOM     30  C   UNL d   1      30.730 -16.891  -6.895  0.00  0.00     0.032 A 
ATOM     31  C   UNL d   1      31.093 -17.957  -6.059  0.00  0.00     0.026 A 
ATOM     32  C   UNL d   1      30.714 -17.945  -4.717  0.00  0.00     0.034 A 
ATOM     33 CL   UNL d   1      31.258 -19.181  -3.653  0.00  0.00    -0.084 Cl
ATOM     34  C   UNL d   1      29.918 -16.920  -4.225  0.00  0.00     0.026 A 
ATOM     35  C   UNL d   1      29.520 -15.885  -5.071  0.00  0.00     0.032 A 
ENDBRANCH  27  29
ENDBRANCH  24  27
ENDBRANCH   5  24
TORSDOF 6
ENDMDL
MODEL 6
REMARK VINA RESULT:    -8.719      4.540      9.898
REMARK INTER + INTRA:         -12.618
REMARK INTER:                 -10.509
REMARK INTRA:                  -2.110
REMARK CONF_INDEPENDENT:        1.790
REMARK UNBOUND:                -2.110
REMARK  6 active torsions:
REMARK  status: ('A' for Active; 'I' for Inactive)
REMARK       I    between atoms: C_2  and  N_3 
REMARK       I    between atoms: C_2  and  N_24 
REMARK    1  A    between atoms: N_3  and  N_4 
REMARK       I    between atoms: N_4  and  C_5 
REMARK    2  A    between atoms: C_5  and  C_7 
REMARK    3  A    between atoms: C_11  and  S_12 
REMARK    4  A    between atoms: S_12  and  N_15 
REMARK    5  A    between atoms: N_15  and  C_16 
REMARK    6  A    between atoms: N_24  and  C_25 
ROOT
ATOM      1  C   UNL d   1      27.687 -14.600  -5.059  0.00  0.00     0.035 A 
ATOM      2  C   UNL d   1      27.322 -13.468  -5.805  0.00  0.00     0.017 A 
ATOM      3  C   UNL d   1      28.127 -13.027  -6.862  0.00  0.00     0.003 A 
ATOM      4  C   UNL d   1      29.320 -13.691  -7.154  0.00  0.00     0.025 A 
ATOM      5  C   UNL d   1      29.683 -14.824  -6.411  0.00  0.00     0.080 A 
ATOM      6  C   UNL d   1      28.878 -15.271  -5.359  0.00  0.00     0.042 A 
ENDROOT
BRANCH   1   7
ATOM      7  C   UNL d   1      26.735 -15.190  -4.073  0.00  0.00     0.270 C 
ATOM      8  N   UNL d   1      27.269 -15.727  -2.909  0.00  0.00    -0.262 N 
ATOM      9  H   UNL d   1      28.234 -15.618  -2.605  0.00  0.00     0.190 HD
ATOM     10  O   UNL d   1      25.532 -15.221  -4.331  0.00  0.00    -0.266 OA
BRANCH   8  11
ATOM     11  N   UNL d   1      26.384 -16.312  -1.981  0.00  0.00    -0.248 N 
ATOM     12  C   UNL d   1      26.793 -16.643  -0.709  0.00  0.00     0.339 C 
ATOM     13  O   UNL d   1      27.946 -16.451  -0.318  0.00  0.00    -0.245 OA
ATOM     14  N   UNL d   1      25.835 -17.141   0.149  0.00  0.00    -0.308 N 
ATOM     15  H   UNL d   1      26.138 -17.201   1.116  0.00  0.00     0.170 HD
ATOM     16  H   UNL d   1      25.408 -16.336  -2.264  0.00  0.00     0.192 HD
BRANCH  14  17
ATOM     17  C   UNL d   1      24.532 -17.578  -0.146  0.00  0.00     0.036 A 
ATOM     18  C   UNL d   1      24.241 -18.948  -0.193  0.00  0.00     0.031 A 
ATOM     19  C   UNL d   1      22.934 -19.375  -0.478  0.00  0.00     0.026 A 
ATOM     20  C   UNL d   1      21.924 -18.436  -0.682  0.00  0.00     0.034 A 
ATOM     21 CL   UNL d   1      20.298 -18.944  -0.910  0.00  0.00    -0.084 Cl
ATOM     22  C   UNL d   1      22.220 -17.077  -0.681  0.00  0.00     0.026 A 
ATOM     23  C   UNL d   1      23.525 -16.657  -0.441  0.00  0.00     0.031 A 
ENDBRANCH  14  17
ENDBRANCH   8  11
ENDBRANCH   1   7
BRANCH   5  24
ATOM     24  S   UNL d   1      31.173 -15.672  -6.902  0.00  0.00     0.263 S 
ATOM     25  O   UNL d   1      31.716 -14.924  -8.022  0.00  0.00    -0.200 OA
ATOM     26  O   UNL d   1      31.918 -15.853  -5.680  0.00  0.00    -0.200 OA
BRANCH  24  27
ATOM     27  N   UNL d   1      30.704 -17.180  -7.490  0.00  0.00    -0.281 N 
ATOM     28  H   UNL d   1      30.268 -17.293  -8.394  0.00  0.00     0.179 HD
BRANCH  27  29
ATOM     29  C   UNL d   1      30.803 -18.346  -6.674  0.00  0.00     0.042 A 
ATOM     30  C   UNL d   1      31.170 -19.563  -7.259  0.00  0.00     0.032 A 
ATOM     31  C   UNL d   1      31.154 -20.742  -6.499  0.00  0.00     0.026 A 
ATOM     32  C   UNL d   1      30.820 -20.690  -5.146  0.00  0.00     0.034 A 
ATOM     33 CL   UNL d   1      30.917 -22.104  -4.175  0.00  0.00    -0.084 Cl
ATOM     34  C   UNL d   1      30.433 -19.487  -4.568  0.00  0.00     0.026 A 
ATOM     35  C   UNL d   1      30.406 -18.326  -5.338  0.00  0.00     0.032 A 
ENDBRANCH  27  29
ENDBRANCH  24  27
ENDBRANCH   5  24
TORSDOF 6
ENDMDL
MODEL 7
REMARK VINA RESULT:    -8.492      1.841      2.334
REMARK INTER + INTRA:         -12.199
REMARK INTER:                 -10.282
REMARK INTRA:                  -1.917
REMARK CONF_INDEPENDENT:        1.790
REMARK UNBOUND:                -1.917
REMARK  6 active torsions:
REMARK  status: ('A' for Active; 'I' for Inactive)
REMARK       I    between atoms: C_2  and  N_3 
REMARK       I    between atoms: C_2  and  N_24 
REMARK    1  A    between atoms: N_3  and  N_4 
REMARK       I    between atoms: N_4  and  C_5 
REMARK    2  A    between atoms: C_5  and  C_7 
REMARK    3  A    between atoms: C_11  and  S_12 
REMARK    4  A    between atoms: S_12  and  N_15 
REMARK    5  A    between atoms: N_15  and  C_16 
REMARK    6  A    between atoms: N_24  and  C_25 
ROOT
ATOM      1  C   UNL d   1      26.196 -15.854  -0.924  0.00  0.00     0.035 A 
ATOM      2  C   UNL d   1      27.131 -16.292   0.027  0.00  0.00     0.017 A 
ATOM      3  C   UNL d   1      26.909 -17.473   0.747  0.00  0.00     0.003 A 
ATOM      4  C   UNL d   1      25.734 -18.200   0.547  0.00  0.00     0.025 A 
ATOM      5  C   UNL d   1      24.801 -17.765  -0.406  0.00  0.00     0.080 A 
ATOM      6  C   UNL d   1      25.023 -16.590  -1.131  0.00  0.00     0.042 A 
ENDROOT
BRANCH   1   7
ATOM      7  C   UNL d   1      26.523 -14.716  -1.832  0.00  0.00     0.270 C 
ATOM      8  N   UNL d   1      26.721 -15.005  -3.175  0.00  0.00    -0.262 N 
ATOM      9  H   UNL d   1      26.515 -15.898  -3.616  0.00  0.00     0.190 HD
ATOM     10  O   UNL d   1      26.647 -13.583  -1.368  0.00  0.00    -0.266 OA
BRANCH   8  11
ATOM     11  N   UNL d   1      27.058 -13.944  -4.040  0.00  0.00    -0.248 N 
ATOM     12  C   UNL d   1      27.368 -14.167  -5.363  0.00  0.00     0.339 C 
ATOM     13  O   UNL d   1      27.373 -15.296  -5.856  0.00  0.00    -0.245 OA
ATOM     14  N   UNL d   1      27.611 -13.058  -6.145  0.00  0.00    -0.308 N 
ATOM     15  H   UNL d   1      27.658 -13.257  -7.140  0.00  0.00     0.170 HD
ATOM     16  H   UNL d   1      26.915 -13.011  -3.662  0.00  0.00     0.192 HD
BRANCH  14  17
ATOM     17  C   UNL d   1      27.811 -11.725  -5.745  0.00  0.00     0.036 A 
ATOM     18  C   UNL d   1      29.105 -11.189  -5.698  0.00  0.00     0.031 A 
ATOM     19  C   UNL d   1      29.294  -9.854  -5.308  0.00  0.00     0.026 A 
ATOM     20  C   UNL d   1      28.193  -9.056  -4.998  0.00  0.00     0.034 A 
ATOM     21 CL   UNL d   1      28.402  -7.389  -4.638  0.00  0.00    -0.084 Cl
ATOM     22  C   UNL d   1      26.913  -9.600  -5.000  0.00  0.00     0.026 A 
ATOM     23  C   UNL d   1      26.732 -10.935  -5.346  0.00  0.00     0.031 A 
ENDBRANCH  14  17
ENDBRANCH   8  11
ENDBRANCH   1   7
BRANCH   5  24
ATOM     24  S   UNL d   1      23.370 -18.795  -0.670  0.00  0.00     0.263 S 
ATOM     25  O   UNL d   1      22.932 -18.541  -2.031  0.00  0.00    -0.200 OA
ATOM     26  O   UNL d   1      23.774 -20.110  -0.238  0.00  0.00    -0.200 OA
BRANCH  24  27
ATOM     27  N   UNL d   1      22.162 -18.224   0.357  0.00  0.00    -0.281 N 
ATOM     28  H   UNL d   1      22.272 -17.379   0.900  0.00  0.00     0.179 HD
BRANCH  27  29
ATOM     29  C   UNL d   1      20.977 -18.984   0.585  0.00  0.00     0.042 A 
ATOM     30  C   UNL d   1      20.623 -19.325   1.895  0.00  0.00     0.032 A 
ATOM     31  C   UNL d   1      19.531 -20.174   2.131  0.00  0.00     0.026 A 
ATOM     32  C   UNL d   1      18.769 -20.635   1.059  0.00  0.00     0.034 A 
ATOM     33 CL   UNL d   1      17.356 -21.573   1.340  0.00  0.00    -0.084 Cl
ATOM     34  C   UNL d   1      19.130 -20.317  -0.244  0.00  0.00     0.026 A 
ATOM     35  C   UNL d   1      20.243 -19.511  -0.477  0.00  0.00     0.032 A 
ENDBRANCH  27  29
ENDBRANCH  24  27
ENDBRANCH   5  24
TORSDOF 6
ENDMDL
MODEL 8
REMARK VINA RESULT:    -8.280      4.086     10.318
REMARK INTER + INTRA:         -12.204
REMARK INTER:                 -10.070
REMARK INTRA:                  -2.134
REMARK CONF_INDEPENDENT:        1.790
REMARK UNBOUND:                -2.134
REMARK  6 active torsions:
REMARK  status: ('A' for Active; 'I' for Inactive)
REMARK       I    between atoms: C_2  and  N_3 
REMARK       I    between atoms: C_2  and  N_24 
REMARK    1  A    between atoms: N_3  and  N_4 
REMARK       I    between atoms: N_4  and  C_5 
REMARK    2  A    between atoms: C_5  and  C_7 
REMARK    3  A    between atoms: C_11  and  S_12 
REMARK    4  A    between atoms: S_12  and  N_15 
REMARK    5  A    between atoms: N_15  and  C_16 
REMARK    6  A    between atoms: N_24  and  C_25 
ROOT
ATOM      1  C   UNL d   1      26.793 -13.891  -5.165  0.00  0.00     0.035 A 
ATOM      2  C   UNL d   1      28.013 -14.397  -5.644  0.00  0.00     0.017 A 
ATOM      3  C   UNL d   1      28.838 -13.606  -6.453  0.00  0.00     0.003 A 
ATOM      4  C   UNL d   1      28.432 -12.322  -6.818  0.00  0.00     0.025 A 
ATOM      5  C   UNL d   1      27.216 -11.814  -6.336  0.00  0.00     0.080 A 
ATOM      6  C   UNL d   1      26.393 -12.599  -5.523  0.00  0.00     0.042 A 
ENDROOT
BRANCH   1   7
ATOM      7  C   UNL d   1      26.014 -14.650  -4.143  0.00  0.00     0.270 C 
ATOM      8  N   UNL d   1      26.727 -15.288  -3.138  0.00  0.00    -0.262 N 
ATOM      9  H   UNL d   1      27.719 -15.159  -2.954  0.00  0.00     0.190 HD
ATOM     10  O   UNL d   1      24.790 -14.721  -4.241  0.00  0.00    -0.266 OA
BRANCH   8  11
ATOM     11  N   UNL d   1      26.005 -16.031  -2.182  0.00  0.00    -0.248 N 
ATOM     12  C   UNL d   1      26.623 -16.567  -1.074  0.00  0.00     0.339 C 
ATOM     13  O   UNL d   1      27.830 -16.432  -0.864  0.00  0.00    -0.245 OA
ATOM     14  N   UNL d   1      25.819 -17.213  -0.159  0.00  0.00    -0.308 N 
ATOM     15  H   UNL d   1      26.285 -17.431   0.717  0.00  0.00     0.170 HD
ATOM     16  H   UNL d   1      24.995 -16.016  -2.290  0.00  0.00     0.192 HD
BRANCH  14  17
ATOM     17  C   UNL d   1      24.476 -17.607  -0.290  0.00  0.00     0.036 A 
ATOM     18  C   UNL d   1      23.479 -16.649  -0.522  0.00  0.00     0.031 A 
ATOM     19  C   UNL d   1      22.142 -17.054  -0.662  0.00  0.00     0.026 A 
ATOM     20  C   UNL d   1      21.814 -18.407  -0.603  0.00  0.00     0.034 A 
ATOM     21 CL   UNL d   1      20.201 -18.924  -0.895  0.00  0.00    -0.084 Cl
ATOM     22  C   UNL d   1      22.795 -19.354  -0.327  0.00  0.00     0.026 A 
ATOM     23  C   UNL d   1      24.113 -18.947  -0.146  0.00  0.00     0.031 A 
ENDBRANCH  14  17
ENDBRANCH   8  11
ENDBRANCH   1   7
BRANCH   5  24
ATOM     24  S   UNL d   1      26.810 -10.133  -6.770  0.00  0.00     0.263 S 
ATOM     25  O   UNL d   1      27.848  -9.301  -6.188  0.00  0.00    -0.200 OA
ATOM     26  O   UNL d   1      26.572 -10.164  -8.193  0.00  0.00    -0.200 OA
BRANCH  24  27
ATOM     27  N   UNL d   1      25.370  -9.760  -5.978  0.00  0.00    -0.281 N 
ATOM     28  H   UNL d   1      24.466  -9.966  -6.378  0.00  0.00     0.179 HD
BRANCH  27  29
ATOM     29  C   UNL d   1      25.378  -9.027  -4.755  0.00  0.00     0.042 A 
ATOM     30  C   UNL d   1      25.035  -7.670  -4.766  0.00  0.00     0.032 A 
ATOM     31  C   UNL d   1      25.155  -6.904  -3.597  0.00  0.00     0.026 A 
ATOM     32  C   UNL d   1      25.568  -7.510  -2.411  0.00  0.00     0.034 A 
ATOM     33 CL   UNL d   1      25.600  -6.613  -0.945  0.00  0.00    -0.084 Cl
ATOM     34  C   UNL d   1      25.931  -8.850  -2.401  0.00  0.00     0.026 A 
ATOM     35  C   UNL d   1      25.854  -9.597  -3.576  0.00  0.00     0.032 A 
ENDBRANCH  27  29
ENDBRANCH  24  27
ENDBRANCH   5  24
TORSDOF 6
ENDMDL
MODEL 9
REMARK VINA RESULT:    -7.543      3.791      9.760
REMARK INTER + INTRA:         -12.175
REMARK INTER:                  -9.333
REMARK INTRA:                  -2.843
REMARK CONF_INDEPENDENT:        1.790
REMARK UNBOUND:                -2.843
REMARK  6 active torsions:
REMARK  status: ('A' for Active; 'I' for Inactive)
REMARK       I    between atoms: C_2  and  N_3 
REMARK       I    between atoms: C_2  and  N_24 
REMARK    1  A    between atoms: N_3  and  N_4 
REMARK       I    between atoms: N_4  and  C_5 
REMARK    2  A    between atoms: C_5  and  C_7 
REMARK    3  A    between atoms: C_11  and  S_12 
REMARK    4  A    between atoms: S_12  and  N_15 
REMARK    5  A    between atoms: N_15  and  C_16 
REMARK    6  A    between atoms: N_24  and  C_25 
ROOT
ATOM      1  C   UNL d   1      27.368 -14.514  -5.400  0.00  0.00     0.035 A 
ATOM      2  C   UNL d   1      28.516 -15.199  -5.828  0.00  0.00     0.017 A 
ATOM      3  C   UNL d   1      29.457 -14.562  -6.646  0.00  0.00     0.003 A 
ATOM      4  C   UNL d   1      29.238 -13.251  -7.070  0.00  0.00     0.025 A 
ATOM      5  C   UNL d   1      28.093 -12.563  -6.639  0.00  0.00     0.080 A 
ATOM      6  C   UNL d   1      27.155 -13.195  -5.817  0.00  0.00     0.042 A 
ENDROOT
BRANCH   1   7
ATOM      7  C   UNL d   1      26.473 -15.116  -4.370  0.00  0.00     0.270 C 
ATOM      8  N   UNL d   1      27.063 -15.595  -3.208  0.00  0.00    -0.262 N 
ATOM      9  H   UNL d   1      28.031 -15.434  -2.936  0.00  0.00     0.190 HD
ATOM     10  O   UNL d   1      25.265 -15.208  -4.591  0.00  0.00    -0.266 OA
BRANCH   8  11
ATOM     11  N   UNL d   1      26.233 -16.191  -2.238  0.00  0.00    -0.248 N 
ATOM     12  C   UNL d   1      26.701 -16.492  -0.978  0.00  0.00     0.339 C 
ATOM     13  O   UNL d   1      27.863 -16.263  -0.637  0.00  0.00    -0.245 OA
ATOM     14  N   UNL d   1      25.793 -17.004  -0.077  0.00  0.00    -0.308 N 
ATOM     15  H   UNL d   1      26.135 -17.042   0.878  0.00  0.00     0.170 HD
ATOM     16  H   UNL d   1      25.248 -16.246  -2.481  0.00  0.00     0.192 HD
BRANCH  14  17
ATOM     17  C   UNL d   1      24.491 -17.482  -0.314  0.00  0.00     0.036 A 
ATOM     18  C   UNL d   1      24.230 -18.858  -0.291  0.00  0.00     0.031 A 
ATOM     19  C   UNL d   1      22.926 -19.325  -0.519  0.00  0.00     0.026 A 
ATOM     20  C   UNL d   1      21.889 -18.418  -0.734  0.00  0.00     0.034 A 
ATOM     21 CL   UNL d   1      20.269 -18.970  -0.891  0.00  0.00    -0.084 Cl
ATOM     22  C   UNL d   1      22.155 -17.055  -0.802  0.00  0.00     0.026 A 
ATOM     23  C   UNL d   1      23.456 -16.596  -0.619  0.00  0.00     0.031 A 
ENDBRANCH  14  17
ENDBRANCH   8  11
ENDBRANCH   1   7
BRANCH   5  24
ATOM     24  S   UNL d   1      27.929 -10.862  -7.147  0.00  0.00     0.263 S 
ATOM     25  O   UNL d   1      29.218 -10.475  -7.693  0.00  0.00    -0.200 OA
ATOM     26  O   UNL d   1      26.727 -10.827  -7.943  0.00  0.00    -0.200 OA
BRANCH  24  27
ATOM     27  N   UNL d   1      27.690  -9.956  -5.746  0.00  0.00    -0.281 N 
ATOM     28  H   UNL d   1      27.738  -8.947  -5.743  0.00  0.00     0.179 HD
BRANCH  27  29
ATOM     29  C   UNL d   1      27.525 -10.595  -4.482  0.00  0.00     0.042 A 
ATOM     30  C   UNL d   1      28.650 -11.086  -3.810  0.00  0.00     0.032 A 
ATOM     31  C   UNL d   1      28.496 -11.824  -2.627  0.00  0.00     0.026 A 
ATOM     32  C   UNL d   1      27.223 -12.023  -2.095  0.00  0.00     0.034 A 
ATOM     33 CL   UNL d   1      27.030 -12.817  -0.583  0.00  0.00    -0.084 Cl
ATOM     34  C   UNL d   1      26.103 -11.556  -2.770  0.00  0.00     0.026 A 
ATOM     35  C   UNL d   1      26.256 -10.863  -3.970  0.00  0.00     0.032 A 
ENDBRANCH  27  29
ENDBRANCH  24  27
ENDBRANCH   5  24
TORSDOF 6
ENDMDL
