MODEL 1
REMARK VINA RESULT:   -10.205      0.000      0.000
REMARK INTER + INTRA:         -14.773
REMARK INTER:                 -13.188
REMARK INTRA:                  -1.585
REMARK CONF_INDEPENDENT:        2.983
REMARK UNBOUND:                -1.585
REMARK  10 active torsions:
REMARK  status: ('A' for Active; 'I' for Inactive)
REMARK    1  A    between atoms: O_2  and  C_3 
REMARK    2  A    between atoms: C_6  and  O_7 
REMARK    3  A    between atoms: C_10  and  C_9 
REMARK    4  A    between atoms: C_10  and  N_30 
REMARK    5  A    between atoms: C_10  and  C_11 
REMARK    6  A    between atoms: C_11  and  N_12 
REMARK       I    between atoms: N_12  and  C_13 
REMARK    7  A    between atoms: C_13  and  C_15 
REMARK    8  A    between atoms: C_18  and  S_19 
REMARK    9  A    between atoms: S_19  and  C_20 
REMARK   10  A    between atoms: C_20  and  C_21 
ROOT
ATOM      1  C   UNL d   1      28.688 -13.563   1.030  0.00  0.00     0.161 C 
ENDROOT
BRANCH   1   2
ATOM      2  N   UNL d   1      27.599 -14.411   0.564  0.00  0.00    -0.354 N 
ATOM      3  C   UNL d   1      27.687 -15.447  -0.300  0.00  0.00     0.256 C 
ATOM      4  O   UNL d   1      28.713 -15.663  -0.943  0.00  0.00    -0.268 OA
ATOM      5  H   UNL d   1      26.666 -14.077   0.779  0.00  0.00     0.162 HD
BRANCH   3   6
ATOM      6  C   UNL d   1      26.528 -16.359  -0.380  0.00  0.00     0.090 A 
ATOM      7  C   UNL d   1      26.468 -17.415   0.503  0.00  0.00     0.139 A 
ATOM      8  N   UNL d   1      25.485 -18.345   0.516  0.00  0.00    -0.234 NA
ATOM      9  C   UNL d   1      24.522 -18.204  -0.398  0.00  0.00     0.189 A 
ATOM     10  N   UNL d   1      24.438 -17.169  -1.246  0.00  0.00    -0.210 NA
ATOM     11  C   UNL d   1      25.445 -16.288  -1.227  0.00  0.00     0.146 A 
ATOM     12 CL   UNL d   1      25.190 -15.048  -2.396  0.00  0.00    -0.061 Cl
BRANCH   9  13
ATOM     13  S   UNL d   1      23.275 -19.405  -0.612  0.00  0.00    -0.086 SA
BRANCH  13  14
ATOM     14  C   UNL d   1      21.698 -18.480  -0.841  0.00  0.00     0.121 C 
BRANCH  14  15
ATOM     15  C   UNL d   1      20.543 -19.162  -0.103  0.00  0.00    -0.049 A 
ATOM     16  C   UNL d   1      20.577 -19.325   1.291  0.00  0.00     0.008 A 
ATOM     17  C   UNL d   1      19.604 -20.103   1.938  0.00  0.00     0.001 A 
ATOM     18  C   UNL d   1      18.538 -20.647   1.223  0.00  0.00     0.000 A 
ATOM     19  C   UNL d   1      18.451 -20.437  -0.143  0.00  0.00     0.001 A 
ATOM     20  C   UNL d   1      19.433 -19.695  -0.788  0.00  0.00     0.008 A 
ENDBRANCH  14  15
ENDBRANCH  13  14
ENDBRANCH   9  13
ENDBRANCH   3   6
ENDBRANCH   1   2
BRANCH   1  21
ATOM     21  C   UNL d   1      29.651 -14.438   1.877  0.00  0.00     0.241 C 
BRANCH  21  22
ATOM     22  N   UNL d   1      29.058 -14.582   3.325  0.00  0.00    -0.061 N 
ATOM     23  C   UNL d   1      29.955 -14.612   4.539  0.00  0.00     0.236 C 
ATOM     24  C   UNL d   1      29.207 -14.800   5.835  0.00  0.00     0.028 C 
ATOM     25  C   UNL d   1      28.162 -13.701   5.909  0.00  0.00     0.003 C 
ATOM     26  C   UNL d   1      27.128 -13.991   4.839  0.00  0.00     0.028 C 
ATOM     27  C   UNL d   1      27.750 -13.813   3.462  0.00  0.00     0.236 C 
ATOM     28  H   UNL d   1      28.909 -15.574   3.325  0.00  0.00     0.280 HD
ENDBRANCH  21  22
BRANCH  21  29
ATOM     29  C   UNL d   1      31.095 -13.974   1.928  0.00  0.00     0.010 A 
ATOM     30  C   UNL d   1      32.201 -14.836   1.853  0.00  0.00     0.076 A 
ATOM     31  C   UNL d   1      33.482 -14.236   1.850  0.00  0.00     0.040 A 
ATOM     32  C   UNL d   1      33.677 -12.846   2.003  0.00  0.00     0.039 A 
ATOM     33  C   UNL d   1      32.593 -11.999   2.098  0.00  0.00     0.069 A 
ATOM     34  C   UNL d   1      31.335 -12.568   2.034  0.00  0.00     0.049 A 
BRANCH  30  35
ATOM     35  O   UNL d   1      32.260 -16.207   1.816  0.00  0.00    -0.355 OA
ATOM     36  C   UNL d   1      33.371 -17.050   2.107  0.00  0.00     0.210 C 
ENDBRANCH  30  35
BRANCH  33  37
ATOM     37  O   UNL d   1      32.809 -10.651   2.126  0.00  0.00    -0.356 OA
ATOM     38  C   UNL d   1      33.021 -10.051   3.409  0.00  0.00     0.210 C 
ENDBRANCH  33  37
ENDBRANCH  21  29
ENDBRANCH   1  21
TORSDOF 10
ENDMDL
MODEL 2
REMARK VINA RESULT:   -10.043      0.901      2.167
REMARK INTER + INTRA:         -14.739
REMARK INTER:                 -13.026
REMARK INTRA:                  -1.713
REMARK CONF_INDEPENDENT:        2.983
REMARK UNBOUND:                -1.713
REMARK  10 active torsions:
REMARK  status: ('A' for Active; 'I' for Inactive)
REMARK    1  A    between atoms: O_2  and  C_3 
REMARK    2  A    between atoms: C_6  and  O_7 
REMARK    3  A    between atoms: C_10  and  C_9 
REMARK    4  A    between atoms: C_10  and  N_30 
REMARK    5  A    between atoms: C_10  and  C_11 
REMARK    6  A    between atoms: C_11  and  N_12 
REMARK       I    between atoms: N_12  and  C_13 
REMARK    7  A    between atoms: C_13  and  C_15 
REMARK    8  A    between atoms: C_18  and  S_19 
REMARK    9  A    between atoms: S_19  and  C_20 
REMARK   10  A    between atoms: C_20  and  C_21 
ROOT
ATOM      1  C   UNL d   1      28.956 -13.594   0.990  0.00  0.00     0.161 C 
ENDROOT
BRANCH   1   2
ATOM      2  N   UNL d   1      27.912 -14.473   0.479  0.00  0.00    -0.354 N 
ATOM      3  C   UNL d   1      28.067 -15.731   0.009  0.00  0.00     0.256 C 
ATOM      4  O   UNL d   1      29.181 -16.203  -0.211  0.00  0.00    -0.268 OA
ATOM      5  H   UNL d   1      27.018 -14.029   0.304  0.00  0.00     0.162 HD
BRANCH   3   6
ATOM      6  C   UNL d   1      26.846 -16.546  -0.152  0.00  0.00     0.090 A 
ATOM      7  C   UNL d   1      26.719 -17.687   0.608  0.00  0.00     0.139 A 
ATOM      8  N   UNL d   1      25.672 -18.542   0.535  0.00  0.00    -0.234 NA
ATOM      9  C   UNL d   1      24.714 -18.233  -0.341  0.00  0.00     0.189 A 
ATOM     10  N   UNL d   1      24.695 -17.106  -1.066  0.00  0.00    -0.210 NA
ATOM     11  C   UNL d   1      25.763 -16.304  -0.967  0.00  0.00     0.146 A 
ATOM     12 CL   UNL d   1      25.586 -14.926  -1.985  0.00  0.00    -0.061 Cl
BRANCH   9  13
ATOM     13  S   UNL d   1      23.382 -19.313  -0.666  0.00  0.00    -0.086 SA
BRANCH  13  14
ATOM     14  C   UNL d   1      21.870 -18.263  -0.737  0.00  0.00     0.121 C 
BRANCH  14  15
ATOM     15  C   UNL d   1      20.666 -18.984  -0.123  0.00  0.00    -0.049 A 
ATOM     16  C   UNL d   1      20.651 -19.324   1.240  0.00  0.00     0.008 A 
ATOM     17  C   UNL d   1      19.629 -20.135   1.756  0.00  0.00     0.001 A 
ATOM     18  C   UNL d   1      18.565 -20.538   0.950  0.00  0.00     0.000 A 
ATOM     19  C   UNL d   1      18.528 -20.153  -0.379  0.00  0.00     0.001 A 
ATOM     20  C   UNL d   1      19.558 -19.377  -0.898  0.00  0.00     0.008 A 
ENDBRANCH  14  15
ENDBRANCH  13  14
ENDBRANCH   9  13
ENDBRANCH   3   6
ENDBRANCH   1   2
BRANCH   1  21
ATOM     21  C   UNL d   1      29.876 -14.429   1.922  0.00  0.00     0.241 C 
BRANCH  21  22
ATOM     22  N   UNL d   1      29.177 -14.574   3.321  0.00  0.00    -0.061 N 
ATOM     23  C   UNL d   1      29.975 -14.531   4.602  0.00  0.00     0.236 C 
ATOM     24  C   UNL d   1      29.137 -14.731   5.840  0.00  0.00     0.028 C 
ATOM     25  C   UNL d   1      28.034 -13.688   5.804  0.00  0.00     0.003 C 
ATOM     26  C   UNL d   1      27.105 -14.055   4.664  0.00  0.00     0.028 C 
ATOM     27  C   UNL d   1      27.825 -13.873   3.336  0.00  0.00     0.236 C 
ATOM     28  H   UNL d   1      29.080 -15.572   3.335  0.00  0.00     0.280 HD
ENDBRANCH  21  22
BRANCH  21  29
ATOM     29  C   UNL d   1      31.298 -13.919   2.076  0.00  0.00     0.010 A 
ATOM     30  C   UNL d   1      31.625 -12.599   2.423  0.00  0.00     0.076 A 
ATOM     31  C   UNL d   1      32.999 -12.301   2.589  0.00  0.00     0.040 A 
ATOM     32  C   UNL d   1      34.021 -13.242   2.337  0.00  0.00     0.039 A 
ATOM     33  C   UNL d   1      33.702 -14.535   1.976  0.00  0.00     0.069 A 
ATOM     34  C   UNL d   1      32.361 -14.854   1.877  0.00  0.00     0.049 A 
BRANCH  30  35
ATOM     35  O   UNL d   1      30.823 -11.500   2.602  0.00  0.00    -0.355 OA
ATOM     36  C   UNL d   1      30.814 -10.283   1.861  0.00  0.00     0.210 C 
ENDBRANCH  30  35
BRANCH  33  37
ATOM     37  O   UNL d   1      34.706 -15.453   1.855  0.00  0.00    -0.356 OA
ATOM     38  C   UNL d   1      35.662 -15.517   2.920  0.00  0.00     0.210 C 
ENDBRANCH  33  37
ENDBRANCH  21  29
ENDBRANCH   1  21
TORSDOF 10
ENDMDL
MODEL 3
REMARK VINA RESULT:    -9.890      1.871      3.927
REMARK INTER + INTRA:         -14.527
REMARK INTER:                 -12.873
REMARK INTRA:                  -1.654
REMARK CONF_INDEPENDENT:        2.983
REMARK UNBOUND:                -1.654
REMARK  10 active torsions:
REMARK  status: ('A' for Active; 'I' for Inactive)
REMARK    1  A    between atoms: O_2  and  C_3 
REMARK    2  A    between atoms: C_6  and  O_7 
REMARK    3  A    between atoms: C_10  and  C_9 
REMARK    4  A    between atoms: C_10  and  N_30 
REMARK    5  A    between atoms: C_10  and  C_11 
REMARK    6  A    between atoms: C_11  and  N_12 
REMARK       I    between atoms: N_12  and  C_13 
REMARK    7  A    between atoms: C_13  and  C_15 
REMARK    8  A    between atoms: C_18  and  S_19 
REMARK    9  A    between atoms: S_19  and  C_20 
REMARK   10  A    between atoms: C_20  and  C_21 
ROOT
ATOM      1  C   UNL d   1      30.046 -15.082  -0.786  0.00  0.00     0.161 C 
ENDROOT
BRANCH   1   2
ATOM      2  N   UNL d   1      28.735 -15.668  -0.536  0.00  0.00    -0.354 N 
ATOM      3  C   UNL d   1      27.537 -15.181  -0.933  0.00  0.00     0.256 C 
ATOM      4  O   UNL d   1      27.427 -14.050  -1.406  0.00  0.00    -0.268 OA
ATOM      5  H   UNL d   1      28.717 -16.416   0.147  0.00  0.00     0.162 HD
BRANCH   3   6
ATOM      6  C   UNL d   1      26.378 -16.092  -0.852  0.00  0.00     0.090 A 
ATOM      7  C   UNL d   1      26.412 -17.109   0.077  0.00  0.00     0.139 A 
ATOM      8  N   UNL d   1      25.438 -18.035   0.233  0.00  0.00    -0.234 NA
ATOM      9  C   UNL d   1      24.385 -17.931  -0.581  0.00  0.00     0.189 A 
ATOM     10  N   UNL d   1      24.211 -16.933  -1.459  0.00  0.00    -0.210 NA
ATOM     11  C   UNL d   1      25.213 -16.054  -1.583  0.00  0.00     0.146 A 
ATOM     12 CL   UNL d   1      24.835 -14.865  -2.771  0.00  0.00    -0.061 Cl
BRANCH   9  13
ATOM     13  S   UNL d   1      23.124 -19.137  -0.613  0.00  0.00    -0.086 SA
BRANCH  13  14
ATOM     14  C   UNL d   1      21.528 -18.218  -0.610  0.00  0.00     0.121 C 
BRANCH  14  15
ATOM     15  C   UNL d   1      20.403 -19.062  -0.005  0.00  0.00    -0.049 A 
ATOM     16  C   UNL d   1      20.415 -19.404   1.357  0.00  0.00     0.008 A 
ATOM     17  C   UNL d   1      19.480 -20.319   1.866  0.00  0.00     0.001 A 
ATOM     18  C   UNL d   1      18.470 -20.831   1.053  0.00  0.00     0.000 A 
ATOM     19  C   UNL d   1      18.402 -20.450  -0.277  0.00  0.00     0.001 A 
ATOM     20  C   UNL d   1      19.348 -19.569  -0.788  0.00  0.00     0.008 A 
ENDBRANCH  14  15
ENDBRANCH  13  14
ENDBRANCH   9  13
ENDBRANCH   3   6
ENDBRANCH   1   2
BRANCH   1  21
ATOM     21  C   UNL d   1      30.503 -14.353   0.506  0.00  0.00     0.241 C 
BRANCH  21  22
ATOM     22  N   UNL d   1      31.437 -15.316   1.323  0.00  0.00    -0.061 N 
ATOM     23  C   UNL d   1      31.779 -16.695   0.811  0.00  0.00     0.236 C 
ATOM     24  C   UNL d   1      32.650 -17.488   1.754  0.00  0.00     0.028 C 
ATOM     25  C   UNL d   1      33.883 -16.646   2.034  0.00  0.00     0.003 C 
ATOM     26  C   UNL d   1      33.436 -15.454   2.857  0.00  0.00     0.028 C 
ATOM     27  C   UNL d   1      32.557 -14.546   2.010  0.00  0.00     0.236 C 
ATOM     28  H   UNL d   1      30.760 -15.655   1.981  0.00  0.00     0.280 HD
ENDBRANCH  21  22
BRANCH  21  29
ATOM     29  C   UNL d   1      29.393 -13.802   1.382  0.00  0.00     0.010 A 
ATOM     30  C   UNL d   1      28.579 -12.714   1.028  0.00  0.00     0.076 A 
ATOM     31  C   UNL d   1      27.546 -12.365   1.930  0.00  0.00     0.040 A 
ATOM     32  C   UNL d   1      27.371 -13.004   3.177  0.00  0.00     0.039 A 
ATOM     33  C   UNL d   1      28.183 -14.060   3.537  0.00  0.00     0.069 A 
ATOM     34  C   UNL d   1      29.153 -14.452   2.633  0.00  0.00     0.049 A 
BRANCH  30  35
ATOM     35  O   UNL d   1      28.632 -11.880  -0.061  0.00  0.00    -0.355 OA
ATOM     36  C   UNL d   1      27.873 -10.700  -0.305  0.00  0.00     0.210 C 
ENDBRANCH  30  35
BRANCH  33  37
ATOM     37  O   UNL d   1      27.916 -14.733   4.694  0.00  0.00    -0.356 OA
ATOM     38  C   UNL d   1      28.649 -14.341   5.861  0.00  0.00     0.210 C 
ENDBRANCH  33  37
ENDBRANCH  21  29
ENDBRANCH   1  21
TORSDOF 10
ENDMDL
MODEL 4
REMARK VINA RESULT:    -9.754      2.113      2.929
REMARK INTER + INTRA:         -14.903
REMARK INTER:                 -12.737
REMARK INTRA:                  -2.167
REMARK CONF_INDEPENDENT:        2.983
REMARK UNBOUND:                -2.167
REMARK  10 active torsions:
REMARK  status: ('A' for Active; 'I' for Inactive)
REMARK    1  A    between atoms: O_2  and  C_3 
REMARK    2  A    between atoms: C_6  and  O_7 
REMARK    3  A    between atoms: C_10  and  C_9 
REMARK    4  A    between atoms: C_10  and  N_30 
REMARK    5  A    between atoms: C_10  and  C_11 
REMARK    6  A    between atoms: C_11  and  N_12 
REMARK       I    between atoms: N_12  and  C_13 
REMARK    7  A    between atoms: C_13  and  C_15 
REMARK    8  A    between atoms: C_18  and  S_19 
REMARK    9  A    between atoms: S_19  and  C_20 
REMARK   10  A    between atoms: C_20  and  C_21 
ROOT
ATOM      1  C   UNL d   1      30.014 -15.491   0.503  0.00  0.00     0.161 C 
ENDROOT
BRANCH   1   2
ATOM      2  N   UNL d   1      28.625 -15.686   0.107  0.00  0.00    -0.354 N 
ATOM      3  C   UNL d   1      28.070 -16.818  -0.382  0.00  0.00     0.256 C 
ATOM      4  O   UNL d   1      28.760 -17.777  -0.725  0.00  0.00    -0.268 OA
ATOM      5  H   UNL d   1      28.072 -14.840   0.032  0.00  0.00     0.162 HD
BRANCH   3   6
ATOM      6  C   UNL d   1      26.595 -16.888  -0.411  0.00  0.00     0.090 A 
ATOM      7  C   UNL d   1      25.969 -17.789   0.421  0.00  0.00     0.139 A 
ATOM      8  N   UNL d   1      24.631 -17.983   0.469  0.00  0.00    -0.234 NA
ATOM      9  C   UNL d   1      23.893 -17.235  -0.354  0.00  0.00     0.189 A 
ATOM     10  N   UNL d   1      24.390 -16.271  -1.141  0.00  0.00    -0.210 NA
ATOM     11  C   UNL d   1      25.722 -16.133  -1.162  0.00  0.00     0.146 A 
ATOM     12 CL   UNL d   1      26.186 -14.876  -2.244  0.00  0.00    -0.061 Cl
BRANCH   9  13
ATOM     13  S   UNL d   1      22.173 -17.478  -0.524  0.00  0.00    -0.086 SA
BRANCH  13  14
ATOM     14  C   UNL d   1      21.901 -19.300  -0.490  0.00  0.00     0.121 C 
BRANCH  14  15
ATOM     15  C   UNL d   1      20.592 -19.651   0.223  0.00  0.00    -0.049 A 
ATOM     16  C   UNL d   1      20.497 -19.589   1.622  0.00  0.00     0.008 A 
ATOM     17  C   UNL d   1      19.355 -20.077   2.277  0.00  0.00     0.001 A 
ATOM     18  C   UNL d   1      18.262 -20.545   1.548  0.00  0.00     0.000 A 
ATOM     19  C   UNL d   1      18.312 -20.548   0.165  0.00  0.00     0.001 A 
ATOM     20  C   UNL d   1      19.456 -20.094  -0.482  0.00  0.00     0.008 A 
ENDBRANCH  14  15
ENDBRANCH  13  14
ENDBRANCH   9  13
ENDBRANCH   3   6
ENDBRANCH   1   2
BRANCH   1  21
ATOM     21  C   UNL d   1      30.089 -14.214   1.383  0.00  0.00     0.241 C 
BRANCH  21  22
ATOM     22  N   UNL d   1      29.695 -14.593   2.855  0.00  0.00    -0.061 N 
ATOM     23  C   UNL d   1      30.546 -14.165   4.028  0.00  0.00     0.236 C 
ATOM     24  C   UNL d   1      30.032 -14.661   5.356  0.00  0.00     0.028 C 
ATOM     25  C   UNL d   1      28.592 -14.192   5.479  0.00  0.00     0.003 C 
ATOM     26  C   UNL d   1      27.780 -14.963   4.456  0.00  0.00     0.028 C 
ATOM     27  C   UNL d   1      28.186 -14.539   3.053  0.00  0.00     0.236 C 
ATOM     28  H   UNL d   1      30.039 -15.535   2.862  0.00  0.00     0.280 HD
ENDBRANCH  21  22
BRANCH  21  29
ATOM     29  C   UNL d   1      29.280 -13.026   0.894  0.00  0.00     0.010 A 
ATOM     30  C   UNL d   1      28.767 -12.907  -0.408  0.00  0.00     0.076 A 
ATOM     31  C   UNL d   1      27.978 -11.765  -0.684  0.00  0.00     0.040 A 
ATOM     32  C   UNL d   1      27.772 -10.732   0.255  0.00  0.00     0.039 A 
ATOM     33  C   UNL d   1      28.293 -10.837   1.529  0.00  0.00     0.069 A 
ATOM     34  C   UNL d   1      29.009 -11.980   1.830  0.00  0.00     0.049 A 
BRANCH  30  35
ATOM     35  O   UNL d   1      28.930 -13.714  -1.506  0.00  0.00    -0.355 OA
ATOM     36  C   UNL d   1      29.358 -13.347  -2.814  0.00  0.00     0.210 C 
ENDBRANCH  30  35
BRANCH  33  37
ATOM     37  O   UNL d   1      27.978  -9.880   2.451  0.00  0.00    -0.356 OA
ATOM     38  C   UNL d   1      27.715  -8.561   1.958  0.00  0.00     0.210 C 
ENDBRANCH  33  37
ENDBRANCH  21  29
ENDBRANCH   1  21
TORSDOF 10
ENDMDL
MODEL 5
REMARK VINA RESULT:    -9.668      1.840      3.113
REMARK INTER + INTRA:         -14.588
REMARK INTER:                 -12.651
REMARK INTRA:                  -1.936
REMARK CONF_INDEPENDENT:        2.983
REMARK UNBOUND:                -1.936
REMARK  10 active torsions:
REMARK  status: ('A' for Active; 'I' for Inactive)
REMARK    1  A    between atoms: O_2  and  C_3 
REMARK    2  A    between atoms: C_6  and  O_7 
REMARK    3  A    between atoms: C_10  and  C_9 
REMARK    4  A    between atoms: C_10  and  N_30 
REMARK    5  A    between atoms: C_10  and  C_11 
REMARK    6  A    between atoms: C_11  and  N_12 
REMARK       I    between atoms: N_12  and  C_13 
REMARK    7  A    between atoms: C_13  and  C_15 
REMARK    8  A    between atoms: C_18  and  S_19 
REMARK    9  A    between atoms: S_19  and  C_20 
REMARK   10  A    between atoms: C_20  and  C_21 
ROOT
ATOM      1  C   UNL d   1      30.094 -15.641   0.605  0.00  0.00     0.161 C 
ENDROOT
BRANCH   1   2
ATOM      2  N   UNL d   1      28.687 -15.735   0.237  0.00  0.00    -0.354 N 
ATOM      3  C   UNL d   1      28.116 -16.664  -0.563  0.00  0.00     0.256 C 
ATOM      4  O   UNL d   1      28.794 -17.443  -1.231  0.00  0.00    -0.268 OA
ATOM      5  H   UNL d   1      28.123 -14.925   0.467  0.00  0.00     0.162 HD
BRANCH   3   6
ATOM      6  C   UNL d   1      26.642 -16.760  -0.538  0.00  0.00     0.090 A 
ATOM      7  C   UNL d   1      26.067 -17.774   0.195  0.00  0.00     0.139 A 
ATOM      8  N   UNL d   1      24.736 -18.000   0.275  0.00  0.00    -0.234 NA
ATOM      9  C   UNL d   1      23.951 -17.168  -0.414  0.00  0.00     0.189 A 
ATOM     10  N   UNL d   1      24.398 -16.101  -1.089  0.00  0.00    -0.210 NA
ATOM     11  C   UNL d   1      25.725 -15.934  -1.148  0.00  0.00     0.146 A 
ATOM     12 CL   UNL d   1      26.123 -14.538  -2.077  0.00  0.00    -0.061 Cl
BRANCH   9  13
ATOM     13  S   UNL d   1      22.229 -17.423  -0.542  0.00  0.00    -0.086 SA
BRANCH  13  14
ATOM     14  C   UNL d   1      21.973 -19.247  -0.532  0.00  0.00     0.121 C 
BRANCH  14  15
ATOM     15  C   UNL d   1      20.672 -19.620   0.184  0.00  0.00    -0.049 A 
ATOM     16  C   UNL d   1      20.581 -19.565   1.584  0.00  0.00     0.008 A 
ATOM     17  C   UNL d   1      19.449 -20.072   2.241  0.00  0.00     0.001 A 
ATOM     18  C   UNL d   1      18.360 -20.552   1.514  0.00  0.00     0.000 A 
ATOM     19  C   UNL d   1      18.405 -20.549   0.130  0.00  0.00     0.001 A 
ATOM     20  C   UNL d   1      19.539 -20.076  -0.519  0.00  0.00     0.008 A 
ENDBRANCH  14  15
ENDBRANCH  13  14
ENDBRANCH   9  13
ENDBRANCH   3   6
ENDBRANCH   1   2
BRANCH   1  21
ATOM     21  C   UNL d   1      30.283 -14.362   1.464  0.00  0.00     0.241 C 
BRANCH  21  22
ATOM     22  N   UNL d   1      29.562 -14.571   2.844  0.00  0.00    -0.061 N 
ATOM     23  C   UNL d   1      30.314 -14.445   4.147  0.00  0.00     0.236 C 
ATOM     24  C   UNL d   1      29.465 -14.725   5.362  0.00  0.00     0.028 C 
ATOM     25  C   UNL d   1      28.265 -13.797   5.289  0.00  0.00     0.003 C 
ATOM     26  C   UNL d   1      27.410 -14.258   4.124  0.00  0.00     0.028 C 
ATOM     27  C   UNL d   1      28.147 -14.009   2.816  0.00  0.00     0.236 C 
ATOM     28  H   UNL d   1      29.565 -15.574   2.861  0.00  0.00     0.280 HD
ENDBRANCH  21  22
BRANCH  21  29
ATOM     29  C   UNL d   1      29.847 -13.060   0.817  0.00  0.00     0.010 A 
ATOM     30  C   UNL d   1      29.859 -11.816   1.468  0.00  0.00     0.076 A 
ATOM     31  C   UNL d   1      29.481 -10.688   0.702  0.00  0.00     0.040 A 
ATOM     32  C   UNL d   1      29.021 -10.786  -0.629  0.00  0.00     0.039 A 
ATOM     33  C   UNL d   1      28.987 -12.011  -1.264  0.00  0.00     0.069 A 
ATOM     34  C   UNL d   1      29.419 -13.110  -0.546  0.00  0.00     0.049 A 
BRANCH  30  35
ATOM     35  O   UNL d   1      30.152 -11.496   2.770  0.00  0.00    -0.355 OA
ATOM     36  C   UNL d   1      29.832 -10.301   3.477  0.00  0.00     0.210 C 
ENDBRANCH  30  35
BRANCH  33  37
ATOM     37  O   UNL d   1      28.651 -12.059  -2.587  0.00  0.00    -0.356 OA
ATOM     38  C   UNL d   1      27.427 -11.422  -2.972  0.00  0.00     0.210 C 
ENDBRANCH  33  37
ENDBRANCH  21  29
ENDBRANCH   1  21
TORSDOF 10
ENDMDL
MODEL 6
REMARK VINA RESULT:    -9.599      1.746      3.894
REMARK INTER + INTRA:         -14.624
REMARK INTER:                 -12.582
REMARK INTRA:                  -2.042
REMARK CONF_INDEPENDENT:        2.983
REMARK UNBOUND:                -2.042
REMARK  10 active torsions:
REMARK  status: ('A' for Active; 'I' for Inactive)
REMARK    1  A    between atoms: O_2  and  C_3 
REMARK    2  A    between atoms: C_6  and  O_7 
REMARK    3  A    between atoms: C_10  and  C_9 
REMARK    4  A    between atoms: C_10  and  N_30 
REMARK    5  A    between atoms: C_10  and  C_11 
REMARK    6  A    between atoms: C_11  and  N_12 
REMARK       I    between atoms: N_12  and  C_13 
REMARK    7  A    between atoms: C_13  and  C_15 
REMARK    8  A    between atoms: C_18  and  S_19 
REMARK    9  A    between atoms: S_19  and  C_20 
REMARK   10  A    between atoms: C_20  and  C_21 
ROOT
ATOM      1  C   UNL d   1      30.672 -14.857   1.232  0.00  0.00     0.161 C 
ENDROOT
BRANCH   1   2
ATOM      2  N   UNL d   1      29.321 -15.344   0.984  0.00  0.00    -0.354 N 
ATOM      3  C   UNL d   1      28.700 -15.444  -0.214  0.00  0.00     0.256 C 
ATOM      4  O   UNL d   1      29.174 -14.936  -1.229  0.00  0.00    -0.268 OA
ATOM      5  H   UNL d   1      28.741 -15.455   1.807  0.00  0.00     0.162 HD
BRANCH   3   6
ATOM      6  C   UNL d   1      27.469 -16.258  -0.269  0.00  0.00     0.090 A 
ATOM      7  C   UNL d   1      27.427 -17.427   0.458  0.00  0.00     0.139 A 
ATOM      8  N   UNL d   1      26.380 -18.283   0.468  0.00  0.00    -0.234 NA
ATOM      9  C   UNL d   1      25.330 -17.947  -0.284  0.00  0.00     0.189 A 
ATOM     10  N   UNL d   1      25.231 -16.794  -0.961  0.00  0.00    -0.210 NA
ATOM     11  C   UNL d   1      26.303 -15.992  -0.950  0.00  0.00     0.146 A 
ATOM     12 CL   UNL d   1      26.013 -14.578  -1.892  0.00  0.00    -0.061 Cl
BRANCH   9  13
ATOM     13  S   UNL d   1      23.972 -19.020  -0.501  0.00  0.00    -0.086 SA
BRANCH  13  14
ATOM     14  C   UNL d   1      22.481 -17.947  -0.641  0.00  0.00     0.121 C 
BRANCH  14  15
ATOM     15  C   UNL d   1      21.219 -18.693  -0.198  0.00  0.00    -0.049 A 
ATOM     16  C   UNL d   1      21.028 -19.047   1.147  0.00  0.00     0.008 A 
ATOM     17  C   UNL d   1      19.959 -19.878   1.516  0.00  0.00     0.001 A 
ATOM     18  C   UNL d   1      19.019 -20.290   0.573  0.00  0.00     0.000 A 
ATOM     19  C   UNL d   1      19.153 -19.892  -0.747  0.00  0.00     0.001 A 
ATOM     20  C   UNL d   1      20.230 -19.095  -1.117  0.00  0.00     0.008 A 
ENDBRANCH  14  15
ENDBRANCH  13  14
ENDBRANCH   9  13
ENDBRANCH   3   6
ENDBRANCH   1   2
BRANCH   1  21
ATOM     21  C   UNL d   1      30.585 -13.704   2.268  0.00  0.00     0.241 C 
BRANCH  21  22
ATOM     22  N   UNL d   1      31.996 -13.517   2.932  0.00  0.00    -0.061 N 
ATOM     23  C   UNL d   1      33.229 -14.161   2.345  0.00  0.00     0.236 C 
ATOM     24  C   UNL d   1      34.482 -13.905   3.145  0.00  0.00     0.028 C 
ATOM     25  C   UNL d   1      34.620 -12.399   3.284  0.00  0.00     0.003 C 
ATOM     26  C   UNL d   1      33.499 -11.925   4.187  0.00  0.00     0.028 C 
ATOM     27  C   UNL d   1      32.162 -12.107   3.485  0.00  0.00     0.236 C 
ATOM     28  H   UNL d   1      31.906 -14.196   3.664  0.00  0.00     0.280 HD
ENDBRANCH  21  22
BRANCH  21  29
ATOM     29  C   UNL d   1      29.504 -13.845   3.324  0.00  0.00     0.010 A 
ATOM     30  C   UNL d   1      28.128 -13.845   3.044  0.00  0.00     0.076 A 
ATOM     31  C   UNL d   1      27.251 -14.051   4.136  0.00  0.00     0.040 A 
ATOM     32  C   UNL d   1      27.703 -14.163   5.469  0.00  0.00     0.039 A 
ATOM     33  C   UNL d   1      29.054 -14.142   5.749  0.00  0.00     0.069 A 
ATOM     34  C   UNL d   1      29.922 -14.009   4.681  0.00  0.00     0.049 A 
BRANCH  30  35
ATOM     35  O   UNL d   1      27.459 -13.641   1.863  0.00  0.00    -0.355 OA
ATOM     36  C   UNL d   1      26.247 -12.923   1.649  0.00  0.00     0.210 C 
ENDBRANCH  30  35
BRANCH  33  37
ATOM     37  O   UNL d   1      29.466 -14.372   7.031  0.00  0.00    -0.356 OA
ATOM     38  C   UNL d   1      30.773 -13.908   7.388  0.00  0.00     0.210 C 
ENDBRANCH  33  37
ENDBRANCH  21  29
ENDBRANCH   1  21
TORSDOF 10
ENDMDL
MODEL 7
REMARK VINA RESULT:    -9.405      3.698      6.378
REMARK INTER + INTRA:         -14.347
REMARK INTER:                 -12.388
REMARK INTRA:                  -1.958
REMARK CONF_INDEPENDENT:        2.983
REMARK UNBOUND:                -1.958
REMARK  10 active torsions:
REMARK  status: ('A' for Active; 'I' for Inactive)
REMARK    1  A    between atoms: O_2  and  C_3 
REMARK    2  A    between atoms: C_6  and  O_7 
REMARK    3  A    between atoms: C_10  and  C_9 
REMARK    4  A    between atoms: C_10  and  N_30 
REMARK    5  A    between atoms: C_10  and  C_11 
REMARK    6  A    between atoms: C_11  and  N_12 
REMARK       I    between atoms: N_12  and  C_13 
REMARK    7  A    between atoms: C_13  and  C_15 
REMARK    8  A    between atoms: C_18  and  S_19 
REMARK    9  A    between atoms: S_19  and  C_20 
REMARK   10  A    between atoms: C_20  and  C_21 
ROOT
ATOM      1  C   UNL d   1      29.671 -14.754   5.499  0.00  0.00     0.161 C 
ENDROOT
BRANCH   1   2
ATOM      2  N   UNL d   1      28.993 -14.808   4.211  0.00  0.00    -0.354 N 
ATOM      3  C   UNL d   1      27.896 -14.108   3.840  0.00  0.00     0.256 C 
ATOM      4  O   UNL d   1      27.233 -13.471   4.656  0.00  0.00    -0.268 OA
ATOM      5  H   UNL d   1      29.273 -15.569   3.604  0.00  0.00     0.162 HD
BRANCH   3   6
ATOM      6  C   UNL d   1      27.574 -14.074   2.399  0.00  0.00     0.090 A 
ATOM      7  C   UNL d   1      27.763 -15.222   1.661  0.00  0.00     0.139 A 
ATOM      8  N   UNL d   1      27.545 -15.319   0.329  0.00  0.00    -0.234 NA
ATOM      9  C   UNL d   1      27.116 -14.214  -0.284  0.00  0.00     0.189 A 
ATOM     10  N   UNL d   1      26.818 -13.071   0.350  0.00  0.00    -0.210 NA
ATOM     11  C   UNL d   1      27.069 -13.025   1.664  0.00  0.00     0.146 A 
ATOM     12 CL   UNL d   1      26.658 -11.481   2.308  0.00  0.00    -0.061 Cl
BRANCH   9  13
ATOM     13  S   UNL d   1      26.941 -14.133  -2.018  0.00  0.00    -0.086 SA
BRANCH  13  14
ATOM     14  C   UNL d   1      26.479 -15.829  -2.571  0.00  0.00     0.121 C 
BRANCH  14  15
ATOM     15  C   UNL d   1      25.422 -16.444  -1.650  0.00  0.00    -0.049 A 
ATOM     16  C   UNL d   1      25.733 -17.541  -0.831  0.00  0.00     0.008 A 
ATOM     17  C   UNL d   1      24.721 -18.206  -0.123  0.00  0.00     0.001 A 
ATOM     18  C   UNL d   1      23.408 -17.735  -0.147  0.00  0.00     0.000 A 
ATOM     19  C   UNL d   1      23.097 -16.612  -0.894  0.00  0.00     0.001 A 
ATOM     20  C   UNL d   1      24.094 -15.973  -1.621  0.00  0.00     0.008 A 
ENDBRANCH  14  15
ENDBRANCH  13  14
ENDBRANCH   9  13
ENDBRANCH   3   6
ENDBRANCH   1   2
BRANCH   1  21
ATOM     21  C   UNL d   1      29.640 -13.285   6.000  0.00  0.00     0.241 C 
BRANCH  21  22
ATOM     22  N   UNL d   1      31.055 -12.643   5.765  0.00  0.00    -0.061 N 
ATOM     23  C   UNL d   1      31.346 -11.819   4.534  0.00  0.00     0.236 C 
ATOM     24  C   UNL d   1      32.770 -11.325   4.463  0.00  0.00     0.028 C 
ATOM     25  C   UNL d   1      33.042 -10.567   5.750  0.00  0.00     0.003 C 
ATOM     26  C   UNL d   1      33.058 -11.583   6.876  0.00  0.00     0.028 C 
ATOM     27  C   UNL d   1      31.660 -12.152   7.074  0.00  0.00     0.236 C 
ATOM     28  H   UNL d   1      31.529 -13.455   5.417  0.00  0.00     0.280 HD
ENDBRANCH  21  22
BRANCH  21  29
ATOM     29  C   UNL d   1      29.186 -13.084   7.434  0.00  0.00     0.010 A 
ATOM     30  C   UNL d   1      28.578 -11.911   7.909  0.00  0.00     0.076 A 
ATOM     31  C   UNL d   1      28.155 -11.909   9.259  0.00  0.00     0.040 A 
ATOM     32  C   UNL d   1      28.398 -12.987  10.139  0.00  0.00     0.039 A 
ATOM     33  C   UNL d   1      29.014 -14.133   9.680  0.00  0.00     0.069 A 
ATOM     34  C   UNL d   1      29.371 -14.170   8.345  0.00  0.00     0.049 A 
BRANCH  30  35
ATOM     35  O   UNL d   1      28.345 -10.712   7.282  0.00  0.00    -0.355 OA
ATOM     36  C   UNL d   1      29.279  -9.684   6.969  0.00  0.00     0.210 C 
ENDBRANCH  30  35
BRANCH  33  37
ATOM     37  O   UNL d   1      29.130 -15.202  10.521  0.00  0.00    -0.356 OA
ATOM     38  C   UNL d   1      30.447 -15.722  10.738  0.00  0.00     0.210 C 
ENDBRANCH  33  37
ENDBRANCH  21  29
ENDBRANCH   1  21
TORSDOF 10
ENDMDL
MODEL 8
REMARK VINA RESULT:    -9.212      1.833      3.569
REMARK INTER + INTRA:         -14.704
REMARK INTER:                 -12.195
REMARK INTRA:                  -2.509
REMARK CONF_INDEPENDENT:        2.983
REMARK UNBOUND:                -2.509
REMARK  10 active torsions:
REMARK  status: ('A' for Active; 'I' for Inactive)
REMARK    1  A    between atoms: O_2  and  C_3 
REMARK    2  A    between atoms: C_6  and  O_7 
REMARK    3  A    between atoms: C_10  and  C_9 
REMARK    4  A    between atoms: C_10  and  N_30 
REMARK    5  A    between atoms: C_10  and  C_11 
REMARK    6  A    between atoms: C_11  and  N_12 
REMARK       I    between atoms: N_12  and  C_13 
REMARK    7  A    between atoms: C_13  and  C_15 
REMARK    8  A    between atoms: C_18  and  S_19 
REMARK    9  A    between atoms: S_19  and  C_20 
REMARK   10  A    between atoms: C_20  and  C_21 
ROOT
ATOM      1  C   UNL d   1      30.403 -15.276  -0.749  0.00  0.00     0.161 C 
ENDROOT
BRANCH   1   2
ATOM      2  N   UNL d   1      29.060 -15.799  -0.531  0.00  0.00    -0.354 N 
ATOM      3  C   UNL d   1      27.925 -15.406  -1.151  0.00  0.00     0.256 C 
ATOM      4  O   UNL d   1      27.891 -14.399  -1.856  0.00  0.00    -0.268 OA
ATOM      5  H   UNL d   1      28.951 -16.390   0.285  0.00  0.00     0.162 HD
BRANCH   3   6
ATOM      6  C   UNL d   1      26.744 -16.283  -1.014  0.00  0.00     0.090 A 
ATOM      7  C   UNL d   1      26.616 -17.029   0.137  0.00  0.00     0.139 A 
ATOM      8  N   UNL d   1      25.607 -17.898   0.376  0.00  0.00    -0.234 NA
ATOM      9  C   UNL d   1      24.688 -18.019  -0.584  0.00  0.00     0.189 A 
ATOM     10  N   UNL d   1      24.669 -17.281  -1.702  0.00  0.00    -0.210 NA
ATOM     11  C   UNL d   1      25.700 -16.449  -1.896  0.00  0.00     0.146 A 
ATOM     12 CL   UNL d   1      25.530 -15.607  -3.389  0.00  0.00    -0.061 Cl
BRANCH   9  13
ATOM     13  S   UNL d   1      23.416 -19.211  -0.495  0.00  0.00    -0.086 SA
BRANCH  13  14
ATOM     14  C   UNL d   1      21.828 -18.284  -0.612  0.00  0.00     0.121 C 
BRANCH  14  15
ATOM     15  C   UNL d   1      20.679 -19.073   0.021  0.00  0.00    -0.049 A 
ATOM     16  C   UNL d   1      20.654 -19.325   1.402  0.00  0.00     0.008 A 
ATOM     17  C   UNL d   1      19.696 -20.192   1.947  0.00  0.00     0.001 A 
ATOM     18  C   UNL d   1      18.697 -20.744   1.146  0.00  0.00     0.000 A 
ATOM     19  C   UNL d   1      18.665 -20.450  -0.207  0.00  0.00     0.001 A 
ATOM     20  C   UNL d   1      19.634 -19.617  -0.752  0.00  0.00     0.008 A 
ENDBRANCH  14  15
ENDBRANCH  13  14
ENDBRANCH   9  13
ENDBRANCH   3   6
ENDBRANCH   1   2
BRANCH   1  21
ATOM     21  C   UNL d   1      30.855 -14.554   0.549  0.00  0.00     0.241 C 
BRANCH  21  22
ATOM     22  N   UNL d   1      31.704 -15.555   1.413  0.00  0.00    -0.061 N 
ATOM     23  C   UNL d   1      31.833 -17.008   1.024  0.00  0.00     0.236 C 
ATOM     24  C   UNL d   1      32.649 -17.822   1.997  0.00  0.00     0.028 C 
ATOM     25  C   UNL d   1      33.995 -17.132   2.134  0.00  0.00     0.003 C 
ATOM     26  C   UNL d   1      33.757 -15.820   2.855  0.00  0.00     0.028 C 
ATOM     27  C   UNL d   1      32.954 -14.883   1.965  0.00  0.00     0.236 C 
ATOM     28  H   UNL d   1      31.029 -15.737   2.132  0.00  0.00     0.280 HD
ENDBRANCH  21  22
BRANCH  21  29
ATOM     29  C   UNL d   1      29.748 -13.928   1.377  0.00  0.00     0.010 A 
ATOM     30  C   UNL d   1      29.631 -14.072   2.769  0.00  0.00     0.076 A 
ATOM     31  C   UNL d   1      28.576 -13.371   3.400  0.00  0.00     0.040 A 
ATOM     32  C   UNL d   1      27.616 -12.625   2.682  0.00  0.00     0.039 A 
ATOM     33  C   UNL d   1      27.717 -12.499   1.312  0.00  0.00     0.069 A 
ATOM     34  C   UNL d   1      28.783 -13.125   0.694  0.00  0.00     0.049 A 
BRANCH  30  35
ATOM     35  O   UNL d   1      30.363 -14.827   3.651  0.00  0.00    -0.355 OA
ATOM     36  C   UNL d   1      30.084 -15.102   5.020  0.00  0.00     0.210 C 
ENDBRANCH  30  35
BRANCH  33  37
ATOM     37  O   UNL d   1      26.845 -11.675   0.659  0.00  0.00    -0.356 OA
ATOM     38  C   UNL d   1      27.409 -10.613  -0.119  0.00  0.00     0.210 C 
ENDBRANCH  33  37
ENDBRANCH  21  29
ENDBRANCH   1  21
TORSDOF 10
ENDMDL
MODEL 9
REMARK VINA RESULT:    -8.952      4.533      7.026
REMARK INTER + INTRA:         -14.637
REMARK INTER:                 -11.935
REMARK INTRA:                  -2.703
REMARK CONF_INDEPENDENT:        2.983
REMARK UNBOUND:                -2.703
REMARK  10 active torsions:
REMARK  status: ('A' for Active; 'I' for Inactive)
REMARK    1  A    between atoms: O_2  and  C_3 
REMARK    2  A    between atoms: C_6  and  O_7 
REMARK    3  A    between atoms: C_10  and  C_9 
REMARK    4  A    between atoms: C_10  and  N_30 
REMARK    5  A    between atoms: C_10  and  C_11 
REMARK    6  A    between atoms: C_11  and  N_12 
REMARK       I    between atoms: N_12  and  C_13 
REMARK    7  A    between atoms: C_13  and  C_15 
REMARK    8  A    between atoms: C_18  and  S_19 
REMARK    9  A    between atoms: S_19  and  C_20 
REMARK   10  A    between atoms: C_20  and  C_21 
ROOT
ATOM      1  C   UNL d   1      29.934 -16.629  -2.741  0.00  0.00     0.161 C 
ENDROOT
BRANCH   1   2
ATOM      2  N   UNL d   1      28.642 -16.874  -2.113  0.00  0.00    -0.354 N 
ATOM      3  C   UNL d   1      27.869 -15.973  -1.464  0.00  0.00     0.256 C 
ATOM      4  O   UNL d   1      28.292 -14.855  -1.171  0.00  0.00    -0.268 OA
ATOM      5  H   UNL d   1      28.387 -17.849  -2.009  0.00  0.00     0.162 HD
BRANCH   3   6
ATOM      6  C   UNL d   1      26.469 -16.356  -1.193  0.00  0.00     0.090 A 
ATOM      7  C   UNL d   1      25.470 -15.701  -1.877  0.00  0.00     0.139 A 
ATOM      8  N   UNL d   1      24.147 -15.926  -1.700  0.00  0.00    -0.234 NA
ATOM      9  C   UNL d   1      23.819 -16.852  -0.796  0.00  0.00     0.189 A 
ATOM     10  N   UNL d   1      24.709 -17.607  -0.138  0.00  0.00    -0.210 NA
ATOM     11  C   UNL d   1      26.003 -17.331  -0.339  0.00  0.00     0.146 A 
ATOM     12 CL   UNL d   1      27.001 -18.371   0.604  0.00  0.00    -0.061 Cl
BRANCH   9  13
ATOM     13  S   UNL d   1      22.160 -17.144  -0.339  0.00  0.00    -0.086 SA
BRANCH  13  14
ATOM     14  C   UNL d   1      21.814 -18.908  -0.743  0.00  0.00     0.121 C 
BRANCH  14  15
ATOM     15  C   UNL d   1      20.641 -19.445   0.081  0.00  0.00    -0.049 A 
ATOM     16  C   UNL d   1      20.655 -19.371   1.483  0.00  0.00     0.008 A 
ATOM     17  C   UNL d   1      19.663 -20.019   2.236  0.00  0.00     0.001 A 
ATOM     18  C   UNL d   1      18.600 -20.665   1.607  0.00  0.00     0.000 A 
ATOM     19  C   UNL d   1      18.535 -20.688   0.224  0.00  0.00     0.001 A 
ATOM     20  C   UNL d   1      19.534 -20.074  -0.521  0.00  0.00     0.008 A 
ENDBRANCH  14  15
ENDBRANCH  13  14
ENDBRANCH   9  13
ENDBRANCH   3   6
ENDBRANCH   1   2
BRANCH   1  21
ATOM     21  C   UNL d   1      29.703 -16.453  -4.266  0.00  0.00     0.241 C 
BRANCH  21  22
ATOM     22  N   UNL d   1      31.099 -16.397  -4.983  0.00  0.00    -0.061 N 
ATOM     23  C   UNL d   1      32.345 -16.925  -4.312  0.00  0.00     0.236 C 
ATOM     24  C   UNL d   1      33.595 -16.744  -5.137  0.00  0.00     0.028 C 
ATOM     25  C   UNL d   1      33.337 -17.396  -6.484  0.00  0.00     0.003 C 
ATOM     26  C   UNL d   1      32.297 -16.556  -7.198  0.00  0.00     0.028 C 
ATOM     27  C   UNL d   1      30.963 -16.666  -6.476  0.00  0.00     0.236 C 
ATOM     28  H   UNL d   1      31.323 -15.438  -4.796  0.00  0.00     0.280 HD
ENDBRANCH  21  22
BRANCH  21  29
ATOM     29  C   UNL d   1      28.838 -15.273  -4.671  0.00  0.00     0.010 A 
ATOM     30  C   UNL d   1      29.347 -14.050  -5.138  0.00  0.00     0.076 A 
ATOM     31  C   UNL d   1      28.403 -13.073  -5.536  0.00  0.00     0.040 A 
ATOM     32  C   UNL d   1      27.010 -13.254  -5.398  0.00  0.00     0.039 A 
ATOM     33  C   UNL d   1      26.508 -14.447  -4.919  0.00  0.00     0.069 A 
ATOM     34  C   UNL d   1      27.420 -15.433  -4.591  0.00  0.00     0.049 A 
BRANCH  30  35
ATOM     35  O   UNL d   1      30.642 -13.608  -5.249  0.00  0.00    -0.355 OA
ATOM     36  C   UNL d   1      31.555 -13.284  -4.206  0.00  0.00     0.210 C 
ENDBRANCH  30  35
BRANCH  33  37
ATOM     37  O   UNL d   1      25.156 -14.637  -4.908  0.00  0.00    -0.356 OA
ATOM     38  C   UNL d   1      24.372 -13.700  -4.160  0.00  0.00     0.210 C 
ENDBRANCH  33  37
ENDBRANCH  21  29
ENDBRANCH   1  21
TORSDOF 10
ENDMDL
