MODEL 1
REMARK VINA RESULT:   -10.488      0.000      0.000
REMARK INTER + INTRA:         -14.566
REMARK INTER:                 -13.173
REMARK INTRA:                  -1.393
REMARK CONF_INDEPENDENT:        2.685
REMARK UNBOUND:                -1.393
REMARK  9 active torsions:
REMARK  status: ('A' for Active; 'I' for Inactive)
REMARK    1  A    between atoms: C_2  and  C_3 
REMARK    2  A    between atoms: C_3  and  O_4 
REMARK    3  A    between atoms: O_4  and  C_5 
REMARK    4  A    between atoms: C_8  and  C_9 
REMARK       I    between atoms: C_9  and  N_11 
REMARK    5  A    between atoms: N_11  and  C_12 
REMARK    6  A    between atoms: C_12  and  N_14 
REMARK    7  A    between atoms: N_14  and  C_15 
REMARK    8  A    between atoms: C_18  and  S_19 
REMARK    9  A    between atoms: S_19  and  N_22 
REMARK       I    between atoms: N_22  and  C_23 
REMARK       I    between atoms: C_23  and  N_24 
ROOT
ATOM      1  C   UNL d   1      26.465 -16.695   0.208  0.00  0.00     0.034 A 
ATOM      2  C   UNL d   1      26.099 -17.992   0.589  0.00  0.00     0.031 A 
ATOM      3  C   UNL d   1      24.853 -18.541   0.182  0.00  0.00     0.027 A 
ATOM      4  C   UNL d   1      23.941 -17.775  -0.567  0.00  0.00     0.080 A 
ATOM      5  C   UNL d   1      24.319 -16.506  -0.987  0.00  0.00     0.027 A 
ATOM      6  C   UNL d   1      25.576 -15.999  -0.626  0.00  0.00     0.031 A 
ENDROOT
BRANCH   1   7
ATOM      7  N   UNL d   1      27.694 -16.079   0.658  0.00  0.00    -0.333 N 
ATOM      8  H   UNL d   1      28.442 -16.722   0.893  0.00  0.00     0.168 HD
BRANCH   7   9
ATOM      9  C   UNL d   1      27.767 -14.742   1.141  0.00  0.00     0.179 C 
ATOM     10  S   UNL d   1      27.343 -13.411   0.180  0.00  0.00    -0.040 SA
BRANCH   9  11
ATOM     11  N   UNL d   1      28.176 -14.619   2.498  0.00  0.00    -0.299 N 
ATOM     12  C   UNL d   1      27.580 -13.741   3.443  0.00  0.00     0.257 C 
ATOM     13  O   UNL d   1      26.681 -12.951   3.158  0.00  0.00    -0.267 OA
ATOM     14  H   UNL d   1      28.938 -15.194   2.821  0.00  0.00     0.171 HD
BRANCH  12  15
ATOM     15  C   UNL d   1      28.035 -13.642   4.867  0.00  0.00     0.032 A 
ATOM     16  C   UNL d   1      27.995 -12.355   5.459  0.00  0.00     0.020 A 
ATOM     17  C   UNL d   1      28.534 -12.109   6.724  0.00  0.00     0.038 A 
ATOM     18  C   UNL d   1      29.060 -13.159   7.463  0.00  0.00     0.068 A 
ATOM     19  C   UNL d   1      29.041 -14.450   6.923  0.00  0.00     0.038 A 
ATOM     20  C   UNL d   1      28.538 -14.694   5.627  0.00  0.00     0.020 A 
BRANCH  18  21
ATOM     21  O   UNL d   1      29.454 -12.852   8.736  0.00  0.00    -0.351 OA
BRANCH  21  22
ATOM     22  C   UNL d   1      28.651 -11.878   9.406  0.00  0.00     0.175 C 
BRANCH  22  23
ATOM     23  C   UNL d   1      27.780 -12.596  10.438  0.00  0.00     0.022 C 
ATOM     24  C   UNL d   1      28.115 -14.075  10.504  0.00  0.00     0.007 C 
ENDBRANCH  22  23
ENDBRANCH  21  22
ENDBRANCH  18  21
ENDBRANCH  12  15
ENDBRANCH   9  11
ENDBRANCH   7   9
ENDBRANCH   1   7
BRANCH   4  25
ATOM     25  S   UNL d   1      22.310 -18.396  -0.910  0.00  0.00     0.276 S 
ATOM     26  O   UNL d   1      21.378 -17.288  -0.931  0.00  0.00    -0.200 OA
ATOM     27  O   UNL d   1      22.375 -19.311  -2.020  0.00  0.00    -0.200 OA
BRANCH  25  28
ATOM     28  N   UNL d   1      21.710 -19.341   0.290  0.00  0.00    -0.113 N 
ATOM     29  C   UNL d   1      20.421 -19.665   0.383  0.00  0.00     0.679 C 
ATOM     30  N   UNL d   1      19.466 -19.273  -0.468  0.00  0.00    -0.234 N 
ATOM     31  N   UNL d   1      20.018 -20.450   1.412  0.00  0.00    -0.234 N 
ATOM     32  H   UNL d   1      19.674 -18.692  -1.274  0.00  0.00     0.174 HD
ATOM     33  H   UNL d   1      18.496 -19.544  -0.359  0.00  0.00     0.174 HD
ATOM     34  H   UNL d   1      20.647 -20.812   2.119  0.00  0.00     0.174 HD
ATOM     35  H   UNL d   1      19.044 -20.716   1.518  0.00  0.00     0.174 HD
ATOM     36  H   UNL d   1      22.364 -19.700   0.951  0.00  0.00     0.197 HD
ENDBRANCH  25  28
ENDBRANCH   4  25
TORSDOF 9
ENDMDL
MODEL 2
REMARK VINA RESULT:   -10.169      3.695     10.456
REMARK INTER + INTRA:         -14.252
REMARK INTER:                 -12.854
REMARK INTRA:                  -1.398
REMARK CONF_INDEPENDENT:        2.685
REMARK UNBOUND:                -1.398
REMARK  9 active torsions:
REMARK  status: ('A' for Active; 'I' for Inactive)
REMARK    1  A    between atoms: C_2  and  C_3 
REMARK    2  A    between atoms: C_3  and  O_4 
REMARK    3  A    between atoms: O_4  and  C_5 
REMARK    4  A    between atoms: C_8  and  C_9 
REMARK       I    between atoms: C_9  and  N_11 
REMARK    5  A    between atoms: N_11  and  C_12 
REMARK    6  A    between atoms: C_12  and  N_14 
REMARK    7  A    between atoms: N_14  and  C_15 
REMARK    8  A    between atoms: C_18  and  S_19 
REMARK    9  A    between atoms: S_19  and  N_22 
REMARK       I    between atoms: N_22  and  C_23 
REMARK       I    between atoms: C_23  and  N_24 
ROOT
ATOM      1  C   UNL d   1      28.561 -13.774   3.836  0.00  0.00     0.034 A 
ATOM      2  C   UNL d   1      29.486 -14.653   4.413  0.00  0.00     0.031 A 
ATOM      3  C   UNL d   1      29.708 -14.652   5.816  0.00  0.00     0.027 A 
ATOM      4  C   UNL d   1      29.041 -13.732   6.647  0.00  0.00     0.080 A 
ATOM      5  C   UNL d   1      28.090 -12.890   6.087  0.00  0.00     0.027 A 
ATOM      6  C   UNL d   1      27.840 -12.943   4.707  0.00  0.00     0.031 A 
ENDROOT
BRANCH   1   7
ATOM      7  N   UNL d   1      28.358 -13.701   2.405  0.00  0.00    -0.333 N 
ATOM      8  H   UNL d   1      27.608 -13.088   2.104  0.00  0.00     0.168 HD
BRANCH   7   9
ATOM      9  C   UNL d   1      28.848 -14.679   1.494  0.00  0.00     0.179 C 
ATOM     10  S   UNL d   1      30.466 -14.712   0.990  0.00  0.00    -0.040 SA
BRANCH   9  11
ATOM     11  N   UNL d   1      27.888 -15.645   1.083  0.00  0.00    -0.299 N 
ATOM     12  C   UNL d   1      26.761 -15.366   0.266  0.00  0.00     0.257 C 
ATOM     13  O   UNL d   1      26.471 -14.234  -0.121  0.00  0.00    -0.267 OA
ATOM     14  H   UNL d   1      28.012 -16.599   1.386  0.00  0.00     0.171 HD
BRANCH  12  15
ATOM     15  C   UNL d   1      25.773 -16.412  -0.150  0.00  0.00     0.032 A 
ATOM     16  C   UNL d   1      24.681 -15.976  -0.941  0.00  0.00     0.020 A 
ATOM     17  C   UNL d   1      23.618 -16.825  -1.262  0.00  0.00     0.038 A 
ATOM     18  C   UNL d   1      23.656 -18.154  -0.864  0.00  0.00     0.068 A 
ATOM     19  C   UNL d   1      24.762 -18.619  -0.145  0.00  0.00     0.038 A 
ATOM     20  C   UNL d   1      25.816 -17.754   0.220  0.00  0.00     0.020 A 
BRANCH  18  21
ATOM     21  O   UNL d   1      22.637 -18.942  -1.323  0.00  0.00    -0.351 OA
BRANCH  21  22
ATOM     22  C   UNL d   1      21.670 -19.325  -0.343  0.00  0.00     0.175 C 
BRANCH  22  23
ATOM     23  C   UNL d   1      20.288 -19.311  -0.996  0.00  0.00     0.022 C 
ATOM     24  C   UNL d   1      19.273 -20.054  -0.147  0.00  0.00     0.007 C 
ENDBRANCH  22  23
ENDBRANCH  21  22
ENDBRANCH  18  21
ENDBRANCH  12  15
ENDBRANCH   9  11
ENDBRANCH   7   9
ENDBRANCH   1   7
BRANCH   4  25
ATOM     25  S   UNL d   1      29.463 -13.605   8.371  0.00  0.00     0.276 S 
ATOM     26  O   UNL d   1      30.298 -12.439   8.568  0.00  0.00    -0.200 OA
ATOM     27  O   UNL d   1      28.275 -13.789   9.163  0.00  0.00    -0.200 OA
BRANCH  25  28
ATOM     28  N   UNL d   1      30.428 -14.825   8.895  0.00  0.00    -0.113 N 
ATOM     29  C   UNL d   1      31.758 -14.752   8.889  0.00  0.00     0.679 C 
ATOM     30  N   UNL d   1      32.468 -13.700   8.466  0.00  0.00    -0.234 N 
ATOM     31  N   UNL d   1      32.472 -15.812   9.340  0.00  0.00    -0.234 N 
ATOM     32  H   UNL d   1      32.021 -12.857   8.120  0.00  0.00     0.174 HD
ATOM     33  H   UNL d   1      33.481 -13.688   8.480  0.00  0.00     0.174 HD
ATOM     34  H   UNL d   1      32.048 -16.664   9.689  0.00  0.00     0.174 HD
ATOM     35  H   UNL d   1      33.486 -15.795   9.349  0.00  0.00     0.174 HD
ATOM     36  H   UNL d   1      29.974 -15.636   9.256  0.00  0.00     0.197 HD
ENDBRANCH  25  28
ENDBRANCH   4  25
TORSDOF 9
ENDMDL
MODEL 3
REMARK VINA RESULT:   -10.043      3.404     10.358
REMARK INTER + INTRA:         -14.246
REMARK INTER:                 -12.728
REMARK INTRA:                  -1.518
REMARK CONF_INDEPENDENT:        2.685
REMARK UNBOUND:                -1.518
REMARK  9 active torsions:
REMARK  status: ('A' for Active; 'I' for Inactive)
REMARK    1  A    between atoms: C_2  and  C_3 
REMARK    2  A    between atoms: C_3  and  O_4 
REMARK    3  A    between atoms: O_4  and  C_5 
REMARK    4  A    between atoms: C_8  and  C_9 
REMARK       I    between atoms: C_9  and  N_11 
REMARK    5  A    between atoms: N_11  and  C_12 
REMARK    6  A    between atoms: C_12  and  N_14 
REMARK    7  A    between atoms: N_14  and  C_15 
REMARK    8  A    between atoms: C_18  and  S_19 
REMARK    9  A    between atoms: S_19  and  N_22 
REMARK       I    between atoms: N_22  and  C_23 
REMARK       I    between atoms: C_23  and  N_24 
ROOT
ATOM      1  C   UNL d   1      28.450 -14.459   2.976  0.00  0.00     0.034 A 
ATOM      2  C   UNL d   1      27.397 -13.884   3.698  0.00  0.00     0.031 A 
ATOM      3  C   UNL d   1      27.641 -13.223   4.932  0.00  0.00     0.027 A 
ATOM      4  C   UNL d   1      28.938 -13.178   5.477  0.00  0.00     0.080 A 
ATOM      5  C   UNL d   1      29.992 -13.705   4.744  0.00  0.00     0.027 A 
ATOM      6  C   UNL d   1      29.743 -14.305   3.500  0.00  0.00     0.031 A 
ENDROOT
BRANCH   1   7
ATOM      7  N   UNL d   1      28.231 -15.198   1.752  0.00  0.00    -0.333 N 
ATOM      8  H   UNL d   1      28.805 -16.026   1.635  0.00  0.00     0.168 HD
BRANCH   7   9
ATOM      9  C   UNL d   1      27.595 -14.642   0.606  0.00  0.00     0.179 C 
ATOM     10  S   UNL d   1      28.313 -13.415  -0.318  0.00  0.00    -0.040 SA
BRANCH   9  11
ATOM     11  N   UNL d   1      26.342 -15.229   0.275  0.00  0.00    -0.299 N 
ATOM     12  C   UNL d   1      26.123 -16.623   0.112  0.00  0.00     0.257 C 
ATOM     13  O   UNL d   1      27.020 -17.462   0.184  0.00  0.00    -0.267 OA
ATOM     14  H   UNL d   1      25.548 -14.620   0.150  0.00  0.00     0.171 HD
BRANCH  12  15
ATOM     15  C   UNL d   1      24.786 -17.206  -0.234  0.00  0.00     0.032 A 
ATOM     16  C   UNL d   1      23.748 -16.286  -0.521  0.00  0.00     0.020 A 
ATOM     17  C   UNL d   1      22.426 -16.701  -0.707  0.00  0.00     0.038 A 
ATOM     18  C   UNL d   1      22.122 -18.055  -0.683  0.00  0.00     0.068 A 
ATOM     19  C   UNL d   1      23.149 -18.982  -0.474  0.00  0.00     0.038 A 
ATOM     20  C   UNL d   1      24.477 -18.563  -0.242  0.00  0.00     0.020 A 
BRANCH  18  21
ATOM     21  O   UNL d   1      20.831 -18.380  -0.994  0.00  0.00    -0.351 OA
BRANCH  21  22
ATOM     22  C   UNL d   1      20.431 -19.705  -0.639  0.00  0.00     0.175 C 
BRANCH  22  23
ATOM     23  C   UNL d   1      20.070 -19.719   0.847  0.00  0.00     0.022 C 
ATOM     24  C   UNL d   1      18.763 -20.452   1.087  0.00  0.00     0.007 C 
ENDBRANCH  22  23
ENDBRANCH  21  22
ENDBRANCH  18  21
ENDBRANCH  12  15
ENDBRANCH   9  11
ENDBRANCH   7   9
ENDBRANCH   1   7
BRANCH   4  25
ATOM     25  S   UNL d   1      29.206 -12.519   7.108  0.00  0.00     0.276 S 
ATOM     26  O   UNL d   1      28.938 -11.096   7.093  0.00  0.00    -0.200 OA
ATOM     27  O   UNL d   1      28.561 -13.369   8.074  0.00  0.00    -0.200 OA
BRANCH  25  28
ATOM     28  N   UNL d   1      30.777 -12.579   7.582  0.00  0.00    -0.113 N 
ATOM     29  C   UNL d   1      31.332 -13.664   8.117  0.00  0.00     0.679 C 
ATOM     30  N   UNL d   1      30.701 -14.824   8.334  0.00  0.00    -0.234 N 
ATOM     31  N   UNL d   1      32.637 -13.618   8.480  0.00  0.00    -0.234 N 
ATOM     32  H   UNL d   1      29.725 -14.956   8.086  0.00  0.00     0.174 HD
ATOM     33  H   UNL d   1      31.165 -15.626   8.745  0.00  0.00     0.174 HD
ATOM     34  H   UNL d   1      33.221 -12.798   8.363  0.00  0.00     0.174 HD
ATOM     35  H   UNL d   1      33.096 -14.423   8.893  0.00  0.00     0.174 HD
ATOM     36  H   UNL d   1      31.326 -11.762   7.426  0.00  0.00     0.197 HD
ENDBRANCH  25  28
ENDBRANCH   4  25
TORSDOF 9
ENDMDL
MODEL 4
REMARK VINA RESULT:    -9.893      3.587      9.927
REMARK INTER + INTRA:         -14.272
REMARK INTER:                 -12.578
REMARK INTRA:                  -1.694
REMARK CONF_INDEPENDENT:        2.685
REMARK UNBOUND:                -1.694
REMARK  9 active torsions:
REMARK  status: ('A' for Active; 'I' for Inactive)
REMARK    1  A    between atoms: C_2  and  C_3 
REMARK    2  A    between atoms: C_3  and  O_4 
REMARK    3  A    between atoms: O_4  and  C_5 
REMARK    4  A    between atoms: C_8  and  C_9 
REMARK       I    between atoms: C_9  and  N_11 
REMARK    5  A    between atoms: N_11  and  C_12 
REMARK    6  A    between atoms: C_12  and  N_14 
REMARK    7  A    between atoms: N_14  and  C_15 
REMARK    8  A    between atoms: C_18  and  S_19 
REMARK    9  A    between atoms: S_19  and  N_22 
REMARK       I    between atoms: N_22  and  C_23 
REMARK       I    between atoms: C_23  and  N_24 
ROOT
ATOM      1  C   UNL d   1      28.641 -14.413   0.940  0.00  0.00     0.034 A 
ATOM      2  C   UNL d   1      27.472 -14.294   1.700  0.00  0.00     0.031 A 
ATOM      3  C   UNL d   1      27.538 -14.068   3.101  0.00  0.00     0.027 A 
ATOM      4  C   UNL d   1      28.780 -14.012   3.760  0.00  0.00     0.080 A 
ATOM      5  C   UNL d   1      29.943 -14.083   3.005  0.00  0.00     0.027 A 
ATOM      6  C   UNL d   1      29.861 -14.248   1.614  0.00  0.00     0.031 A 
ENDROOT
BRANCH   1   7
ATOM      7  N   UNL d   1      28.613 -14.710  -0.476  0.00  0.00    -0.333 N 
ATOM      8  H   UNL d   1      28.445 -13.915  -1.083  0.00  0.00     0.168 HD
BRANCH   7   9
ATOM      9  C   UNL d   1      28.416 -16.020  -0.997  0.00  0.00     0.179 C 
ATOM     10  S   UNL d   1      29.710 -17.068  -1.316  0.00  0.00    -0.040 SA
BRANCH   9  11
ATOM     11  N   UNL d   1      27.054 -16.391  -1.181  0.00  0.00    -0.299 N 
ATOM     12  C   UNL d   1      26.278 -17.106  -0.230  0.00  0.00     0.257 C 
ATOM     13  O   UNL d   1      26.732 -17.529   0.832  0.00  0.00    -0.267 OA
ATOM     14  H   UNL d   1      26.600 -16.128  -2.042  0.00  0.00     0.171 HD
BRANCH  12  15
ATOM     15  C   UNL d   1      24.844 -17.476  -0.458  0.00  0.00     0.032 A 
ATOM     16  C   UNL d   1      23.946 -16.411  -0.714  0.00  0.00     0.020 A 
ATOM     17  C   UNL d   1      22.566 -16.612  -0.791  0.00  0.00     0.038 A 
ATOM     18  C   UNL d   1      22.053 -17.898  -0.687  0.00  0.00     0.068 A 
ATOM     19  C   UNL d   1      22.933 -18.971  -0.507  0.00  0.00     0.038 A 
ATOM     20  C   UNL d   1      24.323 -18.765  -0.385  0.00  0.00     0.020 A 
BRANCH  18  21
ATOM     21  O   UNL d   1      20.707 -18.019  -0.895  0.00  0.00    -0.351 OA
BRANCH  21  22
ATOM     22  C   UNL d   1      20.261 -19.325  -1.267  0.00  0.00     0.175 C 
BRANCH  22  23
ATOM     23  C   UNL d   1      19.161 -19.755  -0.297  0.00  0.00     0.022 C 
ATOM     24  C   UNL d   1      19.665 -19.764   1.135  0.00  0.00     0.007 C 
ENDBRANCH  22  23
ENDBRANCH  21  22
ENDBRANCH  18  21
ENDBRANCH  12  15
ENDBRANCH   9  11
ENDBRANCH   7   9
ENDBRANCH   1   7
BRANCH   4  25
ATOM     25  S   UNL d   1      28.855 -13.921   5.536  0.00  0.00     0.276 S 
ATOM     26  O   UNL d   1      28.177 -12.719   5.976  0.00  0.00    -0.200 OA
ATOM     27  O   UNL d   1      28.496 -15.201   6.090  0.00  0.00    -0.200 OA
BRANCH  25  28
ATOM     28  N   UNL d   1      30.376 -13.702   6.111  0.00  0.00    -0.113 N 
ATOM     29  C   UNL d   1      30.629 -13.265   7.344  0.00  0.00     0.679 C 
ATOM     30  N   UNL d   1      29.701 -12.954   8.255  0.00  0.00    -0.234 N 
ATOM     31  N   UNL d   1      31.920 -13.113   7.730  0.00  0.00    -0.234 N 
ATOM     32  H   UNL d   1      28.709 -13.045   8.060  0.00  0.00     0.174 HD
ATOM     33  H   UNL d   1      29.940 -12.624   9.183  0.00  0.00     0.174 HD
ATOM     34  H   UNL d   1      32.710 -13.319   7.131  0.00  0.00     0.174 HD
ATOM     35  H   UNL d   1      32.153 -12.780   8.659  0.00  0.00     0.174 HD
ATOM     36  H   UNL d   1      31.127 -13.941   5.501  0.00  0.00     0.197 HD
ENDBRANCH  25  28
ENDBRANCH   4  25
TORSDOF 9
ENDMDL
MODEL 5
REMARK VINA RESULT:    -9.460      3.269     10.219
REMARK INTER + INTRA:         -13.733
REMARK INTER:                 -12.145
REMARK INTRA:                  -1.588
REMARK CONF_INDEPENDENT:        2.685
REMARK UNBOUND:                -1.588
REMARK  9 active torsions:
REMARK  status: ('A' for Active; 'I' for Inactive)
REMARK    1  A    between atoms: C_2  and  C_3 
REMARK    2  A    between atoms: C_3  and  O_4 
REMARK    3  A    between atoms: O_4  and  C_5 
REMARK    4  A    between atoms: C_8  and  C_9 
REMARK       I    between atoms: C_9  and  N_11 
REMARK    5  A    between atoms: N_11  and  C_12 
REMARK    6  A    between atoms: C_12  and  N_14 
REMARK    7  A    between atoms: N_14  and  C_15 
REMARK    8  A    between atoms: C_18  and  S_19 
REMARK    9  A    between atoms: S_19  and  N_22 
REMARK       I    between atoms: N_22  and  C_23 
REMARK       I    between atoms: C_23  and  N_24 
ROOT
ATOM      1  C   UNL d   1      28.627 -14.485   3.305  0.00  0.00     0.034 A 
ATOM      2  C   UNL d   1      29.888 -14.365   3.903  0.00  0.00     0.031 A 
ATOM      3  C   UNL d   1      30.011 -13.950   5.256  0.00  0.00     0.027 A 
ATOM      4  C   UNL d   1      28.872 -13.602   6.006  0.00  0.00     0.080 A 
ATOM      5  C   UNL d   1      27.618 -13.763   5.433  0.00  0.00     0.027 A 
ATOM      6  C   UNL d   1      27.509 -14.229   4.114  0.00  0.00     0.031 A 
ENDROOT
BRANCH   1   7
ATOM      7  N   UNL d   1      28.467 -14.839   1.911  0.00  0.00    -0.333 N 
ATOM      8  H   UNL d   1      29.209 -15.409   1.519  0.00  0.00     0.168 HD
BRANCH   7   9
ATOM      9  C   UNL d   1      27.598 -14.146   1.022  0.00  0.00     0.179 C 
ATOM     10  S   UNL d   1      27.933 -12.576   0.475  0.00  0.00    -0.040 SA
BRANCH   9  11
ATOM     11  N   UNL d   1      26.461 -14.889   0.598  0.00  0.00    -0.299 N 
ATOM     12  C   UNL d   1      26.480 -16.267   0.257  0.00  0.00     0.257 C 
ATOM     13  O   UNL d   1      27.507 -16.945   0.239  0.00  0.00    -0.267 OA
ATOM     14  H   UNL d   1      25.575 -14.411   0.536  0.00  0.00     0.171 HD
BRANCH  12  15
ATOM     15  C   UNL d   1      25.260 -17.018  -0.183  0.00  0.00     0.032 A 
ATOM     16  C   UNL d   1      24.141 -16.240  -0.570  0.00  0.00     0.020 A 
ATOM     17  C   UNL d   1      22.902 -16.821  -0.853  0.00  0.00     0.038 A 
ATOM     18  C   UNL d   1      22.770 -18.203  -0.828  0.00  0.00     0.068 A 
ATOM     19  C   UNL d   1      23.885 -18.989  -0.519  0.00  0.00     0.038 A 
ATOM     20  C   UNL d   1      25.126 -18.404  -0.190  0.00  0.00     0.020 A 
BRANCH  18  21
ATOM     21  O   UNL d   1      21.559 -18.692  -1.235  0.00  0.00    -0.351 OA
BRANCH  21  22
ATOM     22  C   UNL d   1      20.977 -19.675  -0.377  0.00  0.00     0.175 C 
BRANCH  22  23
ATOM     23  C   UNL d   1      19.477 -19.399  -0.273  0.00  0.00     0.022 C 
ATOM     24  C   UNL d   1      18.799 -20.395   0.651  0.00  0.00     0.007 C 
ENDBRANCH  22  23
ENDBRANCH  21  22
ENDBRANCH  18  21
ENDBRANCH  12  15
ENDBRANCH   9  11
ENDBRANCH   7   9
ENDBRANCH   1   7
BRANCH   4  25
ATOM     25  S   UNL d   1      29.044 -12.902   7.632  0.00  0.00     0.276 S 
ATOM     26  O   UNL d   1      30.452 -12.753   7.936  0.00  0.00    -0.200 OA
ATOM     27  O   UNL d   1      28.151 -11.780   7.761  0.00  0.00    -0.200 OA
BRANCH  25  28
ATOM     28  N   UNL d   1      28.528 -13.902   8.827  0.00  0.00    -0.113 N 
ATOM     29  C   UNL d   1      28.133 -13.462  10.021  0.00  0.00     0.679 C 
ATOM     30  N   UNL d   1      28.105 -12.179  10.397  0.00  0.00    -0.234 N 
ATOM     31  N   UNL d   1      27.725 -14.364  10.946  0.00  0.00    -0.234 N 
ATOM     32  H   UNL d   1      28.383 -11.431   9.769  0.00  0.00     0.174 HD
ATOM     33  H   UNL d   1      27.797 -11.889  11.318  0.00  0.00     0.174 HD
ATOM     34  H   UNL d   1      27.698 -15.363  10.780  0.00  0.00     0.174 HD
ATOM     35  H   UNL d   1      27.420 -14.069  11.868  0.00  0.00     0.174 HD
ATOM     36  H   UNL d   1      28.490 -14.875   8.616  0.00  0.00     0.197 HD
ENDBRANCH  25  28
ENDBRANCH   4  25
TORSDOF 9
ENDMDL
MODEL 6
REMARK VINA RESULT:    -9.389      3.980      9.403
REMARK INTER + INTRA:         -13.721
REMARK INTER:                 -12.073
REMARK INTRA:                  -1.647
REMARK CONF_INDEPENDENT:        2.685
REMARK UNBOUND:                -1.647
REMARK  9 active torsions:
REMARK  status: ('A' for Active; 'I' for Inactive)
REMARK    1  A    between atoms: C_2  and  C_3 
REMARK    2  A    between atoms: C_3  and  O_4 
REMARK    3  A    between atoms: O_4  and  C_5 
REMARK    4  A    between atoms: C_8  and  C_9 
REMARK       I    between atoms: C_9  and  N_11 
REMARK    5  A    between atoms: N_11  and  C_12 
REMARK    6  A    between atoms: C_12  and  N_14 
REMARK    7  A    between atoms: N_14  and  C_15 
REMARK    8  A    between atoms: C_18  and  S_19 
REMARK    9  A    between atoms: S_19  and  N_22 
REMARK       I    between atoms: N_22  and  C_23 
REMARK       I    between atoms: C_23  and  N_24 
ROOT
ATOM      1  C   UNL d   1      27.477 -13.454  -0.036  0.00  0.00     0.034 A 
ATOM      2  C   UNL d   1      27.749 -14.736   0.459  0.00  0.00     0.031 A 
ATOM      3  C   UNL d   1      27.762 -14.983   1.858  0.00  0.00     0.027 A 
ATOM      4  C   UNL d   1      27.554 -13.936   2.774  0.00  0.00     0.080 A 
ATOM      5  C   UNL d   1      27.238 -12.674   2.289  0.00  0.00     0.027 A 
ATOM      6  C   UNL d   1      27.172 -12.458   0.904  0.00  0.00     0.031 A 
ENDROOT
BRANCH   1   7
ATOM      7  N   UNL d   1      27.521 -13.150  -1.450  0.00  0.00    -0.333 N 
ATOM      8  H   UNL d   1      27.881 -12.231  -1.686  0.00  0.00     0.168 HD
BRANCH   7   9
ATOM      9  C   UNL d   1      26.764 -13.857  -2.426  0.00  0.00     0.179 C 
ATOM     10  S   UNL d   1      27.117 -13.764  -4.082  0.00  0.00    -0.040 SA
BRANCH   9  11
ATOM     11  N   UNL d   1      25.728 -14.678  -1.899  0.00  0.00    -0.299 N 
ATOM     12  C   UNL d   1      25.849 -16.072  -1.655  0.00  0.00     0.257 C 
ATOM     13  O   UNL d   1      26.855 -16.722  -1.935  0.00  0.00    -0.267 OA
ATOM     14  H   UNL d   1      24.844 -14.246  -1.678  0.00  0.00     0.171 HD
BRANCH  12  15
ATOM     15  C   UNL d   1      24.736 -16.903  -1.095  0.00  0.00     0.032 A 
ATOM     16  C   UNL d   1      23.442 -16.326  -1.109  0.00  0.00     0.020 A 
ATOM     17  C   UNL d   1      22.355 -16.938  -0.480  0.00  0.00     0.038 A 
ATOM     18  C   UNL d   1      22.517 -18.181   0.116  0.00  0.00     0.068 A 
ATOM     19  C   UNL d   1      23.772 -18.799   0.076  0.00  0.00     0.038 A 
ATOM     20  C   UNL d   1      24.882 -18.163  -0.520  0.00  0.00     0.020 A 
BRANCH  18  21
ATOM     21  O   UNL d   1      21.378 -18.761   0.601  0.00  0.00    -0.351 OA
BRANCH  21  22
ATOM     22  C   UNL d   1      20.869 -19.850  -0.173  0.00  0.00     0.175 C 
BRANCH  22  23
ATOM     23  C   UNL d   1      19.407 -19.560  -0.514  0.00  0.00     0.022 C 
ATOM     24  C   UNL d   1      18.475 -20.499   0.230  0.00  0.00     0.007 C 
ENDBRANCH  22  23
ENDBRANCH  21  22
ENDBRANCH  18  21
ENDBRANCH  12  15
ENDBRANCH   9  11
ENDBRANCH   7   9
ENDBRANCH   1   7
BRANCH   4  25
ATOM     25  S   UNL d   1      27.761 -14.211   4.520  0.00  0.00     0.276 S 
ATOM     26  O   UNL d   1      26.579 -13.744   5.215  0.00  0.00    -0.200 OA
ATOM     27  O   UNL d   1      28.247 -15.549   4.734  0.00  0.00    -0.200 OA
BRANCH  25  28
ATOM     28  N   UNL d   1      28.949 -13.295   5.185  0.00  0.00    -0.113 N 
ATOM     29  C   UNL d   1      30.244 -13.577   5.050  0.00  0.00     0.679 C 
ATOM     30  N   UNL d   1      30.738 -14.617   4.370  0.00  0.00    -0.234 N 
ATOM     31  N   UNL d   1      31.154 -12.762   5.638  0.00  0.00    -0.234 N 
ATOM     32  H   UNL d   1      30.134 -15.276   3.888  0.00  0.00     0.174 HD
ATOM     33  H   UNL d   1      31.733 -14.793   4.293  0.00  0.00     0.174 HD
ATOM     34  H   UNL d   1      30.904 -11.941   6.177  0.00  0.00     0.174 HD
ATOM     35  H   UNL d   1      32.149 -12.945   5.560  0.00  0.00     0.174 HD
ATOM     36  H   UNL d   1      28.664 -12.481   5.685  0.00  0.00     0.197 HD
ENDBRANCH  25  28
ENDBRANCH   4  25
TORSDOF 9
ENDMDL
MODEL 7
REMARK VINA RESULT:    -9.308      1.651      2.271
REMARK INTER + INTRA:         -13.573
REMARK INTER:                 -11.993
REMARK INTRA:                  -1.580
REMARK CONF_INDEPENDENT:        2.685
REMARK UNBOUND:                -1.580
REMARK  9 active torsions:
REMARK  status: ('A' for Active; 'I' for Inactive)
REMARK    1  A    between atoms: C_2  and  C_3 
REMARK    2  A    between atoms: C_3  and  O_4 
REMARK    3  A    between atoms: O_4  and  C_5 
REMARK    4  A    between atoms: C_8  and  C_9 
REMARK       I    between atoms: C_9  and  N_11 
REMARK    5  A    between atoms: N_11  and  C_12 
REMARK    6  A    between atoms: C_12  and  N_14 
REMARK    7  A    between atoms: N_14  and  C_15 
REMARK    8  A    between atoms: C_18  and  S_19 
REMARK    9  A    between atoms: S_19  and  N_22 
REMARK       I    between atoms: N_22  and  C_23 
REMARK       I    between atoms: C_23  and  N_24 
ROOT
ATOM      1  C   UNL d   1      24.656 -16.765  -0.530  0.00  0.00     0.034 A 
ATOM      2  C   UNL d   1      24.604 -18.164  -0.531  0.00  0.00     0.031 A 
ATOM      3  C   UNL d   1      23.368 -18.841  -0.715  0.00  0.00     0.027 A 
ATOM      4  C   UNL d   1      22.167 -18.120  -0.849  0.00  0.00     0.080 A 
ATOM      5  C   UNL d   1      22.220 -16.734  -0.895  0.00  0.00     0.027 A 
ATOM      6  C   UNL d   1      23.455 -16.079  -0.770  0.00  0.00     0.031 A 
ENDROOT
BRANCH   1   7
ATOM      7  N   UNL d   1      25.884 -16.041  -0.279  0.00  0.00    -0.333 N 
ATOM      8  H   UNL d   1      26.032 -15.222  -0.859  0.00  0.00     0.168 HD
BRANCH   7   9
ATOM      9  C   UNL d   1      26.999 -16.604   0.403  0.00  0.00     0.179 C 
ATOM     10  S   UNL d   1      27.761 -18.022  -0.132  0.00  0.00    -0.040 SA
BRANCH   9  11
ATOM     11  N   UNL d   1      27.448 -15.861   1.530  0.00  0.00    -0.299 N 
ATOM     12  C   UNL d   1      27.255 -14.464   1.703  0.00  0.00     0.257 C 
ATOM     13  O   UNL d   1      26.726 -13.745   0.857  0.00  0.00    -0.267 OA
ATOM     14  H   UNL d   1      27.935 -16.353   2.263  0.00  0.00     0.171 HD
BRANCH  12  15
ATOM     15  C   UNL d   1      27.739 -13.716   2.907  0.00  0.00     0.032 A 
ATOM     16  C   UNL d   1      28.155 -14.495   4.015  0.00  0.00     0.020 A 
ATOM     17  C   UNL d   1      28.482 -13.914   5.244  0.00  0.00     0.038 A 
ATOM     18  C   UNL d   1      28.472 -12.532   5.374  0.00  0.00     0.068 A 
ATOM     19  C   UNL d   1      28.134 -11.745   4.268  0.00  0.00     0.038 A 
ATOM     20  C   UNL d   1      27.761 -12.330   3.039  0.00  0.00     0.020 A 
BRANCH  18  21
ATOM     21  O   UNL d   1      28.921 -12.045   6.570  0.00  0.00    -0.351 OA
BRANCH  21  22
ATOM     22  C   UNL d   1      28.166 -12.446   7.716  0.00  0.00     0.175 C 
BRANCH  22  23
ATOM     23  C   UNL d   1      29.121 -12.574   8.903  0.00  0.00     0.022 C 
ATOM     24  C   UNL d   1      28.820 -13.821   9.716  0.00  0.00     0.007 C 
ENDBRANCH  22  23
ENDBRANCH  21  22
ENDBRANCH  18  21
ENDBRANCH  12  15
ENDBRANCH   9  11
ENDBRANCH   7   9
ENDBRANCH   1   7
BRANCH   4  25
ATOM     25  S   UNL d   1      20.605 -18.971  -0.886  0.00  0.00     0.276 S 
ATOM     26  O   UNL d   1      19.536 -17.994  -0.893  0.00  0.00    -0.200 OA
ATOM     27  O   UNL d   1      20.652 -20.002  -1.890  0.00  0.00    -0.200 OA
BRANCH  25  28
ATOM     28  N   UNL d   1      20.297 -19.825   0.481  0.00  0.00    -0.113 N 
ATOM     29  C   UNL d   1      19.141 -20.446   0.703  0.00  0.00     0.679 C 
ATOM     30  N   UNL d   1      18.100 -20.458  -0.137  0.00  0.00    -0.234 N 
ATOM     31  N   UNL d   1      18.978 -21.126   1.865  0.00  0.00    -0.234 N 
ATOM     32  H   UNL d   1      18.132 -19.984  -1.035  0.00  0.00     0.174 HD
ATOM     33  H   UNL d   1      17.237 -20.945   0.074  0.00  0.00     0.174 HD
ATOM     34  H   UNL d   1      19.693 -21.192   2.579  0.00  0.00     0.174 HD
ATOM     35  H   UNL d   1      18.110 -21.609   2.072  0.00  0.00     0.174 HD
ATOM     36  H   UNL d   1      21.036 -19.890   1.147  0.00  0.00     0.197 HD
ENDBRANCH  25  28
ENDBRANCH   4  25
TORSDOF 9
ENDMDL
MODEL 8
REMARK VINA RESULT:    -8.970      4.213     10.127
REMARK INTER + INTRA:         -13.121
REMARK INTER:                 -11.654
REMARK INTRA:                  -1.467
REMARK CONF_INDEPENDENT:        2.685
REMARK UNBOUND:                -1.467
REMARK  9 active torsions:
REMARK  status: ('A' for Active; 'I' for Inactive)
REMARK    1  A    between atoms: C_2  and  C_3 
REMARK    2  A    between atoms: C_3  and  O_4 
REMARK    3  A    between atoms: O_4  and  C_5 
REMARK    4  A    between atoms: C_8  and  C_9 
REMARK       I    between atoms: C_9  and  N_11 
REMARK    5  A    between atoms: N_11  and  C_12 
REMARK    6  A    between atoms: C_12  and  N_14 
REMARK    7  A    between atoms: N_14  and  C_15 
REMARK    8  A    between atoms: C_18  and  S_19 
REMARK    9  A    between atoms: S_19  and  N_22 
REMARK       I    between atoms: N_22  and  C_23 
REMARK       I    between atoms: C_23  and  N_24 
ROOT
ATOM      1  C   UNL d   1      27.943 -13.951   1.737  0.00  0.00     0.034 A 
ATOM      2  C   UNL d   1      27.764 -12.983   0.741  0.00  0.00     0.031 A 
ATOM      3  C   UNL d   1      27.429 -11.645   1.085  0.00  0.00     0.027 A 
ATOM      4  C   UNL d   1      27.221 -11.280   2.428  0.00  0.00     0.080 A 
ATOM      5  C   UNL d   1      27.444 -12.224   3.421  0.00  0.00     0.027 A 
ATOM      6  C   UNL d   1      27.830 -13.527   3.070  0.00  0.00     0.031 A 
ENDROOT
BRANCH   1   7
ATOM      7  N   UNL d   1      28.218 -15.337   1.422  0.00  0.00    -0.333 N 
ATOM      8  H   UNL d   1      28.905 -15.789   2.016  0.00  0.00     0.168 HD
BRANCH   7   9
ATOM      9  C   UNL d   1      27.903 -15.932   0.168  0.00  0.00     0.179 C 
ATOM     10  S   UNL d   1      29.104 -16.450  -0.911  0.00  0.00    -0.040 SA
BRANCH   9  11
ATOM     11  N   UNL d   1      26.512 -16.098  -0.081  0.00  0.00    -0.299 N 
ATOM     12  C   UNL d   1      25.807 -17.322   0.067  0.00  0.00     0.257 C 
ATOM     13  O   UNL d   1      26.351 -18.382   0.372  0.00  0.00    -0.267 OA
ATOM     14  H   UNL d   1      25.982 -15.294  -0.381  0.00  0.00     0.171 HD
BRANCH  12  15
ATOM     15  C   UNL d   1      24.340 -17.458  -0.202  0.00  0.00     0.032 A 
ATOM     16  C   UNL d   1      23.801 -18.766  -0.142  0.00  0.00     0.020 A 
ATOM     17  C   UNL d   1      22.484 -19.040  -0.520  0.00  0.00     0.038 A 
ATOM     18  C   UNL d   1      21.648 -17.999  -0.898  0.00  0.00     0.068 A 
ATOM     19  C   UNL d   1      22.143 -16.690  -0.892  0.00  0.00     0.038 A 
ATOM     20  C   UNL d   1      23.485 -16.416  -0.554  0.00  0.00     0.020 A 
BRANCH  18  21
ATOM     21  O   UNL d   1      20.345 -18.338  -1.134  0.00  0.00    -0.351 OA
BRANCH  21  22
ATOM     22  C   UNL d   1      19.960 -19.639  -0.684  0.00  0.00     0.175 C 
BRANCH  22  23
ATOM     23  C   UNL d   1      19.227 -19.492   0.650  0.00  0.00     0.022 C 
ATOM     24  C   UNL d   1      18.879 -20.848   1.237  0.00  0.00     0.007 C 
ENDBRANCH  22  23
ENDBRANCH  21  22
ENDBRANCH  18  21
ENDBRANCH  12  15
ENDBRANCH   9  11
ENDBRANCH   7   9
ENDBRANCH   1   7
BRANCH   4  25
ATOM     25  S   UNL d   1      26.617  -9.657   2.837  0.00  0.00     0.276 S 
ATOM     26  O   UNL d   1      27.285  -8.681   2.001  0.00  0.00    -0.200 OA
ATOM     27  O   UNL d   1      25.180  -9.691   2.907  0.00  0.00    -0.200 OA
BRANCH  25  28
ATOM     28  N   UNL d   1      27.032  -9.172   4.349  0.00  0.00    -0.113 N 
ATOM     29  C   UNL d   1      28.271  -8.816   4.683  0.00  0.00     0.679 C 
ATOM     30  N   UNL d   1      29.319  -8.806   3.851  0.00  0.00    -0.234 N 
ATOM     31  N   UNL d   1      28.518  -8.432   5.959  0.00  0.00    -0.234 N 
ATOM     32  H   UNL d   1      29.228  -9.068   2.874  0.00  0.00     0.174 HD
ATOM     33  H   UNL d   1      30.246  -8.527   4.149  0.00  0.00     0.174 HD
ATOM     34  H   UNL d   1      27.807  -8.395   6.680  0.00  0.00     0.174 HD
ATOM     35  H   UNL d   1      29.449  -8.156   6.252  0.00  0.00     0.174 HD
ATOM     36  H   UNL d   1      26.299  -9.124   5.023  0.00  0.00     0.197 HD
ENDBRANCH  25  28
ENDBRANCH   4  25
TORSDOF 9
ENDMDL
MODEL 9
REMARK VINA RESULT:    -8.844      6.041      9.976
REMARK INTER + INTRA:         -13.098
REMARK INTER:                 -11.529
REMARK INTRA:                  -1.569
REMARK CONF_INDEPENDENT:        2.685
REMARK UNBOUND:                -1.569
REMARK  9 active torsions:
REMARK  status: ('A' for Active; 'I' for Inactive)
REMARK    1  A    between atoms: C_2  and  C_3 
REMARK    2  A    between atoms: C_3  and  O_4 
REMARK    3  A    between atoms: O_4  and  C_5 
REMARK    4  A    between atoms: C_8  and  C_9 
REMARK       I    between atoms: C_9  and  N_11 
REMARK    5  A    between atoms: N_11  and  C_12 
REMARK    6  A    between atoms: C_12  and  N_14 
REMARK    7  A    between atoms: N_14  and  C_15 
REMARK    8  A    between atoms: C_18  and  S_19 
REMARK    9  A    between atoms: S_19  and  N_22 
REMARK       I    between atoms: N_22  and  C_23 
REMARK       I    between atoms: C_23  and  N_24 
ROOT
ATOM      1  C   UNL d   1      29.698 -17.127  -1.905  0.00  0.00     0.034 A 
ATOM      2  C   UNL d   1      30.745 -17.936  -2.363  0.00  0.00     0.031 A 
ATOM      3  C   UNL d   1      31.199 -17.841  -3.706  0.00  0.00     0.027 A 
ATOM      4  C   UNL d   1      30.571 -16.970  -4.616  0.00  0.00     0.080 A 
ATOM      5  C   UNL d   1      29.564 -16.133  -4.155  0.00  0.00     0.027 A 
ATOM      6  C   UNL d   1      29.166 -16.197  -2.811  0.00  0.00     0.031 A 
ENDROOT
BRANCH   1   7
ATOM      7  N   UNL d   1      29.165 -17.243  -0.565  0.00  0.00    -0.333 N 
ATOM      8  H   UNL d   1      29.227 -18.167  -0.151  0.00  0.00     0.168 HD
BRANCH   7   9
ATOM      9  C   UNL d   1      28.262 -16.301   0.002  0.00  0.00     0.179 C 
ATOM     10  S   UNL d   1      28.793 -14.997   0.948  0.00  0.00    -0.040 SA
BRANCH   9  11
ATOM     11  N   UNL d   1      26.894 -16.513  -0.327  0.00  0.00    -0.299 N 
ATOM     12  C   UNL d   1      26.124 -17.627   0.103  0.00  0.00     0.257 C 
ATOM     13  O   UNL d   1      26.590 -18.556   0.761  0.00  0.00    -0.267 OA
ATOM     14  H   UNL d   1      26.429 -15.827  -0.902  0.00  0.00     0.171 HD
BRANCH  12  15
ATOM     15  C   UNL d   1      24.683 -17.814  -0.260  0.00  0.00     0.032 A 
ATOM     16  C   UNL d   1      23.890 -16.644  -0.338  0.00  0.00     0.020 A 
ATOM     17  C   UNL d   1      22.505 -16.701  -0.518  0.00  0.00     0.038 A 
ATOM     18  C   UNL d   1      21.888 -17.931  -0.699  0.00  0.00     0.068 A 
ATOM     19  C   UNL d   1      22.667 -19.093  -0.699  0.00  0.00     0.038 A 
ATOM     20  C   UNL d   1      24.059 -19.041  -0.473  0.00  0.00     0.020 A 
BRANCH  18  21
ATOM     21  O   UNL d   1      20.552 -17.888  -0.990  0.00  0.00    -0.351 OA
BRANCH  21  22
ATOM     22  C   UNL d   1      19.865 -19.138  -0.895  0.00  0.00     0.175 C 
BRANCH  22  23
ATOM     23  C   UNL d   1      19.497 -19.378   0.569  0.00  0.00     0.022 C 
ATOM     24  C   UNL d   1      19.044 -20.810   0.793  0.00  0.00     0.007 C 
ENDBRANCH  22  23
ENDBRANCH  21  22
ENDBRANCH  18  21
ENDBRANCH  12  15
ENDBRANCH   9  11
ENDBRANCH   7   9
ENDBRANCH   1   7
BRANCH   4  25
ATOM     25  S   UNL d   1      31.015 -16.994  -6.338  0.00  0.00     0.276 S 
ATOM     26  O   UNL d   1      32.440 -16.765  -6.462  0.00  0.00    -0.200 OA
ATOM     27  O   UNL d   1      30.406 -18.137  -6.968  0.00  0.00    -0.200 OA
BRANCH  25  28
ATOM     28  N   UNL d   1      30.380 -15.743  -7.190  0.00  0.00    -0.113 N 
ATOM     29  C   UNL d   1      30.815 -14.490  -7.072  0.00  0.00     0.679 C 
ATOM     30  N   UNL d   1      31.804 -14.092  -6.264  0.00  0.00    -0.234 N 
ATOM     31  N   UNL d   1      30.225 -13.522  -7.816  0.00  0.00    -0.234 N 
ATOM     32  H   UNL d   1      32.310 -14.747  -5.676  0.00  0.00     0.174 HD
ATOM     33  H   UNL d   1      32.102 -13.125  -6.206  0.00  0.00     0.174 HD
ATOM     34  H   UNL d   1      29.469 -13.699  -8.466  0.00  0.00     0.174 HD
ATOM     35  H   UNL d   1      30.527 -12.555  -7.751  0.00  0.00     0.174 HD
ATOM     36  H   UNL d   1      29.655 -15.962  -7.839  0.00  0.00     0.197 HD
ENDBRANCH  25  28
ENDBRANCH   4  25
TORSDOF 9
ENDMDL
