MODEL 1
REMARK VINA RESULT:    -8.313      0.000      0.000
REMARK INTER + INTRA:         -14.917
REMARK INTER:                 -11.296
REMARK INTRA:                  -3.621
REMARK CONF_INDEPENDENT:        2.983
REMARK UNBOUND:                -3.621
REMARK  10 active torsions:
REMARK  status: ('A' for Active; 'I' for Inactive)
REMARK    1  A    between atoms: C_2  and  C_3 
REMARK    2  A    between atoms: C_2  and  C_17 
REMARK    3  A    between atoms: C_3  and  O_4 
REMARK    4  A    between atoms: O_4  and  C_5 
REMARK    5  A    between atoms: C_5  and  C_7 
REMARK    6  A    between atoms: C_12  and  N_13 
REMARK    7  A    between atoms: N_13  and  C_14 
REMARK    8  A    between atoms: C_14  and  C_15 
REMARK    9  A    between atoms: C_15  and  O_16 
REMARK   10  A    between atoms: C_25  and  C_26 
ROOT
ATOM      1  O   UNL d   1      28.826 -17.088  -1.292  0.00  0.00    -0.290 OA
ATOM      2  C   UNL d   1      27.781 -16.532  -0.968  0.00  0.00     0.182 C 
ENDROOT
BRANCH   2   3
ATOM      3  C   UNL d   1      27.463 -16.384   0.544  0.00  0.00     0.262 C 
BRANCH   3   4
ATOM      4  O   UNL d   1      27.987 -15.213   1.175  0.00  0.00    -0.310 OA
BRANCH   4   5
ATOM      5  C   UNL d   1      27.260 -14.086   0.985  0.00  0.00     0.296 C 
ATOM      6  O   UNL d   1      26.624 -13.832  -0.055  0.00  0.00    -0.259 OA
BRANCH   5   7
ATOM      7  C   UNL d   1      27.349 -13.168   2.149  0.00  0.00     0.065 A 
ATOM      8  C   UNL d   1      26.858 -11.874   1.896  0.00  0.00     0.020 A 
ATOM      9  C   UNL d   1      27.033 -10.852   2.827  0.00  0.00     0.001 A 
ATOM     10  C   UNL d   1      27.620 -11.126   4.056  0.00  0.00     0.002 A 
ATOM     11  C   UNL d   1      28.080 -12.411   4.332  0.00  0.00     0.030 A 
ATOM     12  C   UNL d   1      27.976 -13.460   3.399  0.00  0.00     0.044 A 
BRANCH  12  13
ATOM     13  N   UNL d   1      28.687 -14.621   3.771  0.00  0.00    -0.387 N 
ATOM     14  H   UNL d   1      28.547 -15.413   3.150  0.00  0.00     0.159 HD
BRANCH  13  15
ATOM     15  C   UNL d   1      30.026 -14.450   4.229  0.00  0.00     0.146 C 
BRANCH  15  16
ATOM     16  C   UNL d   1      31.121 -14.667   3.220  0.00  0.00     0.183 C 
BRANCH  16  17
ATOM     17  O   UNL d   1      30.495 -14.829   1.939  0.00  0.00    -0.399 OA
ATOM     18  H   UNL d   1      29.948 -15.619   2.042  0.00  0.00     0.209 HD
ENDBRANCH  16  17
ENDBRANCH  15  16
ENDBRANCH  13  15
ENDBRANCH  12  13
ENDBRANCH   5   7
ENDBRANCH   4   5
ENDBRANCH   3   4
ENDBRANCH   2   3
BRANCH   2  19
ATOM     19  C   UNL d   1      26.885 -15.946  -2.030  0.00  0.00     0.029 C 
ATOM     20  C   UNL d   1      27.444 -15.497  -3.165  0.00  0.00     0.003 C 
ATOM     21  C   UNL d   1      28.786 -15.495  -3.656  0.00  0.00     0.014 C 
ATOM     22  C   UNL d   1      26.380 -14.813  -3.922  0.00  0.00     0.040 C 
ATOM     23  C   UNL d   1      29.207 -14.620  -4.558  0.00  0.00     0.001 C 
ATOM     24  C   UNL d   1      28.245 -13.820  -5.258  0.00  0.00     0.002 C 
ATOM     25  C   UNL d   1      26.910 -13.878  -5.008  0.00  0.00     0.030 C 
ATOM     26  N   UNL d   1      25.199 -15.095  -3.453  0.00  0.00    -0.376 N 
ATOM     27  C   UNL d   1      25.336 -15.764  -2.019  0.00  0.00     0.153 C 
ATOM     28  H   UNL d   1      24.393 -14.575  -3.819  0.00  0.00     0.160 HD
BRANCH  27  29
ATOM     29  C   UNL d   1      24.513 -16.643  -0.944  0.00  0.00    -0.031 C 
ATOM     30  C   UNL d   1      24.861 -17.965  -0.548  0.00  0.00     0.009 C 
ATOM     31  C   UNL d   1      23.886 -18.951  -0.148  0.00  0.00     0.001 C 
ATOM     32  C   UNL d   1      22.522 -18.690  -0.169  0.00  0.00     0.000 C 
ATOM     33  C   UNL d   1      22.148 -17.421  -0.519  0.00  0.00     0.001 C 
ATOM     34  C   UNL d   1      23.138 -16.428  -0.763  0.00  0.00     0.009 C 
ENDBRANCH  27  29
ENDBRANCH   2  19
TORSDOF 10
ENDMDL
MODEL 2
REMARK VINA RESULT:    -7.639      3.671      6.760
REMARK INTER + INTRA:         -14.800
REMARK INTER:                 -10.622
REMARK INTRA:                  -4.177
REMARK CONF_INDEPENDENT:        2.983
REMARK UNBOUND:                -4.177
REMARK  10 active torsions:
REMARK  status: ('A' for Active; 'I' for Inactive)
REMARK    1  A    between atoms: C_2  and  C_3 
REMARK    2  A    between atoms: C_2  and  C_17 
REMARK    3  A    between atoms: C_3  and  O_4 
REMARK    4  A    between atoms: O_4  and  C_5 
REMARK    5  A    between atoms: C_5  and  C_7 
REMARK    6  A    between atoms: C_12  and  N_13 
REMARK    7  A    between atoms: N_13  and  C_14 
REMARK    8  A    between atoms: C_14  and  C_15 
REMARK    9  A    between atoms: C_15  and  O_16 
REMARK   10  A    between atoms: C_25  and  C_26 
ROOT
ATOM      1  O   UNL d   1      24.308 -13.853  -4.453  0.00  0.00    -0.290 OA
ATOM      2  C   UNL d   1      25.298 -14.442  -4.032  0.00  0.00     0.182 C 
ENDROOT
BRANCH   2   3
ATOM      3  C   UNL d   1      25.910 -15.573  -4.903  0.00  0.00     0.262 C 
BRANCH   3   4
ATOM      4  O   UNL d   1      26.990 -15.182  -5.754  0.00  0.00    -0.310 OA
BRANCH   4   5
ATOM      5  C   UNL d   1      28.102 -14.757  -5.108  0.00  0.00     0.296 C 
ATOM      6  O   UNL d   1      28.266 -13.595  -4.689  0.00  0.00    -0.259 OA
BRANCH   5   7
ATOM      7  C   UNL d   1      29.123 -15.830  -5.000  0.00  0.00     0.065 A 
ATOM      8  C   UNL d   1      29.192 -16.428  -3.728  0.00  0.00     0.020 A 
ATOM      9  C   UNL d   1      30.213 -17.324  -3.419  0.00  0.00     0.001 A 
ATOM     10  C   UNL d   1      31.124 -17.703  -4.395  0.00  0.00     0.002 A 
ATOM     11  C   UNL d   1      31.047 -17.144  -5.669  0.00  0.00     0.030 A 
ATOM     12  C   UNL d   1      30.066 -16.192  -6.010  0.00  0.00     0.044 A 
BRANCH  12  13
ATOM     13  N   UNL d   1      30.280 -15.586  -7.266  0.00  0.00    -0.387 N 
ATOM     14  H   UNL d   1      29.543 -15.761  -7.944  0.00  0.00     0.159 HD
BRANCH  13  15
ATOM     15  C   UNL d   1      30.795 -14.256  -7.273  0.00  0.00     0.146 C 
BRANCH  15  16
ATOM     16  C   UNL d   1      29.825 -13.155  -7.607  0.00  0.00     0.183 C 
BRANCH  16  17
ATOM     17  O   UNL d   1      28.530 -13.755  -7.751  0.00  0.00    -0.399 OA
ATOM     18  H   UNL d   1      28.134 -13.675  -6.873  0.00  0.00     0.209 HD
ENDBRANCH  16  17
ENDBRANCH  15  16
ENDBRANCH  13  15
ENDBRANCH  12  13
ENDBRANCH   5   7
ENDBRANCH   4   5
ENDBRANCH   3   4
ENDBRANCH   2   3
BRANCH   2  19
ATOM     19  C   UNL d   1      25.933 -14.007  -2.735  0.00  0.00     0.029 C 
ATOM     20  C   UNL d   1      26.249 -12.711  -2.579  0.00  0.00     0.003 C 
ATOM     21  C   UNL d   1      26.059 -11.556  -3.399  0.00  0.00     0.014 C 
ATOM     22  C   UNL d   1      27.018 -12.608  -1.326  0.00  0.00     0.040 C 
ATOM     23  C   UNL d   1      26.826 -10.480  -3.293  0.00  0.00     0.001 C 
ATOM     24  C   UNL d   1      27.700 -10.354  -2.164  0.00  0.00     0.002 C 
ATOM     25  C   UNL d   1      27.821 -11.314  -1.209  0.00  0.00     0.030 C 
ATOM     26  N   UNL d   1      26.910 -13.686  -0.605  0.00  0.00    -0.376 N 
ATOM     27  C   UNL d   1      26.306 -14.863  -1.486  0.00  0.00     0.153 C 
ATOM     28  H   UNL d   1      27.505 -13.779   0.226  0.00  0.00     0.160 HD
BRANCH  27  29
ATOM     29  C   UNL d   1      25.593 -16.305  -1.360  0.00  0.00    -0.031 C 
ATOM     30  C   UNL d   1      24.204 -16.539  -1.560  0.00  0.00     0.009 C 
ATOM     31  C   UNL d   1      23.470 -17.571  -0.869  0.00  0.00     0.001 C 
ATOM     32  C   UNL d   1      24.065 -18.385   0.087  0.00  0.00     0.000 C 
ATOM     33  C   UNL d   1      25.408 -18.209   0.289  0.00  0.00     0.001 C 
ATOM     34  C   UNL d   1      26.134 -17.287  -0.515  0.00  0.00     0.009 C 
ENDBRANCH  27  29
ENDBRANCH   2  19
TORSDOF 10
ENDMDL
MODEL 3
REMARK VINA RESULT:    -7.371      2.947      6.007
REMARK INTER + INTRA:         -15.106
REMARK INTER:                 -10.354
REMARK INTRA:                  -4.752
REMARK CONF_INDEPENDENT:        2.983
REMARK UNBOUND:                -4.752
REMARK  10 active torsions:
REMARK  status: ('A' for Active; 'I' for Inactive)
REMARK    1  A    between atoms: C_2  and  C_3 
REMARK    2  A    between atoms: C_2  and  C_17 
REMARK    3  A    between atoms: C_3  and  O_4 
REMARK    4  A    between atoms: O_4  and  C_5 
REMARK    5  A    between atoms: C_5  and  C_7 
REMARK    6  A    between atoms: C_12  and  N_13 
REMARK    7  A    between atoms: N_13  and  C_14 
REMARK    8  A    between atoms: C_14  and  C_15 
REMARK    9  A    between atoms: C_15  and  O_16 
REMARK   10  A    between atoms: C_25  and  C_26 
ROOT
ATOM      1  O   UNL d   1      28.109 -15.166  -3.391  0.00  0.00    -0.290 OA
ATOM      2  C   UNL d   1      27.501 -15.079  -4.453  0.00  0.00     0.182 C 
ENDROOT
BRANCH   2   3
ATOM      3  C   UNL d   1      26.030 -15.575  -4.505  0.00  0.00     0.262 C 
BRANCH   3   4
ATOM      4  O   UNL d   1      25.116 -14.890  -3.645  0.00  0.00    -0.310 OA
BRANCH   4   5
ATOM      5  C   UNL d   1      25.480 -14.847  -2.341  0.00  0.00     0.296 C 
ATOM      6  O   UNL d   1      26.055 -13.879  -1.808  0.00  0.00    -0.259 OA
BRANCH   5   7
ATOM      7  C   UNL d   1      25.154 -16.111  -1.634  0.00  0.00     0.065 A 
ATOM      8  C   UNL d   1      23.785 -16.273  -1.353  0.00  0.00     0.020 A 
ATOM      9  C   UNL d   1      23.343 -17.318  -0.544  0.00  0.00     0.001 A 
ATOM     10  C   UNL d   1      24.247 -18.262  -0.076  0.00  0.00     0.002 A 
ATOM     11  C   UNL d   1      25.601 -18.133  -0.374  0.00  0.00     0.030 A 
ATOM     12  C   UNL d   1      26.099 -17.062  -1.141  0.00  0.00     0.044 A 
BRANCH  12  13
ATOM     13  N   UNL d   1      27.508 -16.982  -1.153  0.00  0.00    -0.387 N 
ATOM     14  H   UNL d   1      27.889 -16.450  -1.930  0.00  0.00     0.159 HD
BRANCH  13  15
ATOM     15  C   UNL d   1      28.163 -16.769   0.095  0.00  0.00     0.146 C 
BRANCH  15  16
ATOM     16  C   UNL d   1      28.893 -15.464   0.263  0.00  0.00     0.183 C 
BRANCH  16  17
ATOM     17  O   UNL d   1      28.865 -14.792  -1.004  0.00  0.00    -0.399 OA
ATOM     18  H   UNL d   1      27.934 -14.816  -1.263  0.00  0.00     0.209 HD
ENDBRANCH  16  17
ENDBRANCH  15  16
ENDBRANCH  13  15
ENDBRANCH  12  13
ENDBRANCH   5   7
ENDBRANCH   4   5
ENDBRANCH   3   4
ENDBRANCH   2   3
BRANCH   2  19
ATOM     19  C   UNL d   1      28.162 -14.428  -5.643  0.00  0.00     0.029 C 
ATOM     20  C   UNL d   1      27.772 -13.193  -5.997  0.00  0.00     0.003 C 
ATOM     21  C   UNL d   1      26.844 -12.264  -5.432  0.00  0.00     0.014 C 
ATOM     22  C   UNL d   1      28.430 -12.891  -7.280  0.00  0.00     0.040 C 
ATOM     23  C   UNL d   1      26.264 -11.316  -6.154  0.00  0.00     0.001 C 
ATOM     24  C   UNL d   1      26.762 -11.037  -7.470  0.00  0.00     0.002 C 
ATOM     25  C   UNL d   1      27.779 -11.736  -8.041  0.00  0.00     0.030 C 
ATOM     26  N   UNL d   1      29.392 -13.728  -7.537  0.00  0.00    -0.376 N 
ATOM     27  C   UNL d   1      29.277 -14.989  -6.577  0.00  0.00     0.153 C 
ATOM     28  H   UNL d   1      29.835 -13.693  -8.463  0.00  0.00     0.160 HD
BRANCH  27  29
ATOM     29  C   UNL d   1      30.130 -16.238  -6.014  0.00  0.00    -0.031 C 
ATOM     30  C   UNL d   1      30.405 -17.424  -6.751  0.00  0.00     0.009 C 
ATOM     31  C   UNL d   1      30.563 -18.718  -6.132  0.00  0.00     0.001 C 
ATOM     32  C   UNL d   1      30.406 -18.906  -4.766  0.00  0.00     0.000 C 
ATOM     33  C   UNL d   1      30.167 -17.784  -4.018  0.00  0.00     0.001 C 
ATOM     34  C   UNL d   1      30.166 -16.503  -4.636  0.00  0.00     0.009 C 
ENDBRANCH  27  29
ENDBRANCH   2  19
TORSDOF 10
ENDMDL
MODEL 4
REMARK VINA RESULT:    -7.227      3.961      7.470
REMARK INTER + INTRA:         -14.748
REMARK INTER:                 -10.210
REMARK INTRA:                  -4.538
REMARK CONF_INDEPENDENT:        2.983
REMARK UNBOUND:                -4.538
REMARK  10 active torsions:
REMARK  status: ('A' for Active; 'I' for Inactive)
REMARK    1  A    between atoms: C_2  and  C_3 
REMARK    2  A    between atoms: C_2  and  C_17 
REMARK    3  A    between atoms: C_3  and  O_4 
REMARK    4  A    between atoms: O_4  and  C_5 
REMARK    5  A    between atoms: C_5  and  C_7 
REMARK    6  A    between atoms: C_12  and  N_13 
REMARK    7  A    between atoms: N_13  and  C_14 
REMARK    8  A    between atoms: C_14  and  C_15 
REMARK    9  A    between atoms: C_15  and  O_16 
REMARK   10  A    between atoms: C_25  and  C_26 
ROOT
ATOM      1  O   UNL d   1      25.518 -15.389  -4.820  0.00  0.00    -0.290 OA
ATOM      2  C   UNL d   1      25.531 -15.094  -3.629  0.00  0.00     0.182 C 
ENDROOT
BRANCH   2   3
ATOM      3  C   UNL d   1      24.675 -13.887  -3.158  0.00  0.00     0.262 C 
BRANCH   3   4
ATOM      4  O   UNL d   1      25.224 -12.596  -3.429  0.00  0.00    -0.310 OA
BRANCH   4   5
ATOM      5  C   UNL d   1      26.534 -12.454  -3.113  0.00  0.00     0.296 C 
ATOM      6  O   UNL d   1      26.977 -12.462  -1.949  0.00  0.00    -0.259 OA
BRANCH   5   7
ATOM      7  C   UNL d   1      27.373 -12.240  -4.319  0.00  0.00     0.065 A 
ATOM      8  C   UNL d   1      28.752 -12.405  -4.094  0.00  0.00     0.020 A 
ATOM      9  C   UNL d   1      29.679 -12.068  -5.078  0.00  0.00     0.001 A 
ATOM     10  C   UNL d   1      29.242 -11.647  -6.327  0.00  0.00     0.002 A 
ATOM     11  C   UNL d   1      27.878 -11.512  -6.575  0.00  0.00     0.030 A 
ATOM     12  C   UNL d   1      26.908 -11.786  -5.592  0.00  0.00     0.044 A 
BRANCH  12  13
ATOM     13  N   UNL d   1      25.605 -11.386  -5.956  0.00  0.00    -0.387 N 
ATOM     14  H   UNL d   1      24.869 -11.802  -5.392  0.00  0.00     0.159 HD
BRANCH  13  15
ATOM     15  C   UNL d   1      25.407 -10.012  -6.278  0.00  0.00     0.146 C 
BRANCH  15  16
ATOM     16  C   UNL d   1      25.151  -9.076  -5.128  0.00  0.00     0.183 C 
BRANCH  16  17
ATOM     17  O   UNL d   1      25.154  -9.862  -3.928  0.00  0.00    -0.399 OA
ATOM     18  H   UNL d   1      24.716 -10.685  -4.184  0.00  0.00     0.209 HD
ENDBRANCH  16  17
ENDBRANCH  15  16
ENDBRANCH  13  15
ENDBRANCH  12  13
ENDBRANCH   5   7
ENDBRANCH   4   5
ENDBRANCH   3   4
ENDBRANCH   2   3
BRANCH   2  19
ATOM     19  C   UNL d   1      26.304 -15.948  -2.655  0.00  0.00     0.029 C 
ATOM     20  C   UNL d   1      25.620 -16.741  -1.814  0.00  0.00     0.003 C 
ATOM     21  C   UNL d   1      24.228 -17.023  -1.655  0.00  0.00     0.014 C 
ATOM     22  C   UNL d   1      26.599 -17.300  -0.865  0.00  0.00     0.040 C 
ATOM     23  C   UNL d   1      23.721 -17.455  -0.510  0.00  0.00     0.001 C 
ATOM     24  C   UNL d   1      24.609 -17.904   0.522  0.00  0.00     0.002 C 
ATOM     25  C   UNL d   1      25.962 -17.863   0.405  0.00  0.00     0.030 C 
ATOM     26  N   UNL d   1      27.821 -17.128  -1.277  0.00  0.00    -0.376 N 
ATOM     27  C   UNL d   1      27.846 -16.060  -2.453  0.00  0.00     0.153 C 
ATOM     28  H   UNL d   1      28.589 -17.360  -0.636  0.00  0.00     0.160 HD
BRANCH  27  29
ATOM     29  C   UNL d   1      28.773 -15.521  -3.660  0.00  0.00    -0.031 C 
ATOM     30  C   UNL d   1      28.369 -15.461  -5.022  0.00  0.00     0.009 C 
ATOM     31  C   UNL d   1      29.286 -15.614  -6.125  0.00  0.00     0.001 C 
ATOM     32  C   UNL d   1      30.634 -15.883  -5.930  0.00  0.00     0.000 C 
ATOM     33  C   UNL d   1      31.069 -15.922  -4.632  0.00  0.00     0.001 C 
ATOM     34  C   UNL d   1      30.171 -15.619  -3.572  0.00  0.00     0.009 C 
ENDBRANCH  27  29
ENDBRANCH   2  19
TORSDOF 10
ENDMDL
MODEL 5
REMARK VINA RESULT:    -7.099      2.897      5.140
REMARK INTER + INTRA:         -14.891
REMARK INTER:                 -10.082
REMARK INTRA:                  -4.809
REMARK CONF_INDEPENDENT:        2.983
REMARK UNBOUND:                -4.809
REMARK  10 active torsions:
REMARK  status: ('A' for Active; 'I' for Inactive)
REMARK    1  A    between atoms: C_2  and  C_3 
REMARK    2  A    between atoms: C_2  and  C_17 
REMARK    3  A    between atoms: C_3  and  O_4 
REMARK    4  A    between atoms: O_4  and  C_5 
REMARK    5  A    between atoms: C_5  and  C_7 
REMARK    6  A    between atoms: C_12  and  N_13 
REMARK    7  A    between atoms: N_13  and  C_14 
REMARK    8  A    between atoms: C_14  and  C_15 
REMARK    9  A    between atoms: C_15  and  O_16 
REMARK   10  A    between atoms: C_25  and  C_26 
ROOT
ATOM      1  O   UNL d   1      24.093 -13.936  -4.249  0.00  0.00    -0.290 OA
ATOM      2  C   UNL d   1      25.161 -14.475  -3.979  0.00  0.00     0.182 C 
ENDROOT
BRANCH   2   3
ATOM      3  C   UNL d   1      25.781 -15.448  -5.019  0.00  0.00     0.262 C 
BRANCH   3   4
ATOM      4  O   UNL d   1      27.116 -15.878  -4.744  0.00  0.00    -0.310 OA
BRANCH   4   5
ATOM      5  C   UNL d   1      28.083 -15.200  -5.406  0.00  0.00     0.296 C 
ATOM      6  O   UNL d   1      28.207 -15.188  -6.645  0.00  0.00    -0.259 OA
BRANCH   5   7
ATOM      7  C   UNL d   1      29.009 -14.507  -4.473  0.00  0.00     0.065 A 
ATOM      8  C   UNL d   1      29.765 -13.482  -5.072  0.00  0.00     0.020 A 
ATOM      9  C   UNL d   1      30.798 -12.860  -4.374  0.00  0.00     0.001 A 
ATOM     10  C   UNL d   1      31.034 -13.188  -3.046  0.00  0.00     0.002 A 
ATOM     11  C   UNL d   1      30.270 -14.176  -2.430  0.00  0.00     0.030 A 
ATOM     12  C   UNL d   1      29.254 -14.871  -3.114  0.00  0.00     0.044 A 
BRANCH  12  13
ATOM     13  N   UNL d   1      28.743 -15.975  -2.397  0.00  0.00    -0.387 N 
ATOM     14  H   UNL d   1      28.165 -16.600  -2.953  0.00  0.00     0.159 HD
BRANCH  13  15
ATOM     15  C   UNL d   1      29.622 -16.626  -1.484  0.00  0.00     0.146 C 
BRANCH  15  16
ATOM     16  C   UNL d   1      29.043 -17.023  -0.152  0.00  0.00     0.183 C 
BRANCH  16  17
ATOM     17  O   UNL d   1      28.806 -15.816   0.587  0.00  0.00    -0.399 OA
ATOM     18  H   UNL d   1      29.283 -15.950   1.417  0.00  0.00     0.209 HD
ENDBRANCH  16  17
ENDBRANCH  15  16
ENDBRANCH  13  15
ENDBRANCH  12  13
ENDBRANCH   5   7
ENDBRANCH   4   5
ENDBRANCH   3   4
ENDBRANCH   2   3
BRANCH   2  19
ATOM     19  C   UNL d   1      25.874 -14.125  -2.696  0.00  0.00     0.029 C 
ATOM     20  C   UNL d   1      26.337 -12.874  -2.541  0.00  0.00     0.003 C 
ATOM     21  C   UNL d   1      26.257 -11.698  -3.348  0.00  0.00     0.014 C 
ATOM     22  C   UNL d   1      27.143 -12.869  -1.307  0.00  0.00     0.040 C 
ATOM     23  C   UNL d   1      27.142 -10.716  -3.256  0.00  0.00     0.001 C 
ATOM     24  C   UNL d   1      28.053 -10.697  -2.149  0.00  0.00     0.002 C 
ATOM     25  C   UNL d   1      28.090 -11.673  -1.204  0.00  0.00     0.030 C 
ATOM     26  N   UNL d   1      26.933 -13.934  -0.591  0.00  0.00    -0.376 N 
ATOM     27  C   UNL d   1      26.180 -15.028  -1.462  0.00  0.00     0.153 C 
ATOM     28  H   UNL d   1      27.535 -14.100   0.225  0.00  0.00     0.160 HD
BRANCH  27  29
ATOM     29  C   UNL d   1      25.313 -16.383  -1.327  0.00  0.00    -0.031 C 
ATOM     30  C   UNL d   1      23.900 -16.455  -1.474  0.00  0.00     0.009 C 
ATOM     31  C   UNL d   1      23.080 -17.409  -0.768  0.00  0.00     0.001 C 
ATOM     32  C   UNL d   1      23.614 -18.301   0.153  0.00  0.00     0.000 C 
ATOM     33  C   UNL d   1      24.975 -18.281   0.304  0.00  0.00     0.001 C 
ATOM     34  C   UNL d   1      25.771 -17.434  -0.516  0.00  0.00     0.009 C 
ENDBRANCH  27  29
ENDBRANCH   2  19
TORSDOF 10
ENDMDL
MODEL 6
REMARK VINA RESULT:    -7.040      3.477      5.980
REMARK INTER + INTRA:         -15.164
REMARK INTER:                 -10.023
REMARK INTRA:                  -5.141
REMARK CONF_INDEPENDENT:        2.983
REMARK UNBOUND:                -5.141
REMARK  10 active torsions:
REMARK  status: ('A' for Active; 'I' for Inactive)
REMARK    1  A    between atoms: C_2  and  C_3 
REMARK    2  A    between atoms: C_2  and  C_17 
REMARK    3  A    between atoms: C_3  and  O_4 
REMARK    4  A    between atoms: O_4  and  C_5 
REMARK    5  A    between atoms: C_5  and  C_7 
REMARK    6  A    between atoms: C_12  and  N_13 
REMARK    7  A    between atoms: N_13  and  C_14 
REMARK    8  A    between atoms: C_14  and  C_15 
REMARK    9  A    between atoms: C_15  and  O_16 
REMARK   10  A    between atoms: C_25  and  C_26 
ROOT
ATOM      1  O   UNL d   1      26.004 -13.451  -1.483  0.00  0.00    -0.290 OA
ATOM      2  C   UNL d   1      25.908 -14.621  -1.840  0.00  0.00     0.182 C 
ENDROOT
BRANCH   2   3
ATOM      3  C   UNL d   1      24.856 -14.978  -2.925  0.00  0.00     0.262 C 
BRANCH   3   4
ATOM      4  O   UNL d   1      25.109 -14.450  -4.230  0.00  0.00    -0.310 OA
BRANCH   4   5
ATOM      5  C   UNL d   1      25.888 -15.226  -5.020  0.00  0.00     0.296 C 
ATOM      6  O   UNL d   1      25.532 -16.322  -5.492  0.00  0.00    -0.259 OA
BRANCH   5   7
ATOM      7  C   UNL d   1      27.236 -14.635  -5.218  0.00  0.00     0.065 A 
ATOM      8  C   UNL d   1      28.285 -15.571  -5.166  0.00  0.00     0.020 A 
ATOM      9  C   UNL d   1      29.613 -15.151  -5.158  0.00  0.00     0.001 A 
ATOM     10  C   UNL d   1      29.915 -13.802  -5.291  0.00  0.00     0.002 A 
ATOM     11  C   UNL d   1      28.887 -12.867  -5.378  0.00  0.00     0.030 A 
ATOM     12  C   UNL d   1      27.529 -13.242  -5.332  0.00  0.00     0.044 A 
BRANCH  12  13
ATOM     13  N   UNL d   1      26.645 -12.148  -5.216  0.00  0.00    -0.387 N 
ATOM     14  H   UNL d   1      25.666 -12.410  -5.144  0.00  0.00     0.159 HD
BRANCH  13  15
ATOM     15  C   UNL d   1      27.040 -11.074  -4.366  0.00  0.00     0.146 C 
BRANCH  15  16
ATOM     16  C   UNL d   1      26.063 -10.659  -3.299  0.00  0.00     0.183 C 
BRANCH  16  17
ATOM     17  O   UNL d   1      25.156 -11.753  -3.102  0.00  0.00    -0.399 OA
ATOM     18  H   UNL d   1      25.636 -12.521  -3.438  0.00  0.00     0.209 HD
ENDBRANCH  16  17
ENDBRANCH  15  16
ENDBRANCH  13  15
ENDBRANCH  12  13
ENDBRANCH   5   7
ENDBRANCH   4   5
ENDBRANCH   3   4
ENDBRANCH   2   3
BRANCH   2  19
ATOM     19  C   UNL d   1      26.854 -15.654  -1.281  0.00  0.00     0.029 C 
ATOM     20  C   UNL d   1      28.166 -15.372  -1.252  0.00  0.00     0.003 C 
ATOM     21  C   UNL d   1      28.923 -14.212  -1.604  0.00  0.00     0.014 C 
ATOM     22  C   UNL d   1      28.858 -16.609  -0.848  0.00  0.00     0.040 C 
ATOM     23  C   UNL d   1      30.203 -14.278  -1.939  0.00  0.00     0.001 C 
ATOM     24  C   UNL d   1      30.928 -15.491  -1.695  0.00  0.00     0.002 C 
ATOM     25  C   UNL d   1      30.351 -16.607  -1.177  0.00  0.00     0.030 C 
ATOM     26  N   UNL d   1      28.031 -17.486  -0.358  0.00  0.00    -0.376 N 
ATOM     27  C   UNL d   1      26.538 -17.070  -0.709  0.00  0.00     0.153 C 
ATOM     28  H   UNL d   1      28.380 -18.432  -0.164  0.00  0.00     0.160 HD
BRANCH  27  29
ATOM     29  C   UNL d   1      25.008 -17.351  -0.280  0.00  0.00    -0.031 C 
ATOM     30  C   UNL d   1      24.376 -18.624  -0.333  0.00  0.00     0.009 C 
ATOM     31  C   UNL d   1      22.965 -18.795  -0.584  0.00  0.00     0.001 C 
ATOM     32  C   UNL d   1      22.127 -17.719  -0.843  0.00  0.00     0.000 C 
ATOM     33  C   UNL d   1      22.692 -16.474  -0.775  0.00  0.00     0.001 C 
ATOM     34  C   UNL d   1      24.050 -16.329  -0.378  0.00  0.00     0.009 C 
ENDBRANCH  27  29
ENDBRANCH   2  19
TORSDOF 10
ENDMDL
MODEL 7
REMARK VINA RESULT:    -6.955      3.649      6.449
REMARK INTER + INTRA:         -15.290
REMARK INTER:                  -9.938
REMARK INTRA:                  -5.351
REMARK CONF_INDEPENDENT:        2.983
REMARK UNBOUND:                -5.351
REMARK  10 active torsions:
REMARK  status: ('A' for Active; 'I' for Inactive)
REMARK    1  A    between atoms: C_2  and  C_3 
REMARK    2  A    between atoms: C_2  and  C_17 
REMARK    3  A    between atoms: C_3  and  O_4 
REMARK    4  A    between atoms: O_4  and  C_5 
REMARK    5  A    between atoms: C_5  and  C_7 
REMARK    6  A    between atoms: C_12  and  N_13 
REMARK    7  A    between atoms: N_13  and  C_14 
REMARK    8  A    between atoms: C_14  and  C_15 
REMARK    9  A    between atoms: C_15  and  O_16 
REMARK   10  A    between atoms: C_25  and  C_26 
ROOT
ATOM      1  O   UNL d   1      24.373 -13.671  -4.380  0.00  0.00    -0.290 OA
ATOM      2  C   UNL d   1      25.350 -14.298  -3.983  0.00  0.00     0.182 C 
ENDROOT
BRANCH   2   3
ATOM      3  C   UNL d   1      25.908 -15.439  -4.877  0.00  0.00     0.262 C 
BRANCH   3   4
ATOM      4  O   UNL d   1      26.965 -15.068  -5.766  0.00  0.00    -0.310 OA
BRANCH   4   5
ATOM      5  C   UNL d   1      28.213 -15.201  -5.256  0.00  0.00     0.296 C 
ATOM      6  O   UNL d   1      28.778 -16.294  -5.066  0.00  0.00    -0.259 OA
BRANCH   5   7
ATOM      7  C   UNL d   1      28.809 -13.886  -4.907  0.00  0.00     0.065 A 
ATOM      8  C   UNL d   1      29.778 -13.949  -3.888  0.00  0.00     0.020 A 
ATOM      9  C   UNL d   1      30.299 -12.784  -3.330  0.00  0.00     0.001 A 
ATOM     10  C   UNL d   1      29.929 -11.545  -3.836  0.00  0.00     0.002 A 
ATOM     11  C   UNL d   1      28.997 -11.470  -4.868  0.00  0.00     0.030 A 
ATOM     12  C   UNL d   1      28.401 -12.618  -5.425  0.00  0.00     0.044 A 
BRANCH  12  13
ATOM     13  N   UNL d   1      27.331 -12.333  -6.299  0.00  0.00    -0.387 N 
ATOM     14  H   UNL d   1      26.489 -12.872  -6.116  0.00  0.00     0.159 HD
BRANCH  13  15
ATOM     15  C   UNL d   1      27.105 -10.966  -6.634  0.00  0.00     0.146 C 
BRANCH  15  16
ATOM     16  C   UNL d   1      25.746 -10.405  -6.314  0.00  0.00     0.183 C 
BRANCH  16  17
ATOM     17  O   UNL d   1      24.790 -11.455  -6.520  0.00  0.00    -0.399 OA
ATOM     18  H   UNL d   1      24.777 -11.931  -5.678  0.00  0.00     0.209 HD
ENDBRANCH  16  17
ENDBRANCH  15  16
ENDBRANCH  13  15
ENDBRANCH  12  13
ENDBRANCH   5   7
ENDBRANCH   4   5
ENDBRANCH   3   4
ENDBRANCH   2   3
BRANCH   2  19
ATOM     19  C   UNL d   1      26.023 -13.899  -2.694  0.00  0.00     0.029 C 
ATOM     20  C   UNL d   1      26.229 -12.594  -2.455  0.00  0.00     0.003 C 
ATOM     21  C   UNL d   1      25.883 -11.406  -3.170  0.00  0.00     0.014 C 
ATOM     22  C   UNL d   1      27.062 -12.509  -1.242  0.00  0.00     0.040 C 
ATOM     23  C   UNL d   1      26.554 -10.272  -3.023  0.00  0.00     0.001 C 
ATOM     24  C   UNL d   1      27.482 -10.145  -1.938  0.00  0.00     0.002 C 
ATOM     25  C   UNL d   1      27.750 -11.156  -1.069  0.00  0.00     0.030 C 
ATOM     26  N   UNL d   1      27.098 -13.642  -0.603  0.00  0.00    -0.376 N 
ATOM     27  C   UNL d   1      26.550 -14.804  -1.538  0.00  0.00     0.153 C 
ATOM     28  H   UNL d   1      27.750 -13.737   0.184  0.00  0.00     0.160 HD
BRANCH  27  29
ATOM     29  C   UNL d   1      25.981 -16.313  -1.486  0.00  0.00    -0.031 C 
ATOM     30  C   UNL d   1      24.710 -16.714  -1.985  0.00  0.00     0.009 C 
ATOM     31  C   UNL d   1      23.945 -17.796  -1.416  0.00  0.00     0.001 C 
ATOM     32  C   UNL d   1      24.378 -18.498  -0.298  0.00  0.00     0.000 C 
ATOM     33  C   UNL d   1      25.609 -18.160   0.196  0.00  0.00     0.001 C 
ATOM     34  C   UNL d   1      26.406 -17.192  -0.477  0.00  0.00     0.009 C 
ENDBRANCH  27  29
ENDBRANCH   2  19
TORSDOF 10
ENDMDL
MODEL 8
REMARK VINA RESULT:    -6.882      3.456      7.000
REMARK INTER + INTRA:         -15.047
REMARK INTER:                  -9.865
REMARK INTRA:                  -5.182
REMARK CONF_INDEPENDENT:        2.983
REMARK UNBOUND:                -5.182
REMARK  10 active torsions:
REMARK  status: ('A' for Active; 'I' for Inactive)
REMARK    1  A    between atoms: C_2  and  C_3 
REMARK    2  A    between atoms: C_2  and  C_17 
REMARK    3  A    between atoms: C_3  and  O_4 
REMARK    4  A    between atoms: O_4  and  C_5 
REMARK    5  A    between atoms: C_5  and  C_7 
REMARK    6  A    between atoms: C_12  and  N_13 
REMARK    7  A    between atoms: N_13  and  C_14 
REMARK    8  A    between atoms: C_14  and  C_15 
REMARK    9  A    between atoms: C_15  and  O_16 
REMARK   10  A    between atoms: C_25  and  C_26 
ROOT
ATOM      1  O   UNL d   1      27.882 -15.196  -2.838  0.00  0.00    -0.290 OA
ATOM      2  C   UNL d   1      26.821 -15.397  -2.257  0.00  0.00     0.182 C 
ENDROOT
BRANCH   2   3
ATOM      3  C   UNL d   1      25.588 -14.542  -2.656  0.00  0.00     0.262 C 
BRANCH   3   4
ATOM      4  O   UNL d   1      25.118 -14.720  -3.995  0.00  0.00    -0.310 OA
BRANCH   4   5
ATOM      5  C   UNL d   1      26.064 -14.588  -4.955  0.00  0.00     0.296 C 
ATOM      6  O   UNL d   1      26.439 -15.514  -5.699  0.00  0.00    -0.259 OA
BRANCH   5   7
ATOM      7  C   UNL d   1      26.636 -13.218  -4.982  0.00  0.00     0.065 A 
ATOM      8  C   UNL d   1      25.694 -12.210  -5.259  0.00  0.00     0.020 A 
ATOM      9  C   UNL d   1      26.104 -10.899  -5.492  0.00  0.00     0.001 A 
ATOM     10  C   UNL d   1      27.444 -10.557  -5.367  0.00  0.00     0.002 A 
ATOM     11  C   UNL d   1      28.383 -11.539  -5.060  0.00  0.00     0.030 A 
ATOM     12  C   UNL d   1      28.022 -12.887  -4.872  0.00  0.00     0.044 A 
BRANCH  12  13
ATOM     13  N   UNL d   1      29.126 -13.762  -4.785  0.00  0.00    -0.387 N 
ATOM     14  H   UNL d   1      29.067 -14.434  -4.025  0.00  0.00     0.159 HD
BRANCH  13  15
ATOM     15  C   UNL d   1      29.646 -14.284  -6.006  0.00  0.00     0.146 C 
BRANCH  15  16
ATOM     16  C   UNL d   1      29.649 -15.781  -6.156  0.00  0.00     0.183 C 
BRANCH  16  17
ATOM     17  O   UNL d   1      28.950 -16.325  -5.028  0.00  0.00    -0.399 OA
ATOM     18  H   UNL d   1      28.218 -15.711  -4.884  0.00  0.00     0.209 HD
ENDBRANCH  16  17
ENDBRANCH  15  16
ENDBRANCH  13  15
ENDBRANCH  12  13
ENDBRANCH   5   7
ENDBRANCH   4   5
ENDBRANCH   3   4
ENDBRANCH   2   3
BRANCH   2  19
ATOM     19  C   UNL d   1      26.722 -16.506  -1.240  0.00  0.00     0.029 C 
ATOM     20  C   UNL d   1      25.557 -17.162  -1.117  0.00  0.00     0.003 C 
ATOM     21  C   UNL d   1      24.314 -17.081  -1.817  0.00  0.00     0.014 C 
ATOM     22  C   UNL d   1      25.685 -18.040   0.060  0.00  0.00     0.040 C 
ATOM     23  C   UNL d   1      23.169 -17.463  -1.271  0.00  0.00     0.001 C 
ATOM     24  C   UNL d   1      23.194 -18.219  -0.053  0.00  0.00     0.002 C 
ATOM     25  C   UNL d   1      24.343 -18.526   0.606  0.00  0.00     0.030 C 
ATOM     26  N   UNL d   1      26.924 -18.160   0.439  0.00  0.00    -0.376 N 
ATOM     27  C   UNL d   1      27.809 -17.037  -0.255  0.00  0.00     0.153 C 
ATOM     28  H   UNL d   1      27.119 -18.642   1.324  0.00  0.00     0.160 HD
BRANCH  27  29
ATOM     29  C   UNL d   1      29.340 -16.657  -0.595  0.00  0.00    -0.031 C 
ATOM     30  C   UNL d   1      29.876 -15.340  -0.540  0.00  0.00     0.009 C 
ATOM     31  C   UNL d   1      30.943 -14.886  -1.398  0.00  0.00     0.001 C 
ATOM     32  C   UNL d   1      31.493 -15.696  -2.382  0.00  0.00     0.000 C 
ATOM     33  C   UNL d   1      31.023 -16.980  -2.451  0.00  0.00     0.001 C 
ATOM     34  C   UNL d   1      30.078 -17.444  -1.493  0.00  0.00     0.009 C 
ENDBRANCH  27  29
ENDBRANCH   2  19
TORSDOF 10
ENDMDL
MODEL 9
REMARK VINA RESULT:    -6.872      3.673      7.339
REMARK INTER + INTRA:         -15.352
REMARK INTER:                  -9.855
REMARK INTRA:                  -5.496
REMARK CONF_INDEPENDENT:        2.983
REMARK UNBOUND:                -5.496
REMARK  10 active torsions:
REMARK  status: ('A' for Active; 'I' for Inactive)
REMARK    1  A    between atoms: C_2  and  C_3 
REMARK    2  A    between atoms: C_2  and  C_17 
REMARK    3  A    between atoms: C_3  and  O_4 
REMARK    4  A    between atoms: O_4  and  C_5 
REMARK    5  A    between atoms: C_5  and  C_7 
REMARK    6  A    between atoms: C_12  and  N_13 
REMARK    7  A    between atoms: N_13  and  C_14 
REMARK    8  A    between atoms: C_14  and  C_15 
REMARK    9  A    between atoms: C_15  and  O_16 
REMARK   10  A    between atoms: C_25  and  C_26 
ROOT
ATOM      1  O   UNL d   1      26.219 -13.460  -1.733  0.00  0.00    -0.290 OA
ATOM      2  C   UNL d   1      25.510 -14.394  -2.092  0.00  0.00     0.182 C 
ENDROOT
BRANCH   2   3
ATOM      3  C   UNL d   1      24.375 -14.111  -3.113  0.00  0.00     0.262 C 
BRANCH   3   4
ATOM      4  O   UNL d   1      24.799 -13.855  -4.454  0.00  0.00    -0.310 OA
BRANCH   4   5
ATOM      5  C   UNL d   1      25.711 -14.730  -4.942  0.00  0.00     0.296 C 
ATOM      6  O   UNL d   1      25.565 -15.966  -4.940  0.00  0.00    -0.259 OA
BRANCH   5   7
ATOM      7  C   UNL d   1      26.929 -14.039  -5.437  0.00  0.00     0.065 A 
ATOM      8  C   UNL d   1      28.069 -14.862  -5.500  0.00  0.00     0.020 A 
ATOM      9  C   UNL d   1      29.323 -14.320  -5.775  0.00  0.00     0.001 A 
ATOM     10  C   UNL d   1      29.445 -12.970  -6.077  0.00  0.00     0.002 A 
ATOM     11  C   UNL d   1      28.319 -12.151  -6.052  0.00  0.00     0.030 A 
ATOM     12  C   UNL d   1      27.041 -12.644  -5.724  0.00  0.00     0.044 A 
BRANCH  12  13
ATOM     13  N   UNL d   1      26.075 -11.632  -5.540  0.00  0.00    -0.387 N 
ATOM     14  H   UNL d   1      25.158 -11.976  -5.269  0.00  0.00     0.159 HD
BRANCH  13  15
ATOM     15  C   UNL d   1      26.489 -10.444  -4.871  0.00  0.00     0.146 C 
BRANCH  15  16
ATOM     16  C   UNL d   1      26.032 -10.272  -3.447  0.00  0.00     0.183 C 
BRANCH  16  17
ATOM     17  O   UNL d   1      25.156 -11.368  -3.145  0.00  0.00    -0.399 OA
ATOM     18  H   UNL d   1      25.671 -12.153  -3.376  0.00  0.00     0.209 HD
ENDBRANCH  16  17
ENDBRANCH  15  16
ENDBRANCH  13  15
ENDBRANCH  12  13
ENDBRANCH   5   7
ENDBRANCH   4   5
ENDBRANCH   3   4
ENDBRANCH   2   3
BRANCH   2  19
ATOM     19  C   UNL d   1      25.805 -15.790  -1.599  0.00  0.00     0.029 C 
ATOM     20  C   UNL d   1      24.776 -16.574  -1.240  0.00  0.00     0.003 C 
ATOM     21  C   UNL d   1      23.358 -16.396  -1.270  0.00  0.00     0.014 C 
ATOM     22  C   UNL d   1      25.355 -17.782  -0.627  0.00  0.00     0.040 C 
ATOM     23  C   UNL d   1      22.545 -17.069  -0.469  0.00  0.00     0.001 C 
ATOM     24  C   UNL d   1      23.056 -18.189   0.265  0.00  0.00     0.002 C 
ATOM     25  C   UNL d   1      24.359 -18.573   0.220  0.00  0.00     0.030 C 
ATOM     26  N   UNL d   1      26.628 -17.885  -0.877  0.00  0.00    -0.376 N 
ATOM     27  C   UNL d   1      27.182 -16.501  -1.427  0.00  0.00     0.153 C 
ATOM     28  H   UNL d   1      27.162 -18.617  -0.394  0.00  0.00     0.160 HD
BRANCH  27  29
ATOM     29  C   UNL d   1      28.432 -15.859  -2.221  0.00  0.00    -0.031 C 
ATOM     30  C   UNL d   1      29.368 -16.605  -2.989  0.00  0.00     0.009 C 
ATOM     31  C   UNL d   1      30.749 -16.215  -3.145  0.00  0.00     0.001 C 
ATOM     32  C   UNL d   1      31.277 -15.100  -2.507  0.00  0.00     0.000 C 
ATOM     33  C   UNL d   1      30.401 -14.340  -1.779  0.00  0.00     0.001 C 
ATOM     34  C   UNL d   1      29.016 -14.665  -1.767  0.00  0.00     0.009 C 
ENDBRANCH  27  29
ENDBRANCH   2  19
TORSDOF 10
ENDMDL
