MODEL 1
REMARK VINA RESULT:    -9.069      0.000      0.000
REMARK INTER + INTRA:         -12.948
REMARK INTER:                 -11.157
REMARK INTRA:                  -1.791
REMARK CONF_INDEPENDENT:        2.088
REMARK UNBOUND:                -1.791
REMARK  7 active torsions:
REMARK  status: ('A' for Active; 'I' for Inactive)
REMARK    1  A    between atoms: C_2  and  C_3 
REMARK    2  A    between atoms: C_3  and  C_4 
REMARK       I    between atoms: C_4  and  N_6 
REMARK    3  A    between atoms: N_6  and  N_7 
REMARK       I    between atoms: N_7  and  C_8 
REMARK    4  A    between atoms: C_8  and  C_10 
REMARK    5  A    between atoms: C_13  and  N_14 
REMARK       I    between atoms: N_14  and  C_15 
REMARK    6  A    between atoms: C_15  and  C_17 
REMARK    7  A    between atoms: C_20  and  C_21 
ROOT
ATOM      1  C   UNL d   1      25.077 -17.305  -1.069  0.00  0.00     0.033 A 
ATOM      2  C   UNL d   1      26.473 -17.394  -0.921  0.00  0.00     0.019 A 
ATOM      3  C   UNL d   1      27.347 -16.625  -1.732  0.00  0.00     0.030 A 
ATOM      4  C   UNL d   1      26.835 -15.793  -2.735  0.00  0.00     0.035 A 
ATOM      5  C   UNL d   1      25.443 -15.702  -2.843  0.00  0.00     0.030 A 
ATOM      6  C   UNL d   1      24.573 -16.444  -2.035  0.00  0.00     0.019 A 
ENDROOT
BRANCH   4   7
ATOM      7  N   UNL d   1      27.710 -15.094  -3.619  0.00  0.00    -0.323 N 
ATOM      8  C   UNL d   1      27.566 -15.059  -5.002  0.00  0.00     0.256 C 
ATOM      9  O   UNL d   1      26.659 -15.573  -5.663  0.00  0.00    -0.267 OA
ATOM     10  H   UNL d   1      28.504 -14.614  -3.209  0.00  0.00     0.169 HD
BRANCH   8  11
ATOM     11  C   UNL d   1      28.590 -14.370  -5.810  0.00  0.00     0.032 A 
ATOM     12  C   UNL d   1      28.209 -13.206  -6.492  0.00  0.00     0.017 A 
ATOM     13  C   UNL d   1      29.051 -12.635  -7.445  0.00  0.00     0.009 A 
ATOM     14  C   UNL d   1      30.326 -13.172  -7.683  0.00  0.00    -0.051 A 
ATOM     15  C   UNL d   1      30.675 -14.358  -7.006  0.00  0.00     0.009 A 
ATOM     16  C   UNL d   1      29.819 -14.958  -6.078  0.00  0.00     0.017 A 
BRANCH  14  17
ATOM     17  C   UNL d   1      31.309 -12.433  -8.604  0.00  0.00    -0.024 C 
ATOM     18  C   UNL d   1      30.647 -12.074  -9.947  0.00  0.00     0.019 C 
ATOM     19  C   UNL d   1      31.764 -11.131  -7.905  0.00  0.00     0.019 C 
ATOM     20  C   UNL d   1      32.572 -13.268  -8.896  0.00  0.00     0.019 C 
ENDBRANCH  14  17
ENDBRANCH   8  11
ENDBRANCH   4   7
BRANCH   1  21
ATOM     21  C   UNL d   1      24.140 -17.994  -0.124  0.00  0.00     0.270 C 
ATOM     22  N   UNL d   1      22.889 -18.350  -0.610  0.00  0.00    -0.263 N 
ATOM     23  H   UNL d   1      22.611 -18.259  -1.588  0.00  0.00     0.190 HD
ATOM     24  O   UNL d   1      24.488 -18.200   1.040  0.00  0.00    -0.266 OA
BRANCH  22  25
ATOM     25  N   UNL d   1      21.948 -18.991   0.242  0.00  0.00    -0.267 N 
ATOM     26  C   UNL d   1      20.774 -19.476  -0.314  0.00  0.00     0.236 C 
ATOM     27  O   UNL d   1      20.540 -19.371  -1.519  0.00  0.00    -0.272 OA
ATOM     28  H   UNL d   1      22.189 -19.046   1.230  0.00  0.00     0.190 HD
BRANCH  26  29
ATOM     29  C   UNL d   1      19.803 -20.144   0.665  0.00  0.00     0.104 C 
BRANCH  29  30
ATOM     30  C   UNL d   1      18.452 -20.460   0.002  0.00  0.00     0.005 C 
ATOM     31  C   UNL d   1      17.678 -21.560   0.716  0.00  0.00     0.005 C 
ENDBRANCH  29  30
ENDBRANCH  26  29
ENDBRANCH  22  25
ENDBRANCH   1  21
TORSDOF 7
ENDMDL
MODEL 2
REMARK VINA RESULT:    -8.989      0.479      1.277
REMARK INTER + INTRA:         -12.849
REMARK INTER:                 -11.077
REMARK INTRA:                  -1.772
REMARK CONF_INDEPENDENT:        2.088
REMARK UNBOUND:                -1.772
REMARK  7 active torsions:
REMARK  status: ('A' for Active; 'I' for Inactive)
REMARK    1  A    between atoms: C_2  and  C_3 
REMARK    2  A    between atoms: C_3  and  C_4 
REMARK       I    between atoms: C_4  and  N_6 
REMARK    3  A    between atoms: N_6  and  N_7 
REMARK       I    between atoms: N_7  and  C_8 
REMARK    4  A    between atoms: C_8  and  C_10 
REMARK    5  A    between atoms: C_13  and  N_14 
REMARK       I    between atoms: N_14  and  C_15 
REMARK    6  A    between atoms: C_15  and  C_17 
REMARK    7  A    between atoms: C_20  and  C_21 
ROOT
ATOM      1  C   UNL d   1      24.920 -17.020  -1.000  0.00  0.00     0.033 A 
ATOM      2  C   UNL d   1      24.356 -16.053  -1.852  0.00  0.00     0.019 A 
ATOM      3  C   UNL d   1      25.152 -15.352  -2.794  0.00  0.00     0.030 A 
ATOM      4  C   UNL d   1      26.533 -15.574  -2.861  0.00  0.00     0.035 A 
ATOM      5  C   UNL d   1      27.064 -16.559  -2.021  0.00  0.00     0.030 A 
ATOM      6  C   UNL d   1      26.283 -17.268  -1.101  0.00  0.00     0.019 A 
ENDROOT
BRANCH   4   7
ATOM      7  N   UNL d   1      27.355 -14.801  -3.734  0.00  0.00    -0.323 N 
ATOM      8  C   UNL d   1      27.319 -14.879  -5.122  0.00  0.00     0.256 C 
ATOM      9  O   UNL d   1      26.559 -15.575  -5.803  0.00  0.00    -0.267 OA
ATOM     10  H   UNL d   1      28.029 -14.173  -3.308  0.00  0.00     0.169 HD
BRANCH   8  11
ATOM     11  C   UNL d   1      28.282 -14.086  -5.908  0.00  0.00     0.032 A 
ATOM     12  C   UNL d   1      27.851 -12.856  -6.422  0.00  0.00     0.017 A 
ATOM     13  C   UNL d   1      28.624 -12.166  -7.354  0.00  0.00     0.009 A 
ATOM     14  C   UNL d   1      29.883 -12.654  -7.737  0.00  0.00    -0.051 A 
ATOM     15  C   UNL d   1      30.283 -13.907  -7.229  0.00  0.00     0.009 A 
ATOM     16  C   UNL d   1      29.494 -14.623  -6.324  0.00  0.00     0.017 A 
BRANCH  14  17
ATOM     17  C   UNL d   1      30.799 -11.799  -8.626  0.00  0.00    -0.024 C 
ATOM     18  C   UNL d   1      31.012 -10.400  -8.019  0.00  0.00     0.019 C 
ATOM     19  C   UNL d   1      32.168 -12.504  -8.756  0.00  0.00     0.019 C 
ATOM     20  C   UNL d   1      30.229 -11.625 -10.049  0.00  0.00     0.019 C 
ENDBRANCH  14  17
ENDBRANCH   8  11
ENDBRANCH   4   7
BRANCH   1  21
ATOM     21  C   UNL d   1      24.072 -17.873  -0.107  0.00  0.00     0.270 C 
ATOM     22  N   UNL d   1      22.817 -18.237  -0.577  0.00  0.00    -0.263 N 
ATOM     23  H   UNL d   1      22.483 -18.043  -1.522  0.00  0.00     0.190 HD
ATOM     24  O   UNL d   1      24.490 -18.201   1.004  0.00  0.00    -0.266 OA
BRANCH  22  25
ATOM     25  N   UNL d   1      21.956 -19.032   0.229  0.00  0.00    -0.267 N 
ATOM     26  C   UNL d   1      20.827 -19.587  -0.354  0.00  0.00     0.236 C 
ATOM     27  O   UNL d   1      20.566 -19.414  -1.545  0.00  0.00    -0.272 OA
ATOM     28  H   UNL d   1      22.215 -19.138   1.209  0.00  0.00     0.190 HD
BRANCH  26  29
ATOM     29  C   UNL d   1      19.941 -20.421   0.577  0.00  0.00     0.104 C 
BRANCH  29  30
ATOM     30  C   UNL d   1      18.487 -20.479   0.080  0.00  0.00     0.005 C 
ATOM     31  C   UNL d   1      17.669 -21.575   0.750  0.00  0.00     0.005 C 
ENDBRANCH  29  30
ENDBRANCH  26  29
ENDBRANCH  22  25
ENDBRANCH   1  21
TORSDOF 7
ENDMDL
MODEL 3
REMARK VINA RESULT:    -8.978      0.583      1.169
REMARK INTER + INTRA:         -12.941
REMARK INTER:                 -11.066
REMARK INTRA:                  -1.875
REMARK CONF_INDEPENDENT:        2.088
REMARK UNBOUND:                -1.875
REMARK  7 active torsions:
REMARK  status: ('A' for Active; 'I' for Inactive)
REMARK    1  A    between atoms: C_2  and  C_3 
REMARK    2  A    between atoms: C_3  and  C_4 
REMARK       I    between atoms: C_4  and  N_6 
REMARK    3  A    between atoms: N_6  and  N_7 
REMARK       I    between atoms: N_7  and  C_8 
REMARK    4  A    between atoms: C_8  and  C_10 
REMARK    5  A    between atoms: C_13  and  N_14 
REMARK       I    between atoms: N_14  and  C_15 
REMARK    6  A    between atoms: C_15  and  C_17 
REMARK    7  A    between atoms: C_20  and  C_21 
ROOT
ATOM      1  C   UNL d   1      24.753 -17.391  -1.067  0.00  0.00     0.033 A 
ATOM      2  C   UNL d   1      26.146 -17.488  -0.896  0.00  0.00     0.019 A 
ATOM      3  C   UNL d   1      27.036 -16.701  -1.670  0.00  0.00     0.030 A 
ATOM      4  C   UNL d   1      26.545 -15.842  -2.661  0.00  0.00     0.035 A 
ATOM      5  C   UNL d   1      25.155 -15.744  -2.792  0.00  0.00     0.030 A 
ATOM      6  C   UNL d   1      24.269 -16.505  -2.020  0.00  0.00     0.019 A 
ENDROOT
BRANCH   4   7
ATOM      7  N   UNL d   1      27.437 -15.123  -3.511  0.00  0.00    -0.323 N 
ATOM      8  C   UNL d   1      27.330 -15.066  -4.896  0.00  0.00     0.256 C 
ATOM      9  O   UNL d   1      26.444 -15.575  -5.589  0.00  0.00    -0.267 OA
ATOM     10  H   UNL d   1      28.217 -14.644  -3.072  0.00  0.00     0.169 HD
BRANCH   8  11
ATOM     11  C   UNL d   1      28.369 -14.357  -5.665  0.00  0.00     0.032 A 
ATOM     12  C   UNL d   1      28.004 -13.171  -6.318  0.00  0.00     0.017 A 
ATOM     13  C   UNL d   1      28.864 -12.575  -7.239  0.00  0.00     0.009 A 
ATOM     14  C   UNL d   1      30.140 -13.110  -7.472  0.00  0.00    -0.051 A 
ATOM     15  C   UNL d   1      30.474 -14.317  -6.827  0.00  0.00     0.009 A 
ATOM     16  C   UNL d   1      29.600 -14.942  -5.932  0.00  0.00     0.017 A 
BRANCH  14  17
ATOM     17  C   UNL d   1      31.141 -12.347  -8.354  0.00  0.00    -0.024 C 
ATOM     18  C   UNL d   1      32.315 -13.252  -8.769  0.00  0.00     0.019 C 
ATOM     19  C   UNL d   1      30.412 -11.855  -9.625  0.00  0.00     0.019 C 
ATOM     20  C   UNL d   1      31.717 -11.107  -7.640  0.00  0.00     0.019 C 
ENDBRANCH  14  17
ENDBRANCH   8  11
ENDBRANCH   4   7
BRANCH   1  21
ATOM     21  C   UNL d   1      23.797 -18.102  -0.157  0.00  0.00     0.270 C 
ATOM     22  N   UNL d   1      22.624 -18.588  -0.718  0.00  0.00    -0.263 N 
ATOM     23  H   UNL d   1      22.422 -18.576  -1.718  0.00  0.00     0.190 HD
ATOM     24  O   UNL d   1      24.062 -18.213   1.041  0.00  0.00    -0.266 OA
BRANCH  22  25
ATOM     25  N   UNL d   1      21.668 -19.257   0.096  0.00  0.00    -0.267 N 
ATOM     26  C   UNL d   1      20.528 -19.769  -0.506  0.00  0.00     0.236 C 
ATOM     27  O   UNL d   1      20.337 -19.663  -1.718  0.00  0.00    -0.272 OA
ATOM     28  H   UNL d   1      21.872 -19.310   1.092  0.00  0.00     0.190 HD
BRANCH  26  29
ATOM     29  C   UNL d   1      19.538 -20.465   0.434  0.00  0.00     0.104 C 
BRANCH  29  30
ATOM     30  C   UNL d   1      19.322 -19.665   1.729  0.00  0.00     0.005 C 
ATOM     31  C   UNL d   1      20.269 -20.075   2.850  0.00  0.00     0.005 C 
ENDBRANCH  29  30
ENDBRANCH  26  29
ENDBRANCH  22  25
ENDBRANCH   1  21
TORSDOF 7
ENDMDL
MODEL 4
REMARK VINA RESULT:    -7.700      4.520      5.724
REMARK INTER + INTRA:         -10.810
REMARK INTER:                  -9.789
REMARK INTRA:                  -1.021
REMARK CONF_INDEPENDENT:        2.088
REMARK UNBOUND:                -1.021
REMARK  7 active torsions:
REMARK  status: ('A' for Active; 'I' for Inactive)
REMARK    1  A    between atoms: C_2  and  C_3 
REMARK    2  A    between atoms: C_3  and  C_4 
REMARK       I    between atoms: C_4  and  N_6 
REMARK    3  A    between atoms: N_6  and  N_7 
REMARK       I    between atoms: N_7  and  C_8 
REMARK    4  A    between atoms: C_8  and  C_10 
REMARK    5  A    between atoms: C_13  and  N_14 
REMARK       I    between atoms: N_14  and  C_15 
REMARK    6  A    between atoms: C_15  and  C_17 
REMARK    7  A    between atoms: C_20  and  C_21 
ROOT
ATOM      1  C   UNL d   1      24.779 -17.426  -0.237  0.00  0.00     0.033 A 
ATOM      2  C   UNL d   1      25.463 -16.664  -1.202  0.00  0.00     0.019 A 
ATOM      3  C   UNL d   1      26.879 -16.683  -1.282  0.00  0.00     0.030 A 
ATOM      4  C   UNL d   1      27.631 -17.426  -0.365  0.00  0.00     0.035 A 
ATOM      5  C   UNL d   1      26.927 -18.196   0.567  0.00  0.00     0.030 A 
ATOM      6  C   UNL d   1      25.528 -18.197   0.642  0.00  0.00     0.019 A 
ENDROOT
BRANCH   4   7
ATOM      7  N   UNL d   1      29.057 -17.371  -0.377  0.00  0.00    -0.323 N 
ATOM      8  C   UNL d   1      29.805 -16.519  -1.183  0.00  0.00     0.256 C 
ATOM      9  O   UNL d   1      29.368 -15.667  -1.961  0.00  0.00    -0.267 OA
ATOM     10  H   UNL d   1      29.555 -18.017   0.227  0.00  0.00     0.169 HD
BRANCH   8  11
ATOM     11  C   UNL d   1      31.276 -16.622  -1.160  0.00  0.00     0.032 A 
ATOM     12  C   UNL d   1      31.844 -17.726  -0.510  0.00  0.00     0.017 A 
ATOM     13  C   UNL d   1      33.213 -17.771  -0.253  0.00  0.00     0.009 A 
ATOM     14  C   UNL d   1      34.058 -16.746  -0.709  0.00  0.00    -0.051 A 
ATOM     15  C   UNL d   1      33.461 -15.634  -1.335  0.00  0.00     0.009 A 
ATOM     16  C   UNL d   1      32.083 -15.564  -1.560  0.00  0.00     0.017 A 
BRANCH  14  17
ATOM     17  C   UNL d   1      35.581 -16.893  -0.575  0.00  0.00    -0.024 C 
ATOM     18  C   UNL d   1      36.065 -18.223  -1.181  0.00  0.00     0.019 C 
ATOM     19  C   UNL d   1      36.262 -15.724  -1.322  0.00  0.00     0.019 C 
ATOM     20  C   UNL d   1      36.044 -16.837   0.895  0.00  0.00     0.019 C 
ENDBRANCH  14  17
ENDBRANCH   8  11
ENDBRANCH   4   7
BRANCH   1  21
ATOM     21  C   UNL d   1      23.284 -17.534  -0.234  0.00  0.00     0.270 C 
ATOM     22  N   UNL d   1      22.731 -18.719   0.231  0.00  0.00    -0.263 N 
ATOM     23  H   UNL d   1      23.272 -19.472   0.659  0.00  0.00     0.190 HD
ATOM     24  O   UNL d   1      22.603 -16.600  -0.659  0.00  0.00    -0.266 OA
BRANCH  22  25
ATOM     25  N   UNL d   1      21.319 -18.891   0.243  0.00  0.00    -0.267 N 
ATOM     26  C   UNL d   1      20.678 -19.194  -0.949  0.00  0.00     0.236 C 
ATOM     27  O   UNL d   1      21.304 -19.325  -2.001  0.00  0.00    -0.272 OA
ATOM     28  H   UNL d   1      20.850 -18.765   1.139  0.00  0.00     0.190 HD
BRANCH  26  29
ATOM     29  C   UNL d   1      19.157 -19.354  -0.862  0.00  0.00     0.104 C 
BRANCH  29  30
ATOM     30  C   UNL d   1      18.754 -20.437   0.152  0.00  0.00     0.005 C 
ATOM     31  C   UNL d   1      18.874 -19.976   1.599  0.00  0.00     0.005 C 
ENDBRANCH  29  30
ENDBRANCH  26  29
ENDBRANCH  22  25
ENDBRANCH   1  21
TORSDOF 7
ENDMDL
MODEL 5
REMARK VINA RESULT:    -7.668      5.625      6.581
REMARK INTER + INTRA:         -10.885
REMARK INTER:                  -9.756
REMARK INTRA:                  -1.129
REMARK CONF_INDEPENDENT:        2.088
REMARK UNBOUND:                -1.129
REMARK  7 active torsions:
REMARK  status: ('A' for Active; 'I' for Inactive)
REMARK    1  A    between atoms: C_2  and  C_3 
REMARK    2  A    between atoms: C_3  and  C_4 
REMARK       I    between atoms: C_4  and  N_6 
REMARK    3  A    between atoms: N_6  and  N_7 
REMARK       I    between atoms: N_7  and  C_8 
REMARK    4  A    between atoms: C_8  and  C_10 
REMARK    5  A    between atoms: C_13  and  N_14 
REMARK       I    between atoms: N_14  and  C_15 
REMARK    6  A    between atoms: C_15  and  C_17 
REMARK    7  A    between atoms: C_20  and  C_21 
ROOT
ATOM      1  C   UNL d   1      24.689 -17.795  -0.506  0.00  0.00     0.033 A 
ATOM      2  C   UNL d   1      25.763 -18.347   0.216  0.00  0.00     0.019 A 
ATOM      3  C   UNL d   1      26.897 -17.566   0.555  0.00  0.00     0.030 A 
ATOM      4  C   UNL d   1      26.993 -16.235   0.132  0.00  0.00     0.035 A 
ATOM      5  C   UNL d   1      25.900 -15.702  -0.561  0.00  0.00     0.030 A 
ATOM      6  C   UNL d   1      24.769 -16.462  -0.885  0.00  0.00     0.019 A 
ENDROOT
BRANCH   4   7
ATOM      7  N   UNL d   1      28.174 -15.473   0.383  0.00  0.00    -0.323 N 
ATOM      8  C   UNL d   1      28.440 -14.802   1.571  0.00  0.00     0.256 C 
ATOM      9  O   UNL d   1      27.740 -14.796   2.588  0.00  0.00    -0.267 OA
ATOM     10  H   UNL d   1      28.849 -15.397  -0.371  0.00  0.00     0.169 HD
BRANCH   8  11
ATOM     11  C   UNL d   1      29.660 -13.979   1.670  0.00  0.00     0.032 A 
ATOM     12  C   UNL d   1      30.791 -14.557   2.263  0.00  0.00     0.017 A 
ATOM     13  C   UNL d   1      31.897 -13.774   2.592  0.00  0.00     0.009 A 
ATOM     14  C   UNL d   1      31.926 -12.409   2.268  0.00  0.00    -0.051 A 
ATOM     15  C   UNL d   1      30.766 -11.845   1.698  0.00  0.00     0.009 A 
ATOM     16  C   UNL d   1      29.639 -12.617   1.401  0.00  0.00     0.017 A 
BRANCH  14  17
ATOM     17  C   UNL d   1      33.215 -11.600   2.476  0.00  0.00    -0.024 C 
ATOM     18  C   UNL d   1      33.314 -10.445   1.462  0.00  0.00     0.019 C 
ATOM     19  C   UNL d   1      33.210 -11.013   3.906  0.00  0.00     0.019 C 
ATOM     20  C   UNL d   1      34.479 -12.473   2.336  0.00  0.00     0.019 C 
ENDBRANCH  14  17
ENDBRANCH   8  11
ENDBRANCH   4   7
BRANCH   1  21
ATOM     21  C   UNL d   1      23.423 -18.562  -0.742  0.00  0.00     0.270 C 
ATOM     22  N   UNL d   1      22.626 -18.833   0.362  0.00  0.00    -0.263 N 
ATOM     23  H   UNL d   1      22.801 -18.461   1.297  0.00  0.00     0.190 HD
ATOM     24  O   UNL d   1      23.141 -18.943  -1.879  0.00  0.00    -0.266 OA
BRANCH  22  25
ATOM     25  N   UNL d   1      21.421 -19.571   0.208  0.00  0.00    -0.267 N 
ATOM     26  C   UNL d   1      20.354 -18.971  -0.444  0.00  0.00     0.236 C 
ATOM     27  O   UNL d   1      20.436 -17.828  -0.895  0.00  0.00    -0.272 OA
ATOM     28  H   UNL d   1      21.404 -20.510   0.605  0.00  0.00     0.190 HD
BRANCH  26  29
ATOM     29  C   UNL d   1      19.085 -19.821  -0.563  0.00  0.00     0.104 C 
BRANCH  29  30
ATOM     30  C   UNL d   1      18.713 -20.479   0.776  0.00  0.00     0.005 C 
ATOM     31  C   UNL d   1      17.665 -21.575   0.633  0.00  0.00     0.005 C 
ENDBRANCH  29  30
ENDBRANCH  26  29
ENDBRANCH  22  25
ENDBRANCH   1  21
TORSDOF 7
ENDMDL
MODEL 6
REMARK VINA RESULT:    -7.525      4.519      5.661
REMARK INTER + INTRA:         -10.709
REMARK INTER:                  -9.613
REMARK INTRA:                  -1.096
REMARK CONF_INDEPENDENT:        2.088
REMARK UNBOUND:                -1.096
REMARK  7 active torsions:
REMARK  status: ('A' for Active; 'I' for Inactive)
REMARK    1  A    between atoms: C_2  and  C_3 
REMARK    2  A    between atoms: C_3  and  C_4 
REMARK       I    between atoms: C_4  and  N_6 
REMARK    3  A    between atoms: N_6  and  N_7 
REMARK       I    between atoms: N_7  and  C_8 
REMARK    4  A    between atoms: C_8  and  C_10 
REMARK    5  A    between atoms: C_13  and  N_14 
REMARK       I    between atoms: N_14  and  C_15 
REMARK    6  A    between atoms: C_15  and  C_17 
REMARK    7  A    between atoms: C_20  and  C_21 
ROOT
ATOM      1  C   UNL d   1      24.391 -17.993  -0.516  0.00  0.00     0.033 A 
ATOM      2  C   UNL d   1      24.626 -16.794  -1.213  0.00  0.00     0.019 A 
ATOM      3  C   UNL d   1      25.890 -16.152  -1.162  0.00  0.00     0.030 A 
ATOM      4  C   UNL d   1      26.921 -16.678  -0.374  0.00  0.00     0.035 A 
ATOM      5  C   UNL d   1      26.670 -17.885   0.288  0.00  0.00     0.030 A 
ATOM      6  C   UNL d   1      25.430 -18.534   0.230  0.00  0.00     0.019 A 
ENDROOT
BRANCH   4   7
ATOM      7  N   UNL d   1      28.161 -15.985  -0.238  0.00  0.00    -0.323 N 
ATOM      8  C   UNL d   1      29.392 -16.490  -0.643  0.00  0.00     0.256 C 
ATOM      9  O   UNL d   1      29.598 -17.566  -1.211  0.00  0.00    -0.267 OA
ATOM     10  H   UNL d   1      28.142 -15.074   0.209  0.00  0.00     0.169 HD
BRANCH   8  11
ATOM     11  C   UNL d   1      30.611 -15.706  -0.368  0.00  0.00     0.032 A 
ATOM     12  C   UNL d   1      31.194 -15.829   0.901  0.00  0.00     0.017 A 
ATOM     13  C   UNL d   1      32.204 -14.957   1.305  0.00  0.00     0.009 A 
ATOM     14  C   UNL d   1      32.707 -13.990   0.420  0.00  0.00    -0.051 A 
ATOM     15  C   UNL d   1      32.086 -13.867  -0.839  0.00  0.00     0.009 A 
ATOM     16  C   UNL d   1      31.046 -14.713  -1.236  0.00  0.00     0.017 A 
BRANCH  14  17
ATOM     17  C   UNL d   1      33.935 -13.156   0.814  0.00  0.00    -0.024 C 
ATOM     18  C   UNL d   1      35.085 -14.057   1.300  0.00  0.00     0.019 C 
ATOM     19  C   UNL d   1      34.412 -12.356  -0.419  0.00  0.00     0.019 C 
ATOM     20  C   UNL d   1      33.614 -12.140   1.930  0.00  0.00     0.019 C 
ENDBRANCH  14  17
ENDBRANCH   8  11
ENDBRANCH   4   7
BRANCH   1  21
ATOM     21  C   UNL d   1      23.113 -18.760  -0.678  0.00  0.00     0.270 C 
ATOM     22  N   UNL d   1      22.326 -18.935   0.452  0.00  0.00    -0.263 N 
ATOM     23  H   UNL d   1      22.515 -18.494   1.353  0.00  0.00     0.190 HD
ATOM     24  O   UNL d   1      22.815 -19.224  -1.779  0.00  0.00    -0.266 OA
BRANCH  22  25
ATOM     25  N   UNL d   1      21.110 -19.668   0.368  0.00  0.00    -0.267 N 
ATOM     26  C   UNL d   1      20.119 -19.211  -0.487  0.00  0.00     0.236 C 
ATOM     27  O   UNL d   1      20.275 -18.200  -1.173  0.00  0.00    -0.272 OA
ATOM     28  H   UNL d   1      21.031 -20.493   0.961  0.00  0.00     0.190 HD
BRANCH  26  29
ATOM     29  C   UNL d   1      18.833 -20.044  -0.517  0.00  0.00     0.104 C 
BRANCH  29  30
ATOM     30  C   UNL d   1      18.401 -20.477   0.894  0.00  0.00     0.005 C 
ATOM     31  C   UNL d   1      18.030 -21.951   0.981  0.00  0.00     0.005 C 
ENDBRANCH  29  30
ENDBRANCH  26  29
ENDBRANCH  22  25
ENDBRANCH   1  21
TORSDOF 7
ENDMDL
MODEL 7
REMARK VINA RESULT:    -7.480      2.264      2.917
REMARK INTER + INTRA:         -11.311
REMARK INTER:                  -9.569
REMARK INTRA:                  -1.742
REMARK CONF_INDEPENDENT:        2.088
REMARK UNBOUND:                -1.742
REMARK  7 active torsions:
REMARK  status: ('A' for Active; 'I' for Inactive)
REMARK    1  A    between atoms: C_2  and  C_3 
REMARK    2  A    between atoms: C_3  and  C_4 
REMARK       I    between atoms: C_4  and  N_6 
REMARK    3  A    between atoms: N_6  and  N_7 
REMARK       I    between atoms: N_7  and  C_8 
REMARK    4  A    between atoms: C_8  and  C_10 
REMARK    5  A    between atoms: C_13  and  N_14 
REMARK       I    between atoms: N_14  and  C_15 
REMARK    6  A    between atoms: C_15  and  C_17 
REMARK    7  A    between atoms: C_20  and  C_21 
ROOT
ATOM      1  C   UNL d   1      24.808 -16.605  -1.412  0.00  0.00     0.033 A 
ATOM      2  C   UNL d   1      24.033 -15.575  -1.977  0.00  0.00     0.019 A 
ATOM      3  C   UNL d   1      24.592 -14.666  -2.912  0.00  0.00     0.030 A 
ATOM      4  C   UNL d   1      25.947 -14.747  -3.256  0.00  0.00     0.035 A 
ATOM      5  C   UNL d   1      26.688 -15.796  -2.700  0.00  0.00     0.030 A 
ATOM      6  C   UNL d   1      26.140 -16.708  -1.790  0.00  0.00     0.019 A 
ENDROOT
BRANCH   4   7
ATOM      7  N   UNL d   1      26.539 -13.775  -4.117  0.00  0.00    -0.323 N 
ATOM      8  C   UNL d   1      26.089 -12.466  -4.254  0.00  0.00     0.256 C 
ATOM      9  O   UNL d   1      25.162 -11.937  -3.636  0.00  0.00    -0.267 OA
ATOM     10  H   UNL d   1      27.325 -14.073  -4.686  0.00  0.00     0.169 HD
BRANCH   8  11
ATOM     11  C   UNL d   1      26.739 -11.587  -5.244  0.00  0.00     0.032 A 
ATOM     12  C   UNL d   1      25.916 -10.892  -6.140  0.00  0.00     0.017 A 
ATOM     13  C   UNL d   1      26.464 -10.227  -7.237  0.00  0.00     0.009 A 
ATOM     14  C   UNL d   1      27.854 -10.180  -7.419  0.00  0.00    -0.051 A 
ATOM     15  C   UNL d   1      28.660 -10.910  -6.522  0.00  0.00     0.009 A 
ATOM     16  C   UNL d   1      28.114 -11.611  -5.443  0.00  0.00     0.017 A 
BRANCH  14  17
ATOM     17  C   UNL d   1      28.452  -9.300  -8.528  0.00  0.00    -0.024 C 
ATOM     18  C   UNL d   1      28.604  -7.842  -8.057  0.00  0.00     0.019 C 
ATOM     19  C   UNL d   1      29.844  -9.853  -8.908  0.00  0.00     0.019 C 
ATOM     20  C   UNL d   1      27.586  -9.305  -9.804  0.00  0.00     0.019 C 
ENDBRANCH  14  17
ENDBRANCH   8  11
ENDBRANCH   4   7
BRANCH   1  21
ATOM     21  C   UNL d   1      24.197 -17.661  -0.541  0.00  0.00     0.270 C 
ATOM     22  N   UNL d   1      22.862 -17.973  -0.757  0.00  0.00    -0.263 N 
ATOM     23  H   UNL d   1      22.307 -17.601  -1.529  0.00  0.00     0.190 HD
ATOM     24  O   UNL d   1      24.874 -18.194   0.339  0.00  0.00    -0.266 OA
BRANCH  22  25
ATOM     25  N   UNL d   1      22.219 -18.954   0.047  0.00  0.00    -0.267 N 
ATOM     26  C   UNL d   1      20.853 -19.143  -0.102  0.00  0.00     0.236 C 
ATOM     27  O   UNL d   1      20.198 -18.491  -0.916  0.00  0.00    -0.272 OA
ATOM     28  H   UNL d   1      22.806 -19.461   0.708  0.00  0.00     0.190 HD
BRANCH  26  29
ATOM     29  C   UNL d   1      20.228 -20.208   0.805  0.00  0.00     0.104 C 
BRANCH  29  30
ATOM     30  C   UNL d   1      18.749 -20.453   0.460  0.00  0.00     0.005 C 
ATOM     31  C   UNL d   1      18.119 -21.567   1.286  0.00  0.00     0.005 C 
ENDBRANCH  29  30
ENDBRANCH  26  29
ENDBRANCH  22  25
ENDBRANCH   1  21
TORSDOF 7
ENDMDL
MODEL 8
REMARK VINA RESULT:    -7.180      2.738      3.337
REMARK INTER + INTRA:         -10.972
REMARK INTER:                  -9.268
REMARK INTRA:                  -1.703
REMARK CONF_INDEPENDENT:        2.088
REMARK UNBOUND:                -1.703
REMARK  7 active torsions:
REMARK  status: ('A' for Active; 'I' for Inactive)
REMARK    1  A    between atoms: C_2  and  C_3 
REMARK    2  A    between atoms: C_3  and  C_4 
REMARK       I    between atoms: C_4  and  N_6 
REMARK    3  A    between atoms: N_6  and  N_7 
REMARK       I    between atoms: N_7  and  C_8 
REMARK    4  A    between atoms: C_8  and  C_10 
REMARK    5  A    between atoms: C_13  and  N_14 
REMARK       I    between atoms: N_14  and  C_15 
REMARK    6  A    between atoms: C_15  and  C_17 
REMARK    7  A    between atoms: C_20  and  C_21 
ROOT
ATOM      1  C   UNL d   1      24.921 -16.669  -0.917  0.00  0.00     0.033 A 
ATOM      2  C   UNL d   1      26.053 -16.055  -0.351  0.00  0.00     0.019 A 
ATOM      3  C   UNL d   1      26.579 -14.850  -0.886  0.00  0.00     0.030 A 
ATOM      4  C   UNL d   1      26.007 -14.272  -2.025  0.00  0.00     0.035 A 
ATOM      5  C   UNL d   1      24.867 -14.888  -2.553  0.00  0.00     0.030 A 
ATOM      6  C   UNL d   1      24.331 -16.067  -2.020  0.00  0.00     0.019 A 
ENDROOT
BRANCH   4   7
ATOM      7  N   UNL d   1      26.590 -13.118  -2.628  0.00  0.00    -0.323 N 
ATOM      8  C   UNL d   1      26.135 -12.528  -3.803  0.00  0.00     0.256 C 
ATOM      9  O   UNL d   1      25.153 -12.871  -4.467  0.00  0.00    -0.267 OA
ATOM     10  H   UNL d   1      27.410 -12.720  -2.180  0.00  0.00     0.169 HD
BRANCH   8  11
ATOM     11  C   UNL d   1      26.881 -11.388  -4.366  0.00  0.00     0.032 A 
ATOM     12  C   UNL d   1      26.223 -10.153  -4.449  0.00  0.00     0.017 A 
ATOM     13  C   UNL d   1      26.780  -9.099  -5.171  0.00  0.00     0.009 A 
ATOM     14  C   UNL d   1      28.045  -9.232  -5.764  0.00  0.00    -0.051 A 
ATOM     15  C   UNL d   1      28.675 -10.491  -5.692  0.00  0.00     0.009 A 
ATOM     16  C   UNL d   1      28.103 -11.564  -5.003  0.00  0.00     0.017 A 
BRANCH  14  17
ATOM     17  C   UNL d   1      28.724  -8.011  -6.403  0.00  0.00    -0.024 C 
ATOM     18  C   UNL d   1      29.748  -7.379  -5.443  0.00  0.00     0.019 C 
ATOM     19  C   UNL d   1      29.453  -8.462  -7.689  0.00  0.00     0.019 C 
ATOM     20  C   UNL d   1      27.706  -6.924  -6.804  0.00  0.00     0.019 C 
ENDBRANCH  14  17
ENDBRANCH   8  11
ENDBRANCH   4   7
BRANCH   1  21
ATOM     21  C   UNL d   1      24.266 -17.854  -0.276  0.00  0.00     0.270 C 
ATOM     22  N   UNL d   1      22.926 -18.075  -0.561  0.00  0.00    -0.263 N 
ATOM     23  H   UNL d   1      22.394 -17.542  -1.250  0.00  0.00     0.190 HD
ATOM     24  O   UNL d   1      24.914 -18.571   0.489  0.00  0.00    -0.266 OA
BRANCH  22  25
ATOM     25  N   UNL d   1      22.242 -19.173   0.030  0.00  0.00    -0.267 N 
ATOM     26  C   UNL d   1      20.880 -19.305  -0.195  0.00  0.00     0.236 C 
ATOM     27  O   UNL d   1      20.262 -18.502  -0.896  0.00  0.00    -0.272 OA
ATOM     28  H   UNL d   1      22.799 -19.804   0.605  0.00  0.00     0.190 HD
BRANCH  26  29
ATOM     29  C   UNL d   1      20.208 -20.504   0.482  0.00  0.00     0.104 C 
BRANCH  29  30
ATOM     30  C   UNL d   1      18.691 -20.523   0.232  0.00  0.00     0.005 C 
ATOM     31  C   UNL d   1      17.962 -21.575   1.058  0.00  0.00     0.005 C 
ENDBRANCH  29  30
ENDBRANCH  26  29
ENDBRANCH  22  25
ENDBRANCH   1  21
TORSDOF 7
ENDMDL
MODEL 9
REMARK VINA RESULT:    -6.405      1.790      2.793
REMARK INTER + INTRA:         -10.271
REMARK INTER:                  -8.493
REMARK INTRA:                  -1.777
REMARK CONF_INDEPENDENT:        2.088
REMARK UNBOUND:                -1.777
REMARK  7 active torsions:
REMARK  status: ('A' for Active; 'I' for Inactive)
REMARK    1  A    between atoms: C_2  and  C_3 
REMARK    2  A    between atoms: C_3  and  C_4 
REMARK       I    between atoms: C_4  and  N_6 
REMARK    3  A    between atoms: N_6  and  N_7 
REMARK       I    between atoms: N_7  and  C_8 
REMARK    4  A    between atoms: C_8  and  C_10 
REMARK    5  A    between atoms: C_13  and  N_14 
REMARK       I    between atoms: N_14  and  C_15 
REMARK    6  A    between atoms: C_15  and  C_17 
REMARK    7  A    between atoms: C_20  and  C_21 
ROOT
ATOM      1  C   UNL d   1      26.263 -15.903  -1.810  0.00  0.00     0.033 A 
ATOM      2  C   UNL d   1      26.000 -15.333  -3.070  0.00  0.00     0.019 A 
ATOM      3  C   UNL d   1      27.044 -15.102  -4.003  0.00  0.00     0.030 A 
ATOM      4  C   UNL d   1      28.371 -15.395  -3.668  0.00  0.00     0.035 A 
ATOM      5  C   UNL d   1      28.602 -15.985  -2.420  0.00  0.00     0.030 A 
ATOM      6  C   UNL d   1      27.576 -16.232  -1.500  0.00  0.00     0.019 A 
ENDROOT
BRANCH   4   7
ATOM      7  N   UNL d   1      29.436 -15.073  -4.561  0.00  0.00    -0.323 N 
ATOM      8  C   UNL d   1      29.372 -15.210  -5.944  0.00  0.00     0.256 C 
ATOM      9  O   UNL d   1      28.396 -15.575  -6.604  0.00  0.00    -0.267 OA
ATOM     10  H   UNL d   1      30.307 -14.749  -4.153  0.00  0.00     0.169 HD
BRANCH   8  11
ATOM     11  C   UNL d   1      30.575 -14.922  -6.747  0.00  0.00     0.032 A 
ATOM     12  C   UNL d   1      31.047 -15.929  -7.600  0.00  0.00     0.017 A 
ATOM     13  C   UNL d   1      32.294 -15.813  -8.212  0.00  0.00     0.009 A 
ATOM     14  C   UNL d   1      33.065 -14.653  -8.045  0.00  0.00    -0.051 A 
ATOM     15  C   UNL d   1      32.583 -13.666  -7.161  0.00  0.00     0.009 A 
ATOM     16  C   UNL d   1      31.351 -13.794  -6.513  0.00  0.00     0.017 A 
BRANCH  14  17
ATOM     17  C   UNL d   1      34.352 -14.463  -8.862  0.00  0.00    -0.024 C 
ATOM     18  C   UNL d   1      34.345 -13.113  -9.602  0.00  0.00     0.019 C 
ATOM     19  C   UNL d   1      35.563 -14.503  -7.902  0.00  0.00     0.019 C 
ATOM     20  C   UNL d   1      34.549 -15.583  -9.904  0.00  0.00     0.019 C 
ENDBRANCH  14  17
ENDBRANCH   8  11
ENDBRANCH   4   7
BRANCH   1  21
ATOM     21  C   UNL d   1      25.158 -16.289  -0.876  0.00  0.00     0.270 C 
ATOM     22  N   UNL d   1      24.281 -17.279  -1.298  0.00  0.00    -0.263 N 
ATOM     23  H   UNL d   1      24.403 -17.821  -2.155  0.00  0.00     0.190 HD
ATOM     24  O   UNL d   1      25.044 -15.714   0.208  0.00  0.00    -0.266 OA
BRANCH  22  25
ATOM     25  N   UNL d   1      23.200 -17.679  -0.465  0.00  0.00    -0.267 N 
ATOM     26  C   UNL d   1      22.391 -18.724  -0.884  0.00  0.00     0.236 C 
ATOM     27  O   UNL d   1      22.596 -19.310  -1.948  0.00  0.00    -0.272 OA
ATOM     28  H   UNL d   1      23.072 -17.157   0.401  0.00  0.00     0.190 HD
BRANCH  26  29
ATOM     29  C   UNL d   1      21.241 -19.092   0.059  0.00  0.00     0.104 C 
BRANCH  29  30
ATOM     30  C   UNL d   1      20.050 -19.698  -0.704  0.00  0.00     0.005 C 
ATOM     31  C   UNL d   1      19.031 -20.364   0.211  0.00  0.00     0.005 C 
ENDBRANCH  29  30
ENDBRANCH  26  29
ENDBRANCH  22  25
ENDBRANCH   1  21
TORSDOF 7
ENDMDL
