MODEL 1
REMARK VINA RESULT:    -8.962      0.000      0.000
REMARK INTER + INTRA:         -10.624
REMARK INTER:                 -10.155
REMARK INTRA:                  -0.469
REMARK CONF_INDEPENDENT:        1.193
REMARK UNBOUND:                -0.469
REMARK  4 active torsions:
REMARK  status: ('A' for Active; 'I' for Inactive)
REMARK    1  A    between atoms: C_5  and  C_6 
REMARK    2  A    between atoms: C_8  and  N_9 
REMARK    3  A    between atoms: C_13  and  C_14 
REMARK    4  A    between atoms: C_17  and  C_18 
REMARK       I    between atoms: C_18  and  N_19 
ROOT
ATOM      1  C   UNL d   1      26.740 -14.447  -1.981  0.00  0.00     0.083 A 
ATOM      2  N   UNL d   1      27.839 -14.735  -1.222  0.00  0.00    -0.228 NA
ATOM      3  C   UNL d   1      27.787 -15.793  -0.369  0.00  0.00     0.143 A 
ATOM      4  C   UNL d   1      26.650 -16.590  -0.244  0.00  0.00     0.101 A 
ATOM      5  C   UNL d   1      26.653 -17.696   0.674  0.00  0.00     0.104 C 
ATOM      6  N   UNL d   1      26.656 -18.575   1.440  0.00  0.00    -0.191 NA
ATOM      7  C   UNL d   1      25.513 -16.300  -1.024  0.00  0.00     0.007 A 
ATOM      8  C   UNL d   1      25.551 -15.197  -1.909  0.00  0.00    -0.019 A 
ATOM      9  C   UNL d   1      24.354 -14.825  -2.753  0.00  0.00     0.052 C 
ENDROOT
BRANCH   3  10
ATOM     10  N   UNL d   1      28.897 -16.032   0.423  0.00  0.00    -0.383 N 
ATOM     11  H   UNL d   1      28.877 -16.822   1.051  0.00  0.00     0.157 HD
ATOM     12  H   UNL d   1      29.661 -15.370   0.494  0.00  0.00     0.157 HD
ENDBRANCH   3  10
BRANCH   7  13
ATOM     13  C   UNL d   1      24.297 -17.117  -0.876  0.00  0.00    -0.024 A 
ATOM     14  C   UNL d   1      24.396 -18.513  -0.896  0.00  0.00     0.013 A 
ATOM     15  C   UNL d   1      23.267 -19.310  -0.757  0.00  0.00     0.018 A 
ATOM     16  C   UNL d   1      22.012 -18.732  -0.557  0.00  0.00     0.031 A 
ATOM     17  C   UNL d   1      21.900 -17.334  -0.521  0.00  0.00     0.018 A 
ATOM     18  C   UNL d   1      23.033 -16.534  -0.703  0.00  0.00     0.013 A 
BRANCH  16  19
ATOM     19  C   UNL d   1      20.796 -19.573  -0.380  0.00  0.00     0.249 C 
ATOM     20  N   UNL d   1      20.618 -20.199   0.826  0.00  0.00    -0.366 N 
ATOM     21  H   UNL d   1      21.252 -20.154   1.608  0.00  0.00     0.159 HD
ATOM     22  H   UNL d   1      19.798 -20.779   0.938  0.00  0.00     0.159 HD
ATOM     23  O   UNL d   1      19.972 -19.701  -1.277  0.00  0.00    -0.268 OA
ENDBRANCH  16  19
ENDBRANCH   7  13
BRANCH   1  24
ATOM     24  C   UNL d   1      26.817 -13.232  -2.834  0.00  0.00     0.034 A 
ATOM     25  C   UNL d   1      27.117 -11.935  -2.442  0.00  0.00     0.022 A 
ATOM     26  C   UNL d   1      26.968 -10.972  -3.478  0.00  0.00     0.015 A 
ATOM     27  C   UNL d   1      26.582 -11.547  -4.668  0.00  0.00    -0.021 A 
ATOM     28  C   UNL d   1      26.344 -10.854  -5.971  0.00  0.00     0.056 C 
ATOM     29  S   UNL d   1      26.388 -13.250  -4.502  0.00  0.00    -0.093 SA
ENDBRANCH   1  24
TORSDOF 4
ENDMDL
MODEL 2
REMARK VINA RESULT:    -7.567      3.392      7.318
REMARK INTER + INTRA:          -9.680
REMARK INTER:                  -8.761
REMARK INTRA:                  -0.919
REMARK CONF_INDEPENDENT:        1.193
REMARK UNBOUND:                -0.919
REMARK  4 active torsions:
REMARK  status: ('A' for Active; 'I' for Inactive)
REMARK    1  A    between atoms: C_5  and  C_6 
REMARK    2  A    between atoms: C_8  and  N_9 
REMARK    3  A    between atoms: C_13  and  C_14 
REMARK    4  A    between atoms: C_17  and  C_18 
REMARK       I    between atoms: C_18  and  N_19 
ROOT
ATOM      1  C   UNL d   1      24.130 -17.885  -0.424  0.00  0.00     0.083 A 
ATOM      2  N   UNL d   1      25.131 -18.638   0.123  0.00  0.00    -0.228 NA
ATOM      3  C   UNL d   1      26.404 -18.162   0.087  0.00  0.00     0.143 A 
ATOM      4  C   UNL d   1      26.720 -16.933  -0.492  0.00  0.00     0.101 A 
ATOM      5  C   UNL d   1      28.083 -16.479  -0.500  0.00  0.00     0.104 C 
ATOM      6  N   UNL d   1      29.196 -16.132  -0.526  0.00  0.00    -0.191 NA
ATOM      7  C   UNL d   1      25.693 -16.151  -1.058  0.00  0.00     0.007 A 
ATOM      8  C   UNL d   1      24.366 -16.639  -1.034  0.00  0.00    -0.019 A 
ATOM      9  C   UNL d   1      23.229 -15.855  -1.645  0.00  0.00     0.052 C 
ENDROOT
BRANCH   3  10
ATOM     10  N   UNL d   1      27.404 -18.967   0.605  0.00  0.00    -0.383 N 
ATOM     11  H   UNL d   1      28.364 -18.699   0.448  0.00  0.00     0.157 HD
ATOM     12  H   UNL d   1      27.209 -19.875   1.010  0.00  0.00     0.157 HD
ENDBRANCH   3  10
BRANCH   7  13
ATOM     13  C   UNL d   1      26.022 -14.866  -1.698  0.00  0.00    -0.024 A 
ATOM     14  C   UNL d   1      25.907 -14.737  -3.086  0.00  0.00     0.013 A 
ATOM     15  C   UNL d   1      26.208 -13.536  -3.717  0.00  0.00     0.018 A 
ATOM     16  C   UNL d   1      26.596 -12.422  -2.972  0.00  0.00     0.031 A 
ATOM     17  C   UNL d   1      26.701 -12.534  -1.578  0.00  0.00     0.018 A 
ATOM     18  C   UNL d   1      26.438 -13.754  -0.949  0.00  0.00     0.013 A 
BRANCH  16  19
ATOM     19  C   UNL d   1      26.897 -11.121  -3.631  0.00  0.00     0.249 C 
ATOM     20  N   UNL d   1      25.934 -10.571  -4.436  0.00  0.00    -0.366 N 
ATOM     21  H   UNL d   1      25.035 -10.979  -4.636  0.00  0.00     0.159 HD
ATOM     22  H   UNL d   1      26.147  -9.694  -4.891  0.00  0.00     0.159 HD
ATOM     23  O   UNL d   1      27.967 -10.551  -3.461  0.00  0.00    -0.268 OA
ENDBRANCH  16  19
ENDBRANCH   7  13
BRANCH   1  24
ATOM     24  C   UNL d   1      22.771 -18.488  -0.434  0.00  0.00     0.034 A 
ATOM     25  C   UNL d   1      22.053 -18.949  -1.529  0.00  0.00     0.022 A 
ATOM     26  C   UNL d   1      20.720 -19.338  -1.220  0.00  0.00     0.015 A 
ATOM     27  C   UNL d   1      20.437 -19.196   0.120  0.00  0.00    -0.021 A 
ATOM     28  C   UNL d   1      19.150 -19.518   0.810  0.00  0.00     0.056 C 
ATOM     29  S   UNL d   1      21.793 -18.575   0.980  0.00  0.00    -0.093 SA
ENDBRANCH   1  24
TORSDOF 4
ENDMDL
MODEL 3
REMARK VINA RESULT:    -7.562      3.969      7.693
REMARK INTER + INTRA:          -9.667
REMARK INTER:                  -8.756
REMARK INTRA:                  -0.911
REMARK CONF_INDEPENDENT:        1.193
REMARK UNBOUND:                -0.911
REMARK  4 active torsions:
REMARK  status: ('A' for Active; 'I' for Inactive)
REMARK    1  A    between atoms: C_5  and  C_6 
REMARK    2  A    between atoms: C_8  and  N_9 
REMARK    3  A    between atoms: C_13  and  C_14 
REMARK    4  A    between atoms: C_17  and  C_18 
REMARK       I    between atoms: C_18  and  N_19 
ROOT
ATOM      1  C   UNL d   1      24.451 -16.182  -1.474  0.00  0.00     0.083 A 
ATOM      2  N   UNL d   1      24.121 -15.311  -2.474  0.00  0.00    -0.228 NA
ATOM      3  C   UNL d   1      24.970 -14.287  -2.757  0.00  0.00     0.143 A 
ATOM      4  C   UNL d   1      26.163 -14.098  -2.061  0.00  0.00     0.101 A 
ATOM      5  C   UNL d   1      27.023 -12.999  -2.405  0.00  0.00     0.104 C 
ATOM      6  N   UNL d   1      27.700 -12.089  -2.674  0.00  0.00    -0.191 NA
ATOM      7  C   UNL d   1      26.510 -14.992  -1.028  0.00  0.00     0.007 A 
ATOM      8  C   UNL d   1      25.631 -16.056  -0.717  0.00  0.00    -0.019 A 
ATOM      9  C   UNL d   1      25.940 -17.032   0.394  0.00  0.00     0.052 C 
ENDROOT
BRANCH   3  10
ATOM     10  N   UNL d   1      24.588 -13.392  -3.743  0.00  0.00    -0.383 N 
ATOM     11  H   UNL d   1      24.754 -12.409  -3.588  0.00  0.00     0.157 HD
ATOM     12  H   UNL d   1      24.030 -13.675  -4.540  0.00  0.00     0.157 HD
ENDBRANCH   3  10
BRANCH   7  13
ATOM     13  C   UNL d   1      27.752 -14.782  -0.266  0.00  0.00    -0.024 A 
ATOM     14  C   UNL d   1      27.712 -14.078   0.942  0.00  0.00     0.013 A 
ATOM     15  C   UNL d   1      28.867 -13.867   1.683  0.00  0.00     0.018 A 
ATOM     16  C   UNL d   1      30.089 -14.386   1.254  0.00  0.00     0.031 A 
ATOM     17  C   UNL d   1      30.142 -15.106   0.051  0.00  0.00     0.018 A 
ATOM     18  C   UNL d   1      28.985 -15.282  -0.714  0.00  0.00     0.013 A 
BRANCH  16  19
ATOM     19  C   UNL d   1      31.333 -14.190   2.050  0.00  0.00     0.249 C 
ATOM     20  N   UNL d   1      31.480 -14.920   3.201  0.00  0.00    -0.366 N 
ATOM     21  H   UNL d   1      30.808 -15.574   3.569  0.00  0.00     0.159 HD
ATOM     22  H   UNL d   1      32.319 -14.776   3.744  0.00  0.00     0.159 HD
ATOM     23  O   UNL d   1      32.204 -13.408   1.693  0.00  0.00    -0.268 OA
ENDBRANCH  16  19
ENDBRANCH   7  13
BRANCH   1  24
ATOM     24  C   UNL d   1      23.451 -17.232  -1.146  0.00  0.00     0.034 A 
ATOM     25  C   UNL d   1      23.643 -18.606  -1.101  0.00  0.00     0.022 A 
ATOM     26  C   UNL d   1      22.447 -19.348  -0.895  0.00  0.00     0.015 A 
ATOM     27  C   UNL d   1      21.348 -18.529  -0.756  0.00  0.00    -0.021 A 
ATOM     28  C   UNL d   1      19.934 -18.950  -0.513  0.00  0.00     0.056 C 
ATOM     29  S   UNL d   1      21.786 -16.869  -0.895  0.00  0.00    -0.093 SA
ENDBRANCH   1  24
TORSDOF 4
ENDMDL
MODEL 4
REMARK VINA RESULT:    -7.386      4.022      7.677
REMARK INTER + INTRA:          -9.432
REMARK INTER:                  -8.579
REMARK INTRA:                  -0.853
REMARK CONF_INDEPENDENT:        1.193
REMARK UNBOUND:                -0.853
REMARK  4 active torsions:
REMARK  status: ('A' for Active; 'I' for Inactive)
REMARK    1  A    between atoms: C_5  and  C_6 
REMARK    2  A    between atoms: C_8  and  N_9 
REMARK    3  A    between atoms: C_13  and  C_14 
REMARK    4  A    between atoms: C_17  and  C_18 
REMARK       I    between atoms: C_18  and  N_19 
ROOT
ATOM      1  C   UNL d   1      25.962 -16.505  -1.264  0.00  0.00     0.083 A 
ATOM      2  N   UNL d   1      26.927 -16.923  -0.392  0.00  0.00    -0.228 NA
ATOM      3  C   UNL d   1      28.223 -16.597  -0.644  0.00  0.00     0.143 A 
ATOM      4  C   UNL d   1      28.597 -15.852  -1.762  0.00  0.00     0.101 A 
ATOM      5  C   UNL d   1      29.983 -15.536  -1.976  0.00  0.00     0.104 C 
ATOM      6  N   UNL d   1      31.111 -15.308  -2.155  0.00  0.00    -0.191 NA
ATOM      7  C   UNL d   1      27.607 -15.417  -2.665  0.00  0.00     0.007 A 
ATOM      8  C   UNL d   1      26.256 -15.757  -2.419  0.00  0.00    -0.019 A 
ATOM      9  C   UNL d   1      25.155 -15.337  -3.364  0.00  0.00     0.052 C 
ENDROOT
BRANCH   3  10
ATOM     10  N   UNL d   1      29.186 -17.075   0.230  0.00  0.00    -0.383 N 
ATOM     11  H   UNL d   1      29.426 -18.054   0.190  0.00  0.00     0.157 HD
ATOM     12  H   UNL d   1      29.550 -16.512   0.990  0.00  0.00     0.157 HD
ENDBRANCH   3  10
BRANCH   7  13
ATOM     13  C   UNL d   1      27.995 -14.656  -3.864  0.00  0.00    -0.024 A 
ATOM     14  C   UNL d   1      27.964 -13.257  -3.835  0.00  0.00     0.013 A 
ATOM     15  C   UNL d   1      28.327 -12.513  -4.951  0.00  0.00     0.018 A 
ATOM     16  C   UNL d   1      28.767 -13.148  -6.113  0.00  0.00     0.031 A 
ATOM     17  C   UNL d   1      28.816 -14.549  -6.151  0.00  0.00     0.018 A 
ATOM     18  C   UNL d   1      28.411 -15.297  -5.041  0.00  0.00     0.013 A 
BRANCH  16  19
ATOM     19  C   UNL d   1      29.184 -12.364  -7.309  0.00  0.00     0.249 C 
ATOM     20  N   UNL d   1      29.048 -12.950  -8.540  0.00  0.00    -0.366 N 
ATOM     21  H   UNL d   1      28.700 -13.880  -8.711  0.00  0.00     0.159 HD
ATOM     22  H   UNL d   1      29.343 -12.420  -9.348  0.00  0.00     0.159 HD
ATOM     23  O   UNL d   1      29.631 -11.229  -7.205  0.00  0.00    -0.268 OA
ENDBRANCH  16  19
ENDBRANCH   7  13
BRANCH   1  24
ATOM     24  C   UNL d   1      24.573 -16.959  -0.989  0.00  0.00     0.034 A 
ATOM     25  C   UNL d   1      23.418 -16.189  -0.953  0.00  0.00     0.022 A 
ATOM     26  C   UNL d   1      22.266 -16.902  -0.520  0.00  0.00     0.015 A 
ATOM     27  C   UNL d   1      22.544 -18.225  -0.255  0.00  0.00    -0.021 A 
ATOM     28  C   UNL d   1      21.584 -19.276   0.203  0.00  0.00     0.056 C 
ATOM     29  S   UNL d   1      24.210 -18.575  -0.520  0.00  0.00    -0.093 SA
ENDBRANCH   1  24
TORSDOF 4
ENDMDL
MODEL 5
REMARK VINA RESULT:    -7.201      3.723      7.452
REMARK INTER + INTRA:          -9.331
REMARK INTER:                  -8.394
REMARK INTRA:                  -0.937
REMARK CONF_INDEPENDENT:        1.193
REMARK UNBOUND:                -0.937
REMARK  4 active torsions:
REMARK  status: ('A' for Active; 'I' for Inactive)
REMARK    1  A    between atoms: C_5  and  C_6 
REMARK    2  A    between atoms: C_8  and  N_9 
REMARK    3  A    between atoms: C_13  and  C_14 
REMARK    4  A    between atoms: C_17  and  C_18 
REMARK       I    between atoms: C_18  and  N_19 
ROOT
ATOM      1  C   UNL d   1      25.698 -16.341  -0.578  0.00  0.00     0.083 A 
ATOM      2  N   UNL d   1      26.425 -16.114   0.556  0.00  0.00    -0.228 NA
ATOM      3  C   UNL d   1      27.537 -15.335   0.476  0.00  0.00     0.143 A 
ATOM      4  C   UNL d   1      27.958 -14.763  -0.724  0.00  0.00     0.101 A 
ATOM      5  C   UNL d   1      29.141 -13.948  -0.748  0.00  0.00     0.104 C 
ATOM      6  N   UNL d   1      30.116 -13.310  -0.763  0.00  0.00    -0.191 NA
ATOM      7  C   UNL d   1      27.213 -14.993  -1.898  0.00  0.00     0.007 A 
ATOM      8  C   UNL d   1      26.059 -15.809  -1.830  0.00  0.00    -0.019 A 
ATOM      9  C   UNL d   1      25.234 -16.108  -3.060  0.00  0.00     0.052 C 
ENDROOT
BRANCH   3  10
ATOM     10  N   UNL d   1      28.281 -15.161   1.631  0.00  0.00    -0.383 N 
ATOM     11  H   UNL d   1      27.961 -14.488   2.311  0.00  0.00     0.157 HD
ATOM     12  H   UNL d   1      29.197 -15.578   1.749  0.00  0.00     0.157 HD
ENDBRANCH   3  10
BRANCH   7  13
ATOM     13  C   UNL d   1      27.667 -14.420  -3.176  0.00  0.00    -0.024 A 
ATOM     14  C   UNL d   1      28.514 -15.163  -4.005  0.00  0.00     0.013 A 
ATOM     15  C   UNL d   1      28.957 -14.649  -5.217  0.00  0.00     0.018 A 
ATOM     16  C   UNL d   1      28.534 -13.391  -5.649  0.00  0.00     0.031 A 
ATOM     17  C   UNL d   1      27.674 -12.641  -4.834  0.00  0.00     0.018 A 
ATOM     18  C   UNL d   1      27.262 -13.143  -3.596  0.00  0.00     0.013 A 
BRANCH  16  19
ATOM     19  C   UNL d   1      28.979 -12.836  -6.958  0.00  0.00     0.249 C 
ATOM     20  N   UNL d   1      29.082 -13.698  -8.018  0.00  0.00    -0.366 N 
ATOM     21  H   UNL d   1      28.896 -14.687  -7.989  0.00  0.00     0.159 HD
ATOM     22  H   UNL d   1      29.396 -13.320  -8.901  0.00  0.00     0.159 HD
ATOM     23  O   UNL d   1      29.242 -11.648  -7.092  0.00  0.00    -0.268 OA
ENDBRANCH  16  19
ENDBRANCH   7  13
BRANCH   1  24
ATOM     24  C   UNL d   1      24.541 -17.267  -0.455  0.00  0.00     0.034 A 
ATOM     25  C   UNL d   1      24.563 -18.621  -0.149  0.00  0.00     0.022 A 
ATOM     26  C   UNL d   1      23.293 -19.254  -0.250  0.00  0.00     0.015 A 
ATOM     27  C   UNL d   1      22.300 -18.369  -0.606  0.00  0.00    -0.021 A 
ATOM     28  C   UNL d   1      20.847 -18.669  -0.792  0.00  0.00     0.056 C 
ATOM     29  S   UNL d   1      22.932 -16.782  -0.831  0.00  0.00    -0.093 SA
ENDBRANCH   1  24
TORSDOF 4
ENDMDL
MODEL 6
REMARK VINA RESULT:    -7.180      3.443      7.334
REMARK INTER + INTRA:          -9.016
REMARK INTER:                  -8.373
REMARK INTRA:                  -0.643
REMARK CONF_INDEPENDENT:        1.193
REMARK UNBOUND:                -0.643
REMARK  4 active torsions:
REMARK  status: ('A' for Active; 'I' for Inactive)
REMARK    1  A    between atoms: C_5  and  C_6 
REMARK    2  A    between atoms: C_8  and  N_9 
REMARK    3  A    between atoms: C_13  and  C_14 
REMARK    4  A    between atoms: C_17  and  C_18 
REMARK       I    between atoms: C_18  and  N_19 
ROOT
ATOM      1  C   UNL d   1      25.322 -16.670  -0.741  0.00  0.00     0.083 A 
ATOM      2  N   UNL d   1      26.445 -17.026  -0.048  0.00  0.00    -0.228 NA
ATOM      3  C   UNL d   1      27.578 -16.295  -0.218  0.00  0.00     0.143 A 
ATOM      4  C   UNL d   1      27.632 -15.197  -1.076  0.00  0.00     0.101 A 
ATOM      5  C   UNL d   1      28.858 -14.461  -1.215  0.00  0.00     0.104 C 
ATOM      6  N   UNL d   1      29.864 -13.886  -1.340  0.00  0.00    -0.191 NA
ATOM      7  C   UNL d   1      26.478 -14.824  -1.793  0.00  0.00     0.007 A 
ATOM      8  C   UNL d   1      25.294 -15.582  -1.632  0.00  0.00    -0.019 A 
ATOM      9  C   UNL d   1      24.034 -15.241  -2.393  0.00  0.00     0.052 C 
ENDROOT
BRANCH   3  10
ATOM     10  N   UNL d   1      28.714 -16.707   0.459  0.00  0.00    -0.383 N 
ATOM     11  H   UNL d   1      28.963 -16.230   1.313  0.00  0.00     0.157 HD
ATOM     12  H   UNL d   1      29.370 -17.368   0.058  0.00  0.00     0.157 HD
ENDBRANCH   3  10
BRANCH   7  13
ATOM     13  C   UNL d   1      26.533 -13.685  -2.724  0.00  0.00    -0.024 A 
ATOM     14  C   UNL d   1      26.562 -13.920  -4.104  0.00  0.00     0.013 A 
ATOM     15  C   UNL d   1      26.612 -12.865  -5.006  0.00  0.00     0.018 A 
ATOM     16  C   UNL d   1      26.597 -11.545  -4.554  0.00  0.00     0.031 A 
ATOM     17  C   UNL d   1      26.555 -11.294  -3.174  0.00  0.00     0.018 A 
ATOM     18  C   UNL d   1      26.546 -12.358  -2.267  0.00  0.00     0.013 A 
BRANCH  16  19
ATOM     19  C   UNL d   1      26.624 -10.402  -5.509  0.00  0.00     0.249 C 
ATOM     20  N   UNL d   1      25.441 -10.017  -6.082  0.00  0.00    -0.366 N 
ATOM     21  H   UNL d   1      24.545 -10.451  -5.924  0.00  0.00     0.159 HD
ATOM     22  H   UNL d   1      25.465  -9.249  -6.738  0.00  0.00     0.159 HD
ATOM     23  O   UNL d   1      27.666  -9.817  -5.776  0.00  0.00    -0.268 OA
ENDBRANCH  16  19
ENDBRANCH   7  13
BRANCH   1  24
ATOM     24  C   UNL d   1      24.134 -17.551  -0.586  0.00  0.00     0.034 A 
ATOM     25  C   UNL d   1      24.105 -18.938  -0.531  0.00  0.00     0.022 A 
ATOM     26  C   UNL d   1      22.792 -19.485  -0.521  0.00  0.00     0.015 A 
ATOM     27  C   UNL d   1      21.823 -18.507  -0.541  0.00  0.00    -0.021 A 
ATOM     28  C   UNL d   1      20.341 -18.703  -0.524  0.00  0.00     0.056 C 
ATOM     29  S   UNL d   1      22.526 -16.935  -0.588  0.00  0.00    -0.093 SA
ENDBRANCH   1  24
TORSDOF 4
ENDMDL
MODEL 7
REMARK VINA RESULT:    -6.935      2.575      4.786
REMARK INTER + INTRA:          -9.116
REMARK INTER:                  -8.128
REMARK INTRA:                  -0.989
REMARK CONF_INDEPENDENT:        1.193
REMARK UNBOUND:                -0.989
REMARK  4 active torsions:
REMARK  status: ('A' for Active; 'I' for Inactive)
REMARK    1  A    between atoms: C_5  and  C_6 
REMARK    2  A    between atoms: C_8  and  N_9 
REMARK    3  A    between atoms: C_13  and  C_14 
REMARK    4  A    between atoms: C_17  and  C_18 
REMARK       I    between atoms: C_18  and  N_19 
ROOT
ATOM      1  C   UNL d   1      28.310 -15.490  -0.926  0.00  0.00     0.083 A 
ATOM      2  N   UNL d   1      28.306 -14.438  -1.799  0.00  0.00    -0.228 NA
ATOM      3  C   UNL d   1      27.148 -14.124  -2.439  0.00  0.00     0.143 A 
ATOM      4  C   UNL d   1      25.969 -14.840  -2.236  0.00  0.00     0.101 A 
ATOM      5  C   UNL d   1      24.775 -14.461  -2.940  0.00  0.00     0.104 C 
ATOM      6  N   UNL d   1      23.819 -14.162  -3.536  0.00  0.00    -0.191 NA
ATOM      7  C   UNL d   1      25.966 -15.925  -1.337  0.00  0.00     0.007 A 
ATOM      8  C   UNL d   1      27.166 -16.268  -0.671  0.00  0.00    -0.019 A 
ATOM      9  C   UNL d   1      27.228 -17.436   0.286  0.00  0.00     0.052 C 
ENDROOT
BRANCH   3  10
ATOM     10  N   UNL d   1      27.184 -13.084  -3.354  0.00  0.00    -0.383 N 
ATOM     11  H   UNL d   1      28.043 -12.564  -3.455  0.00  0.00     0.157 HD
ATOM     12  H   UNL d   1      26.348 -12.744  -3.815  0.00  0.00     0.157 HD
ENDBRANCH   3  10
BRANCH   7  13
ATOM     13  C   UNL d   1      24.734 -16.706  -1.139  0.00  0.00    -0.024 A 
ATOM     14  C   UNL d   1      23.826 -16.324  -0.145  0.00  0.00     0.013 A 
ATOM     15  C   UNL d   1      22.654 -17.041   0.063  0.00  0.00     0.018 A 
ATOM     16  C   UNL d   1      22.342 -18.137  -0.742  0.00  0.00     0.031 A 
ATOM     17  C   UNL d   1      23.236 -18.522  -1.751  0.00  0.00     0.018 A 
ATOM     18  C   UNL d   1      24.434 -17.825  -1.932  0.00  0.00     0.013 A 
BRANCH  16  19
ATOM     19  C   UNL d   1      21.077 -18.900  -0.548  0.00  0.00     0.249 C 
ATOM     20  N   UNL d   1      21.130 -20.054   0.189  0.00  0.00    -0.366 N 
ATOM     21  H   UNL d   1      21.961 -20.446   0.605  0.00  0.00     0.159 HD
ATOM     22  H   UNL d   1      20.273 -20.575   0.308  0.00  0.00     0.159 HD
ATOM     23  O   UNL d   1      20.018 -18.513  -1.024  0.00  0.00    -0.268 OA
ENDBRANCH  16  19
ENDBRANCH   7  13
BRANCH   1  24
ATOM     24  C   UNL d   1      29.619 -15.845  -0.316  0.00  0.00     0.034 A 
ATOM     25  C   UNL d   1      30.387 -16.977  -0.551  0.00  0.00     0.022 A 
ATOM     26  C   UNL d   1      31.521 -17.089   0.300  0.00  0.00     0.015 A 
ATOM     27  C   UNL d   1      31.627 -16.022   1.164  0.00  0.00    -0.021 A 
ATOM     28  C   UNL d   1      32.693 -15.791   2.188  0.00  0.00     0.056 C 
ATOM     29  S   UNL d   1      30.334 -14.908   0.938  0.00  0.00    -0.093 SA
ENDBRANCH   1  24
TORSDOF 4
ENDMDL
MODEL 8
REMARK VINA RESULT:    -6.751      4.584      8.586
REMARK INTER + INTRA:          -8.757
REMARK INTER:                  -7.945
REMARK INTRA:                  -0.813
REMARK CONF_INDEPENDENT:        1.193
REMARK UNBOUND:                -0.813
REMARK  4 active torsions:
REMARK  status: ('A' for Active; 'I' for Inactive)
REMARK    1  A    between atoms: C_5  and  C_6 
REMARK    2  A    between atoms: C_8  and  N_9 
REMARK    3  A    between atoms: C_13  and  C_14 
REMARK    4  A    between atoms: C_17  and  C_18 
REMARK       I    between atoms: C_18  and  N_19 
ROOT
ATOM      1  C   UNL d   1      26.910 -14.993  -3.882  0.00  0.00     0.083 A 
ATOM      2  N   UNL d   1      27.719 -15.505  -4.857  0.00  0.00    -0.228 NA
ATOM      3  C   UNL d   1      28.100 -14.697  -5.882  0.00  0.00     0.143 A 
ATOM      4  C   UNL d   1      27.692 -13.366  -5.970  0.00  0.00     0.101 A 
ATOM      5  C   UNL d   1      28.127 -12.559  -7.076  0.00  0.00     0.104 C 
ATOM      6  N   UNL d   1      28.464 -11.920  -7.991  0.00  0.00    -0.191 NA
ATOM      7  C   UNL d   1      26.858 -12.832  -4.967  0.00  0.00     0.007 A 
ATOM      8  C   UNL d   1      26.447 -13.664  -3.900  0.00  0.00    -0.019 A 
ATOM      9  C   UNL d   1      25.536 -13.152  -2.809  0.00  0.00     0.052 C 
ENDROOT
BRANCH   3  10
ATOM     10  N   UNL d   1      28.879 -15.254  -6.882  0.00  0.00    -0.383 N 
ATOM     11  H   UNL d   1      29.542 -15.972  -6.630  0.00  0.00     0.157 HD
ATOM     12  H   UNL d   1      28.905 -14.873  -7.821  0.00  0.00     0.157 HD
ENDBRANCH   3  10
BRANCH   7  13
ATOM     13  C   UNL d   1      26.397 -11.437  -5.067  0.00  0.00    -0.024 A 
ATOM     14  C   UNL d   1      25.606 -11.047  -6.153  0.00  0.00     0.013 A 
ATOM     15  C   UNL d   1      25.155  -9.738  -6.273  0.00  0.00     0.018 A 
ATOM     16  C   UNL d   1      25.452  -8.794  -5.289  0.00  0.00     0.031 A 
ATOM     17  C   UNL d   1      26.232  -9.175  -4.188  0.00  0.00     0.018 A 
ATOM     18  C   UNL d   1      26.720 -10.482  -4.091  0.00  0.00     0.013 A 
BRANCH  16  19
ATOM     19  C   UNL d   1      24.954  -7.394  -5.390  0.00  0.00     0.249 C 
ATOM     20  N   UNL d   1      24.405  -6.826  -4.270  0.00  0.00    -0.366 N 
ATOM     21  H   UNL d   1      24.293  -7.281  -3.377  0.00  0.00     0.159 HD
ATOM     22  H   UNL d   1      24.057  -5.880  -4.345  0.00  0.00     0.159 HD
ATOM     23  O   UNL d   1      25.034  -6.761  -6.434  0.00  0.00    -0.268 OA
ENDBRANCH  16  19
ENDBRANCH   7  13
BRANCH   1  24
ATOM     24  C   UNL d   1      26.453 -15.939  -2.829  0.00  0.00     0.034 A 
ATOM     25  C   UNL d   1      25.155 -16.352  -2.562  0.00  0.00     0.022 A 
ATOM     26  C   UNL d   1      25.036 -17.155  -1.394  0.00  0.00     0.015 A 
ATOM     27  C   UNL d   1      26.254 -17.374  -0.790  0.00  0.00    -0.021 A 
ATOM     28  C   UNL d   1      26.520 -18.178   0.442  0.00  0.00     0.056 C 
ATOM     29  S   UNL d   1      27.524 -16.584  -1.645  0.00  0.00    -0.093 SA
ENDBRANCH   1  24
TORSDOF 4
ENDMDL
MODEL 9
REMARK VINA RESULT:    -6.605      3.813      7.850
REMARK INTER + INTRA:          -8.763
REMARK INTER:                  -7.799
REMARK INTRA:                  -0.964
REMARK CONF_INDEPENDENT:        1.193
REMARK UNBOUND:                -0.964
REMARK  4 active torsions:
REMARK  status: ('A' for Active; 'I' for Inactive)
REMARK    1  A    between atoms: C_5  and  C_6 
REMARK    2  A    between atoms: C_8  and  N_9 
REMARK    3  A    between atoms: C_13  and  C_14 
REMARK    4  A    between atoms: C_17  and  C_18 
REMARK       I    between atoms: C_18  and  N_19 
ROOT
ATOM      1  C   UNL d   1      25.801 -15.106  -1.092  0.00  0.00     0.083 A 
ATOM      2  N   UNL d   1      26.280 -14.338  -0.068  0.00  0.00    -0.228 NA
ATOM      3  C   UNL d   1      27.031 -13.245  -0.365  0.00  0.00     0.143 A 
ATOM      4  C   UNL d   1      27.329 -12.883  -1.678  0.00  0.00     0.101 A 
ATOM      5  C   UNL d   1      28.127 -11.715  -1.932  0.00  0.00     0.104 C 
ATOM      6  N   UNL d   1      28.797 -10.782  -2.127  0.00  0.00    -0.191 NA
ATOM      7  C   UNL d   1      26.838 -13.670  -2.740  0.00  0.00     0.007 A 
ATOM      8  C   UNL d   1      26.063 -14.816  -2.444  0.00  0.00    -0.019 A 
ATOM      9  C   UNL d   1      25.530 -15.708  -3.540  0.00  0.00     0.052 C 
ENDROOT
BRANCH   3  10
ATOM     10  N   UNL d   1      27.543 -12.512   0.693  0.00  0.00    -0.383 N 
ATOM     11  H   UNL d   1      27.201 -12.708   1.622  0.00  0.00     0.157 HD
ATOM     12  H   UNL d   1      28.138 -11.704   0.551  0.00  0.00     0.157 HD
ENDBRANCH   3  10
BRANCH   7  13
ATOM     13  C   UNL d   1      27.173 -13.314  -4.128  0.00  0.00    -0.024 A 
ATOM     14  C   UNL d   1      26.561 -12.205  -4.725  0.00  0.00     0.013 A 
ATOM     15  C   UNL d   1      26.859 -11.844  -6.032  0.00  0.00     0.018 A 
ATOM     16  C   UNL d   1      27.805 -12.560  -6.767  0.00  0.00     0.031 A 
ATOM     17  C   UNL d   1      28.437 -13.665  -6.177  0.00  0.00     0.018 A 
ATOM     18  C   UNL d   1      28.105 -14.052  -4.875  0.00  0.00     0.013 A 
BRANCH  16  19
ATOM     19  C   UNL d   1      28.155 -12.170  -8.161  0.00  0.00     0.249 C 
ATOM     20  N   UNL d   1      29.056 -12.950  -8.839  0.00  0.00    -0.366 N 
ATOM     21  H   UNL d   1      29.520 -13.765  -8.469  0.00  0.00     0.159 HD
ATOM     22  H   UNL d   1      29.300 -12.675  -9.780  0.00  0.00     0.159 HD
ATOM     23  O   UNL d   1      27.655 -11.189  -8.695  0.00  0.00    -0.268 OA
ENDBRANCH  16  19
ENDBRANCH   7  13
BRANCH   1  24
ATOM     24  C   UNL d   1      25.058 -16.337  -0.713  0.00  0.00     0.034 A 
ATOM     25  C   UNL d   1      25.581 -17.549  -0.284  0.00  0.00     0.022 A 
ATOM     26  C   UNL d   1      24.608 -18.576  -0.137  0.00  0.00     0.015 A 
ATOM     27  C   UNL d   1      23.338 -18.130  -0.429  0.00  0.00    -0.021 A 
ATOM     28  C   UNL d   1      22.069 -18.919  -0.371  0.00  0.00     0.056 C 
ATOM     29  S   UNL d   1      23.351 -16.472  -0.895  0.00  0.00    -0.093 SA
ENDBRANCH   1  24
TORSDOF 4
ENDMDL
