MODEL 1
REMARK VINA RESULT:   -21.261      0.000      0.000
REMARK INTER + INTRA:         -24.693
REMARK INTER:                 -23.946
REMARK INTRA:                  -0.747
REMARK CONF_INDEPENDENT:        2.685
REMARK UNBOUND:                -0.747
REMARK  9 active torsions:
REMARK  status: ('A' for Active; 'I' for Inactive)
REMARK    1  A    between atoms: O_2  and  C_3 
REMARK    2  A    between atoms: C_7  and  N_8 
REMARK    3  A    between atoms: C_12  and  S_13 
REMARK    4  A    between atoms: S_13  and  C_14 
REMARK    5  A    between atoms: C_14  and  C_15 
REMARK       I    between atoms: C_15  and  N_17 
REMARK    6  A    between atoms: N_17  and  C_18 
REMARK    7  A    between atoms: C_18  and  C_19 
REMARK    8  A    between atoms: C_19  and  C_20 
REMARK    9  A    between atoms: C_25  and  O_26 
ROOT
ATOM      1  C   UNL d   1      26.491 -15.190   0.336  0.00  0.00     0.180 C 
ENDROOT
BRANCH   1   2
ATOM      2  S   UNL d   1      27.891 -15.829   1.485  0.00  0.00    -0.116 SA
BRANCH   2   3
ATOM      3  C   UNL d   1      29.401 -14.849   1.075  0.00  0.00     0.267 C 
ATOM      4  N   UNL d   1      30.519 -15.812   0.759  0.00  0.00    -0.105 NA
ATOM      5  N   UNL d   1      31.586 -15.465   1.734  0.00  0.00     0.072 N 
ATOM      6  H   UNL d   1      30.149 -16.755   0.908  0.00  0.00     0.158 HD
ATOM      7  N   UNL d   1      31.343 -14.131   2.158  0.00  0.00    -0.042 NA
ATOM      8  H   UNL d   1      31.541 -16.097   2.558  0.00  0.00     0.325 HD
ATOM      9  H   UNL d   1      32.536 -15.571   1.322  0.00  0.00     0.325 HD
ATOM     10  N   UNL d   1      29.958 -13.981   2.106  0.00  0.00    -0.259 N 
ATOM     11  H   UNL d   1      31.749 -13.866   3.067  0.00  0.00     0.181 HD
BRANCH  10  12
ATOM     12  C   UNL d   1      29.307 -13.131   2.973  0.00  0.00     0.052 C 
ATOM     13  C   UNL d   1      29.087 -11.789   2.640  0.00  0.00     0.031 C 
ATOM     14  C   UNL d   1      28.540 -10.894   3.559  0.00  0.00     0.005 C 
ATOM     15  C   UNL d   1      28.117 -11.357   4.797  0.00  0.00     0.037 C 
ATOM     16  C   UNL d   1      28.197 -12.718   5.096  0.00  0.00     0.070 C 
ATOM     17  C   UNL d   1      28.812 -13.593   4.196  0.00  0.00     0.067 C 
BRANCH  16  18
ATOM     18  O   UNL d   1      27.560 -13.098   6.242  0.00  0.00    -0.356 OA
ATOM     19  C   UNL d   1      28.065 -12.580   7.465  0.00  0.00     0.210 C 
ENDBRANCH  16  18
ENDBRANCH  10  12
ENDBRANCH   2   3
ENDBRANCH   1   2
BRANCH   1  20
ATOM     20  C   UNL d   1      26.139 -16.208  -0.836  0.00  0.00     0.227 C 
ATOM     21  O   UNL d   1      27.078 -16.722  -1.521  0.00  0.00    -0.273 OA
ATOM     22  N   UNL d   1      24.779 -16.537  -1.100  0.00  0.00    -0.360 N 
ATOM     23  H   UNL d   1      24.118 -16.275  -0.375  0.00  0.00     0.162 HD
BRANCH  22  24
ATOM     24  C   UNL d   1      24.214 -17.476  -2.280  0.00  0.00     0.123 C 
BRANCH  24  25
ATOM     25  C   UNL d   1      23.053 -18.789  -1.847  0.00  0.00     0.037 C 
BRANCH  25  26
ATOM     26  C   UNL d   1      21.720 -18.829  -0.620  0.00  0.00     0.021 C 
ATOM     27  C   UNL d   1      20.837 -19.704  -1.230  0.00  0.00     0.093 C 
ATOM     28  N   UNL d   1      19.704 -18.983  -0.940  0.00  0.00    -0.285 NA
ATOM     29  C   UNL d   1      19.501 -19.310   0.370  0.00  0.00     0.018 A 
ATOM     30  H   UNL d   1      19.603 -18.004  -1.152  0.00  0.00     0.128 HD
ATOM     31  C   UNL d   1      18.254 -19.701   0.923  0.00  0.00     0.060 A 
ATOM     32  C   UNL d   1      20.830 -19.279   0.865  0.00  0.00    -0.025 A 
ATOM     33  C   UNL d   1      18.087 -20.207   2.192  0.00  0.00     0.070 A 
ATOM     34  C   UNL d   1      19.286 -20.351   2.867  0.00  0.00     0.037 A 
ATOM     35  C   UNL d   1      20.671 -19.883   2.263  0.00  0.00     0.012 A 
BRANCH  33  36
ATOM     36  O   UNL d   1      16.782 -20.503   2.479  0.00  0.00    -0.356 OA
ATOM     37  C   UNL d   1      16.078 -20.067   3.638  0.00  0.00     0.210 C 
ENDBRANCH  33  36
ENDBRANCH  25  26
ENDBRANCH  24  25
ENDBRANCH  22  24
ENDBRANCH   1  20
TORSDOF 9
ENDMDL
MODEL 2
REMARK VINA RESULT:   -20.523      1.886      2.590
REMARK INTER + INTRA:         -24.024
REMARK INTER:                 -23.207
REMARK INTRA:                  -0.817
REMARK CONF_INDEPENDENT:        2.685
REMARK UNBOUND:                -0.817
REMARK  9 active torsions:
REMARK  status: ('A' for Active; 'I' for Inactive)
REMARK    1  A    between atoms: O_2  and  C_3 
REMARK    2  A    between atoms: C_7  and  N_8 
REMARK    3  A    between atoms: C_12  and  S_13 
REMARK    4  A    between atoms: S_13  and  C_14 
REMARK    5  A    between atoms: C_14  and  C_15 
REMARK       I    between atoms: C_15  and  N_17 
REMARK    6  A    between atoms: N_17  and  C_18 
REMARK    7  A    between atoms: C_18  and  C_19 
REMARK    8  A    between atoms: C_19  and  C_20 
REMARK    9  A    between atoms: C_25  and  O_26 
ROOT
ATOM      1  C   UNL d   1      26.988 -15.052   0.205  0.00  0.00     0.180 C 
ENDROOT
BRANCH   1   2
ATOM      2  S   UNL d   1      28.531 -15.839   1.035  0.00  0.00    -0.116 SA
BRANCH   2   3
ATOM      3  C   UNL d   1      29.964 -14.745   0.634  0.00  0.00     0.267 C 
ATOM      4  N   UNL d   1      31.225 -15.425   1.108  0.00  0.00    -0.105 NA
ATOM      5  N   UNL d   1      31.831 -14.452   2.054  0.00  0.00     0.072 N 
ATOM      6  H   UNL d   1      30.937 -16.291   1.573  0.00  0.00     0.158 HD
ATOM      7  N   UNL d   1      31.301 -13.174   1.731  0.00  0.00    -0.042 NA
ATOM      8  H   UNL d   1      31.571 -14.690   3.033  0.00  0.00     0.325 HD
ATOM      9  H   UNL d   1      32.870 -14.461   2.007  0.00  0.00     0.325 HD
ATOM     10  N   UNL d   1      30.016 -13.426   1.252  0.00  0.00    -0.259 N 
ATOM     11  H   UNL d   1      31.325 -12.472   2.486  0.00  0.00     0.181 HD
BRANCH  10  12
ATOM     12  C   UNL d   1      29.007 -12.504   1.420  0.00  0.00     0.052 C 
ATOM     13  C   UNL d   1      28.048 -12.657   2.428  0.00  0.00     0.031 C 
ATOM     14  C   UNL d   1      26.954 -11.798   2.527  0.00  0.00     0.005 C 
ATOM     15  C   UNL d   1      26.859 -10.711   1.670  0.00  0.00     0.037 C 
ATOM     16  C   UNL d   1      27.877 -10.458   0.749  0.00  0.00     0.070 C 
ATOM     17  C   UNL d   1      28.931 -11.366   0.611  0.00  0.00     0.067 C 
BRANCH  16  18
ATOM     18  O   UNL d   1      27.794  -9.255   0.109  0.00  0.00    -0.356 OA
ATOM     19  C   UNL d   1      27.018  -9.207  -1.080  0.00  0.00     0.210 C 
ENDBRANCH  16  18
ENDBRANCH  10  12
ENDBRANCH   2   3
ENDBRANCH   1   2
BRANCH   1  20
ATOM     20  C   UNL d   1      26.421 -15.923  -1.000  0.00  0.00     0.227 C 
ATOM     21  O   UNL d   1      27.199 -16.263  -1.945  0.00  0.00    -0.273 OA
ATOM     22  N   UNL d   1      25.053 -16.319  -1.001  0.00  0.00    -0.360 N 
ATOM     23  H   UNL d   1      24.567 -16.212  -0.116  0.00  0.00     0.162 HD
BRANCH  22  24
ATOM     24  C   UNL d   1      24.274 -17.129  -2.155  0.00  0.00     0.123 C 
BRANCH  24  25
ATOM     25  C   UNL d   1      23.233 -18.521  -1.669  0.00  0.00     0.037 C 
BRANCH  25  26
ATOM     26  C   UNL d   1      21.845 -18.608  -0.506  0.00  0.00     0.021 C 
ATOM     27  C   UNL d   1      21.088 -19.611  -1.087  0.00  0.00     0.093 C 
ATOM     28  N   UNL d   1      19.875 -18.992  -0.908  0.00  0.00    -0.285 NA
ATOM     29  C   UNL d   1      19.634 -19.242   0.413  0.00  0.00     0.018 A 
ATOM     30  H   UNL d   1      19.689 -18.047  -1.200  0.00  0.00     0.128 HD
ATOM     31  C   UNL d   1      18.404 -19.718   0.935  0.00  0.00     0.060 A 
ATOM     32  C   UNL d   1      20.924 -19.038   0.966  0.00  0.00    -0.025 A 
ATOM     33  C   UNL d   1      18.218 -20.143   2.231  0.00  0.00     0.070 A 
ATOM     34  C   UNL d   1      19.387 -20.114   2.971  0.00  0.00     0.037 A 
ATOM     35  C   UNL d   1      20.749 -19.551   2.398  0.00  0.00     0.012 A 
BRANCH  33  36
ATOM     36  O   UNL d   1      16.935 -20.551   2.478  0.00  0.00    -0.356 OA
ATOM     37  C   UNL d   1      16.113 -20.072   3.539  0.00  0.00     0.210 C 
ENDBRANCH  33  36
ENDBRANCH  25  26
ENDBRANCH  24  25
ENDBRANCH  22  24
ENDBRANCH   1  20
TORSDOF 9
ENDMDL
