MODEL 1
REMARK VINA RESULT:   -10.773      0.000      0.000
REMARK INTER + INTRA:         -13.580
REMARK INTER:                 -12.563
REMARK INTRA:                  -1.016
REMARK CONF_INDEPENDENT:        1.790
REMARK UNBOUND:                -1.016
REMARK  6 active torsions:
REMARK  status: ('A' for Active; 'I' for Inactive)
REMARK    1  A    between atoms: C_2  and  O_3 
REMARK    2  A    between atoms: O_3  and  C_4 
REMARK    3  A    between atoms: C_4  and  C_6 
REMARK    4  A    between atoms: C_9  and  C_10 
REMARK    5  A    between atoms: C_14  and  C_13 
REMARK    6  A    between atoms: C_16  and  O_17 
ROOT
ATOM      1  C   UNL d   1      28.396 -14.600  -0.403  0.00  0.00     0.267 C 
ATOM      2  N   UNL d   1      29.783 -14.886   0.075  0.00  0.00    -0.233 NA
ATOM      3  C   UNL d   1      29.980 -14.671   1.325  0.00  0.00     0.173 C 
ATOM      4  C   UNL d   1      29.001 -14.144   2.241  0.00  0.00     0.057 A 
ATOM      5  C   UNL d   1      27.888 -13.553   1.697  0.00  0.00     0.087 A 
ATOM      6  S   UNL d   1      26.823 -12.967   2.895  0.00  0.00    -0.074 SA
ATOM      7  C   UNL d   1      27.847 -13.511   4.157  0.00  0.00     0.018 A 
ATOM      8  C   UNL d   1      28.982 -14.138   3.663  0.00  0.00    -0.024 A 
ATOM      9  C   UNL d   1      30.053 -14.682   4.563  0.00  0.00     0.068 C 
ATOM     10  C   UNL d   1      29.548 -14.805   6.004  0.00  0.00     0.239 C 
ATOM     11  N   UNL d   1      28.858 -13.510   6.432  0.00  0.00    -0.070 N 
ATOM     12  C   UNL d   1      29.766 -12.309   6.331  0.00  0.00     0.270 C 
ATOM     13  C   UNL d   1      27.565 -13.310   5.620  0.00  0.00     0.281 C 
ATOM     14  N   UNL d   1      27.735 -13.510   0.354  0.00  0.00    -0.355 N 
ATOM     15  H   UNL d   1      28.595 -13.611   7.421  0.00  0.00     0.279 HD
ATOM     16  H   UNL d   1      26.936 -13.081  -0.102  0.00  0.00     0.162 HD
ENDROOT
BRANCH   1  17
ATOM     17  C   UNL d   1      27.608 -15.913  -0.354  0.00  0.00     0.098 A 
ATOM     18  C   UNL d   1      28.086 -17.200  -0.200  0.00  0.00     0.040 A 
ATOM     19  C   UNL d   1      26.984 -18.062  -0.156  0.00  0.00     0.041 A 
ATOM     20  C   UNL d   1      25.859 -17.285  -0.329  0.00  0.00     0.086 A 
ATOM     21  O   UNL d   1      26.226 -15.954  -0.455  0.00  0.00    -0.310 OA
BRANCH  20  22
ATOM     22  C   UNL d   1      24.447 -17.678  -0.374  0.00  0.00    -0.002 A 
ATOM     23  C   UNL d   1      23.448 -16.787  -0.772  0.00  0.00     0.015 A 
ATOM     24  C   UNL d   1      22.109 -17.214  -0.894  0.00  0.00     0.018 A 
ATOM     25  C   UNL d   1      21.758 -18.560  -0.694  0.00  0.00     0.039 A 
ATOM     26  C   UNL d   1      22.753 -19.464  -0.317  0.00  0.00     0.018 A 
ATOM     27  C   UNL d   1      24.083 -19.025  -0.171  0.00  0.00     0.015 A 
BRANCH  25  28
ATOM     28  C   UNL d   1      20.398 -19.030  -1.081  0.00  0.00     0.293 C 
ATOM     29  O   UNL d   1      20.216 -19.706  -2.094  0.00  0.00    -0.259 OA
BRANCH  28  30
ATOM     30  O   UNL d   1      19.434 -18.658  -0.199  0.00  0.00    -0.318 OA
BRANCH  30  31
ATOM     31  C   UNL d   1      19.270 -19.566   0.914  0.00  0.00     0.174 C 
ATOM     32  C   UNL d   1      18.450 -20.774   0.488  0.00  0.00     0.034 C 
ENDBRANCH  30  31
ENDBRANCH  28  30
ENDBRANCH  25  28
ENDBRANCH  20  22
ENDBRANCH   1  17
BRANCH   3  33
ATOM     33  O   UNL d   1      31.177 -14.958   1.872  0.00  0.00    -0.344 OA
ATOM     34  H   UNL d   1      31.157 -15.885   2.163  0.00  0.00     0.219 HD
ENDBRANCH   3  33
TORSDOF 6
ENDMDL
MODEL 2
REMARK VINA RESULT:    -9.654      3.032      3.398
REMARK INTER + INTRA:         -12.254
REMARK INTER:                 -11.444
REMARK INTRA:                  -0.810
REMARK CONF_INDEPENDENT:        1.790
REMARK UNBOUND:                -0.810
REMARK  6 active torsions:
REMARK  status: ('A' for Active; 'I' for Inactive)
REMARK    1  A    between atoms: C_2  and  O_3 
REMARK    2  A    between atoms: O_3  and  C_4 
REMARK    3  A    between atoms: C_4  and  C_6 
REMARK    4  A    between atoms: C_9  and  C_10 
REMARK    5  A    between atoms: C_14  and  C_13 
REMARK    6  A    between atoms: C_16  and  O_17 
ROOT
ATOM      1  C   UNL d   1      28.768 -16.187  -2.437  0.00  0.00     0.267 C 
ATOM      2  N   UNL d   1      29.452 -17.447  -2.017  0.00  0.00    -0.233 NA
ATOM      3  C   UNL d   1      30.362 -17.297  -1.123  0.00  0.00     0.173 C 
ATOM      4  C   UNL d   1      30.778 -16.036  -0.566  0.00  0.00     0.057 A 
ATOM      5  C   UNL d   1      30.401 -14.899  -1.237  0.00  0.00     0.087 A 
ATOM      6  S   UNL d   1      30.970 -13.484  -0.471  0.00  0.00    -0.074 SA
ATOM      7  C   UNL d   1      31.723 -14.387   0.775  0.00  0.00     0.018 A 
ATOM      8  C   UNL d   1      31.532 -15.751   0.607  0.00  0.00    -0.024 A 
ATOM      9  C   UNL d   1      32.113 -16.765   1.549  0.00  0.00     0.068 C 
ATOM     10  C   UNL d   1      32.563 -16.104   2.856  0.00  0.00     0.239 C 
ATOM     11  N   UNL d   1      33.398 -14.858   2.555  0.00  0.00    -0.070 N 
ATOM     12  C   UNL d   1      34.614 -15.166   1.717  0.00  0.00     0.270 C 
ATOM     13  C   UNL d   1      32.517 -13.781   1.898  0.00  0.00     0.281 C 
ATOM     14  N   UNL d   1      29.645 -14.995  -2.354  0.00  0.00    -0.355 N 
ATOM     15  H   UNL d   1      33.733 -14.486   3.453  0.00  0.00     0.279 HD
ATOM     16  H   UNL d   1      29.343 -14.189  -2.892  0.00  0.00     0.162 HD
ENDROOT
BRANCH   1  17
ATOM     17  C   UNL d   1      27.499 -16.044  -1.591  0.00  0.00     0.098 A 
ATOM     18  C   UNL d   1      27.198 -15.084  -0.644  0.00  0.00     0.040 A 
ATOM     19  C   UNL d   1      25.900 -15.332  -0.183  0.00  0.00     0.041 A 
ATOM     20  C   UNL d   1      25.453 -16.465  -0.829  0.00  0.00     0.086 A 
ATOM     21  O   UNL d   1      26.430 -16.919  -1.701  0.00  0.00    -0.310 OA
BRANCH  20  22
ATOM     22  C   UNL d   1      24.170 -17.164  -0.713  0.00  0.00    -0.002 A 
ATOM     23  C   UNL d   1      22.954 -16.509  -0.922  0.00  0.00     0.015 A 
ATOM     24  C   UNL d   1      21.738 -17.222  -0.894  0.00  0.00     0.018 A 
ATOM     25  C   UNL d   1      21.721 -18.617  -0.733  0.00  0.00     0.039 A 
ATOM     26  C   UNL d   1      22.932 -19.286  -0.545  0.00  0.00     0.018 A 
ATOM     27  C   UNL d   1      24.141 -18.564  -0.548  0.00  0.00     0.015 A 
BRANCH  25  28
ATOM     28  C   UNL d   1      20.455 -19.369  -0.967  0.00  0.00     0.293 C 
ATOM     29  O   UNL d   1      20.268 -20.003  -2.006  0.00  0.00    -0.259 OA
BRANCH  28  30
ATOM     30  O   UNL d   1      19.588 -19.291   0.075  0.00  0.00    -0.318 OA
BRANCH  30  31
ATOM     31  C   UNL d   1      19.386 -20.542   0.770  0.00  0.00     0.174 C 
ATOM     32  C   UNL d   1      18.070 -21.172   0.343  0.00  0.00     0.034 C 
ENDBRANCH  30  31
ENDBRANCH  28  30
ENDBRANCH  25  28
ENDBRANCH  20  22
ENDBRANCH   1  17
BRANCH   3  33
ATOM     33  O   UNL d   1      30.996 -18.377  -0.627  0.00  0.00    -0.344 OA
ATOM     34  H   UNL d   1      30.683 -18.514   0.283  0.00  0.00     0.219 HD
ENDBRANCH   3  33
TORSDOF 6
ENDMDL
MODEL 3
REMARK VINA RESULT:    -9.648      1.811      2.173
REMARK INTER + INTRA:         -12.358
REMARK INTER:                 -11.438
REMARK INTRA:                  -0.921
REMARK CONF_INDEPENDENT:        1.790
REMARK UNBOUND:                -0.921
REMARK  6 active torsions:
REMARK  status: ('A' for Active; 'I' for Inactive)
REMARK    1  A    between atoms: C_2  and  O_3 
REMARK    2  A    between atoms: O_3  and  C_4 
REMARK    3  A    between atoms: C_4  and  C_6 
REMARK    4  A    between atoms: C_9  and  C_10 
REMARK    5  A    between atoms: C_14  and  C_13 
REMARK    6  A    between atoms: C_16  and  O_17 
ROOT
ATOM      1  C   UNL d   1      27.807 -14.112  -1.776  0.00  0.00     0.267 C 
ATOM      2  N   UNL d   1      29.214 -14.424  -2.169  0.00  0.00    -0.233 NA
ATOM      3  C   UNL d   1      30.089 -14.231  -1.248  0.00  0.00     0.173 C 
ATOM      4  C   UNL d   1      29.810 -13.706   0.064  0.00  0.00     0.057 A 
ATOM      5  C   UNL d   1      28.596 -13.092   0.249  0.00  0.00     0.087 A 
ATOM      6  S   UNL d   1      28.407 -12.512   1.843  0.00  0.00    -0.074 SA
ATOM      7  C   UNL d   1      29.954 -13.088   2.301  0.00  0.00     0.018 A 
ATOM      8  C   UNL d   1      30.598 -13.722   1.248  0.00  0.00    -0.024 A 
ATOM      9  C   UNL d   1      31.980 -14.294   1.380  0.00  0.00     0.068 C 
ATOM     10  C   UNL d   1      32.377 -14.433   2.854  0.00  0.00     0.239 C 
ATOM     11  N   UNL d   1      32.074 -13.136   3.605  0.00  0.00    -0.070 N 
ATOM     12  C   UNL d   1      32.789 -11.946   3.015  0.00  0.00     0.270 C 
ATOM     13  C   UNL d   1      30.553 -12.907   3.667  0.00  0.00     0.281 C 
ATOM     14  N   UNL d   1      27.711 -13.027  -0.772  0.00  0.00    -0.355 N 
ATOM     15  H   UNL d   1      32.415 -13.250   4.568  0.00  0.00     0.279 HD
ATOM     16  H   UNL d   1      26.802 -12.580  -0.693  0.00  0.00     0.162 HD
ENDROOT
BRANCH   1  17
ATOM     17  C   UNL d   1      27.159 -15.415  -1.298  0.00  0.00     0.098 A 
ATOM     18  C   UNL d   1      27.766 -16.530  -0.752  0.00  0.00     0.040 A 
ATOM     19  C   UNL d   1      26.759 -17.442  -0.416  0.00  0.00     0.041 A 
ATOM     20  C   UNL d   1      25.562 -16.881  -0.805  0.00  0.00     0.086 A 
ATOM     21  O   UNL d   1      25.791 -15.630  -1.354  0.00  0.00    -0.310 OA
BRANCH  20  22
ATOM     22  C   UNL d   1      24.200 -17.412  -0.694  0.00  0.00    -0.002 A 
ATOM     23  C   UNL d   1      23.078 -16.610  -0.917  0.00  0.00     0.015 A 
ATOM     24  C   UNL d   1      21.781 -17.164  -0.894  0.00  0.00     0.018 A 
ATOM     25  C   UNL d   1      21.587 -18.545  -0.725  0.00  0.00     0.039 A 
ATOM     26  C   UNL d   1      22.703 -19.359  -0.523  0.00  0.00     0.018 A 
ATOM     27  C   UNL d   1      23.993 -18.796  -0.521  0.00  0.00     0.015 A 
BRANCH  25  28
ATOM     28  C   UNL d   1      20.238 -19.132  -0.965  0.00  0.00     0.293 C 
ATOM     29  O   UNL d   1      19.964 -19.700  -2.022  0.00  0.00    -0.259 OA
BRANCH  28  30
ATOM     30  O   UNL d   1      19.399 -18.993   0.095  0.00  0.00    -0.318 OA
BRANCH  30  31
ATOM     31  C   UNL d   1      19.496 -20.057   1.068  0.00  0.00     0.174 C 
ATOM     32  C   UNL d   1      18.462 -21.132   0.773  0.00  0.00     0.034 C 
ENDBRANCH  30  31
ENDBRANCH  28  30
ENDBRANCH  25  28
ENDBRANCH  20  22
ENDBRANCH   1  17
BRANCH   3  33
ATOM     33  O   UNL d   1      31.379 -14.541  -1.476  0.00  0.00    -0.344 OA
ATOM     34  H   UNL d   1      31.424 -15.032  -2.313  0.00  0.00     0.219 HD
ENDBRANCH   3  33
TORSDOF 6
ENDMDL
MODEL 4
REMARK VINA RESULT:    -9.498      3.888      6.409
REMARK INTER + INTRA:         -12.204
REMARK INTER:                 -11.288
REMARK INTRA:                  -0.916
REMARK CONF_INDEPENDENT:        1.790
REMARK UNBOUND:                -0.916
REMARK  6 active torsions:
REMARK  status: ('A' for Active; 'I' for Inactive)
REMARK    1  A    between atoms: C_2  and  O_3 
REMARK    2  A    between atoms: O_3  and  C_4 
REMARK    3  A    between atoms: C_4  and  C_6 
REMARK    4  A    between atoms: C_9  and  C_10 
REMARK    5  A    between atoms: C_14  and  C_13 
REMARK    6  A    between atoms: C_16  and  O_17 
ROOT
ATOM      1  C   UNL d   1      28.102 -14.338  -2.261  0.00  0.00     0.267 C 
ATOM      2  N   UNL d   1      27.632 -14.478  -3.672  0.00  0.00    -0.233 NA
ATOM      3  C   UNL d   1      28.379 -15.206  -4.422  0.00  0.00     0.173 C 
ATOM      4  C   UNL d   1      29.615 -15.822  -4.013  0.00  0.00     0.057 A 
ATOM      5  C   UNL d   1      30.189 -15.368  -2.852  0.00  0.00     0.087 A 
ATOM      6  S   UNL d   1      31.648 -16.180  -2.497  0.00  0.00    -0.074 SA
ATOM      7  C   UNL d   1      31.517 -17.155  -3.899  0.00  0.00     0.018 A 
ATOM      8  C   UNL d   1      30.367 -16.866  -4.621  0.00  0.00    -0.024 A 
ATOM      9  C   UNL d   1      30.030 -17.563  -5.906  0.00  0.00     0.068 C 
ATOM     10  C   UNL d   1      30.866 -18.837  -6.075  0.00  0.00     0.239 C 
ATOM     11  N   UNL d   1      32.340 -18.538  -5.798  0.00  0.00    -0.070 N 
ATOM     12  C   UNL d   1      32.893 -17.465  -6.704  0.00  0.00     0.270 C 
ATOM     13  C   UNL d   1      32.535 -18.180  -4.314  0.00  0.00     0.281 C 
ATOM     14  N   UNL d   1      29.577 -14.400  -2.131  0.00  0.00    -0.355 N 
ATOM     15  H   UNL d   1      32.870 -19.399  -5.987  0.00  0.00     0.279 HD
ATOM     16  H   UNL d   1      29.959 -14.024  -1.269  0.00  0.00     0.162 HD
ENDROOT
BRANCH   1  17
ATOM     17  C   UNL d   1      27.392 -15.409  -1.427  0.00  0.00     0.098 A 
ATOM     18  C   UNL d   1      27.897 -16.171  -0.391  0.00  0.00     0.040 A 
ATOM     19  C   UNL d   1      26.857 -16.967   0.100  0.00  0.00     0.041 A 
ATOM     20  C   UNL d   1      25.749 -16.706  -0.677  0.00  0.00     0.086 A 
ATOM     21  O   UNL d   1      26.062 -15.747  -1.627  0.00  0.00    -0.310 OA
BRANCH  20  22
ATOM     22  C   UNL d   1      24.398 -17.270  -0.602  0.00  0.00    -0.002 A 
ATOM     23  C   UNL d   1      23.264 -16.505  -0.886  0.00  0.00     0.015 A 
ATOM     24  C   UNL d   1      21.982 -17.092  -0.895  0.00  0.00     0.018 A 
ATOM     25  C   UNL d   1      21.818 -18.474  -0.696  0.00  0.00     0.039 A 
ATOM     26  C   UNL d   1      22.947 -19.252  -0.433  0.00  0.00     0.018 A 
ATOM     27  C   UNL d   1      24.221 -18.654  -0.399  0.00  0.00     0.015 A 
BRANCH  25  28
ATOM     28  C   UNL d   1      20.495 -19.103  -0.969  0.00  0.00     0.293 C 
ATOM     29  O   UNL d   1      20.273 -19.702  -2.021  0.00  0.00    -0.259 OA
BRANCH  28  30
ATOM     30  O   UNL d   1      19.616 -18.963   0.058  0.00  0.00    -0.318 OA
BRANCH  30  31
ATOM     31  C   UNL d   1      19.123 -20.213   0.589  0.00  0.00     0.174 C 
ATOM     32  C   UNL d   1      19.506 -20.347   2.054  0.00  0.00     0.034 C 
ENDBRANCH  30  31
ENDBRANCH  28  30
ENDBRANCH  25  28
ENDBRANCH  20  22
ENDBRANCH   1  17
BRANCH   3  33
ATOM     33  O   UNL d   1      28.013 -15.450  -5.695  0.00  0.00    -0.344 OA
ATOM     34  H   UNL d   1      28.366 -14.733  -6.249  0.00  0.00     0.219 HD
ENDBRANCH   3  33
TORSDOF 6
ENDMDL
MODEL 5
REMARK VINA RESULT:    -9.435      3.755      5.637
REMARK INTER + INTRA:         -12.393
REMARK INTER:                 -11.225
REMARK INTRA:                  -1.168
REMARK CONF_INDEPENDENT:        1.790
REMARK UNBOUND:                -1.168
REMARK  6 active torsions:
REMARK  status: ('A' for Active; 'I' for Inactive)
REMARK    1  A    between atoms: C_2  and  O_3 
REMARK    2  A    between atoms: O_3  and  C_4 
REMARK    3  A    between atoms: C_4  and  C_6 
REMARK    4  A    between atoms: C_9  and  C_10 
REMARK    5  A    between atoms: C_14  and  C_13 
REMARK    6  A    between atoms: C_16  and  O_17 
ROOT
ATOM      1  C   UNL d   1      29.425 -16.165  -2.262  0.00  0.00     0.267 C 
ATOM      2  N   UNL d   1      29.997 -14.864  -1.803  0.00  0.00    -0.233 NA
ATOM      3  C   UNL d   1      29.428 -13.820  -2.289  0.00  0.00     0.173 C 
ATOM      4  C   UNL d   1      28.354 -13.832  -3.249  0.00  0.00     0.057 A 
ATOM      5  C   UNL d   1      28.120 -15.010  -3.914  0.00  0.00     0.087 A 
ATOM      6  S   UNL d   1      26.830 -14.875  -5.023  0.00  0.00    -0.074 SA
ATOM      7  C   UNL d   1      26.569 -13.232  -4.612  0.00  0.00     0.018 A 
ATOM      8  C   UNL d   1      27.454 -12.800  -3.635  0.00  0.00    -0.024 A 
ATOM      9  C   UNL d   1      27.452 -11.392  -3.117  0.00  0.00     0.068 C 
ATOM     10  C   UNL d   1      26.155 -10.669  -3.497  0.00  0.00     0.239 C 
ATOM     11  N   UNL d   1      25.855 -10.876  -4.982  0.00  0.00    -0.070 N 
ATOM     12  C   UNL d   1      26.970 -10.385  -5.873  0.00  0.00     0.270 C 
ATOM     13  C   UNL d   1      25.528 -12.356  -5.251  0.00  0.00     0.281 C 
ATOM     14  N   UNL d   1      28.868 -16.102  -3.634  0.00  0.00    -0.355 N 
ATOM     15  H   UNL d   1      25.018 -10.323  -5.208  0.00  0.00     0.279 HD
ATOM     16  H   UNL d   1      28.742 -16.996  -4.099  0.00  0.00     0.162 HD
ENDROOT
BRANCH   1  17
ATOM     17  C   UNL d   1      28.388 -16.609  -1.226  0.00  0.00     0.098 A 
ATOM     18  C   UNL d   1      28.558 -16.812   0.131  0.00  0.00     0.040 A 
ATOM     19  C   UNL d   1      27.312 -17.153   0.670  0.00  0.00     0.041 A 
ATOM     20  C   UNL d   1      26.417 -17.193  -0.378  0.00  0.00     0.086 A 
ATOM     21  O   UNL d   1      27.066 -16.861  -1.557  0.00  0.00    -0.310 OA
BRANCH  20  22
ATOM     22  C   UNL d   1      24.985 -17.504  -0.375  0.00  0.00    -0.002 A 
ATOM     23  C   UNL d   1      24.026 -16.561  -0.754  0.00  0.00     0.015 A 
ATOM     24  C   UNL d   1      22.662 -16.911  -0.829  0.00  0.00     0.018 A 
ATOM     25  C   UNL d   1      22.241 -18.232  -0.602  0.00  0.00     0.039 A 
ATOM     26  C   UNL d   1      23.193 -19.188  -0.245  0.00  0.00     0.018 A 
ATOM     27  C   UNL d   1      24.550 -18.826  -0.145  0.00  0.00     0.015 A 
BRANCH  25  28
ATOM     28  C   UNL d   1      20.844 -18.626  -0.943  0.00  0.00     0.293 C 
ATOM     29  O   UNL d   1      19.979 -17.784  -1.183  0.00  0.00    -0.259 OA
BRANCH  28  30
ATOM     30  O   UNL d   1      20.664 -19.973  -0.980  0.00  0.00    -0.318 OA
BRANCH  30  31
ATOM     31  C   UNL d   1      19.591 -20.448  -0.137  0.00  0.00     0.174 C 
ATOM     32  C   UNL d   1      19.746 -19.895   1.271  0.00  0.00     0.034 C 
ENDBRANCH  30  31
ENDBRANCH  28  30
ENDBRANCH  25  28
ENDBRANCH  20  22
ENDBRANCH   1  17
BRANCH   3  33
ATOM     33  O   UNL d   1      29.824 -12.596  -1.891  0.00  0.00    -0.344 OA
ATOM     34  H   UNL d   1      30.305 -12.185  -2.628  0.00  0.00     0.219 HD
ENDBRANCH   3  33
TORSDOF 6
ENDMDL
MODEL 6
REMARK VINA RESULT:    -9.289      3.482      6.142
REMARK INTER + INTRA:         -12.011
REMARK INTER:                 -11.078
REMARK INTRA:                  -0.932
REMARK CONF_INDEPENDENT:        1.790
REMARK UNBOUND:                -0.932
REMARK  6 active torsions:
REMARK  status: ('A' for Active; 'I' for Inactive)
REMARK    1  A    between atoms: C_2  and  O_3 
REMARK    2  A    between atoms: O_3  and  C_4 
REMARK    3  A    between atoms: C_4  and  C_6 
REMARK    4  A    between atoms: C_9  and  C_10 
REMARK    5  A    between atoms: C_14  and  C_13 
REMARK    6  A    between atoms: C_16  and  O_17 
ROOT
ATOM      1  C   UNL d   1      28.563 -14.570  -0.393  0.00  0.00     0.267 C 
ATOM      2  N   UNL d   1      27.707 -13.525  -1.032  0.00  0.00    -0.233 NA
ATOM      3  C   UNL d   1      27.867 -13.395  -2.299  0.00  0.00     0.173 C 
ATOM      4  C   UNL d   1      28.819 -14.128  -3.095  0.00  0.00     0.057 A 
ATOM      5  C   UNL d   1      29.821 -14.785  -2.426  0.00  0.00     0.087 A 
ATOM      6  S   UNL d   1      30.876 -15.600  -3.492  0.00  0.00    -0.074 SA
ATOM      7  C   UNL d   1      29.990 -15.082  -4.863  0.00  0.00     0.018 A 
ATOM      8  C   UNL d   1      28.898 -14.304  -4.504  0.00  0.00    -0.024 A 
ATOM      9  C   UNL d   1      27.973 -13.702  -5.522  0.00  0.00     0.068 C 
ATOM     10  C   UNL d   1      28.155 -14.368  -6.890  0.00  0.00     0.239 C 
ATOM     11  N   UNL d   1      29.641 -14.444  -7.244  0.00  0.00    -0.070 N 
ATOM     12  C   UNL d   1      30.300 -13.087  -7.267  0.00  0.00     0.270 C 
ATOM     13  C   UNL d   1      30.362 -15.406  -6.283  0.00  0.00     0.281 C 
ATOM     14  N   UNL d   1      29.866 -14.749  -1.074  0.00  0.00    -0.355 N 
ATOM     15  H   UNL d   1      29.713 -14.834  -8.192  0.00  0.00     0.279 HD
ATOM     16  H   UNL d   1      30.587 -15.212  -0.529  0.00  0.00     0.162 HD
ENDROOT
BRANCH   1  17
ATOM     17  C   UNL d   1      27.747 -15.865  -0.331  0.00  0.00     0.098 A 
ATOM     18  C   UNL d   1      28.201 -17.165  -0.226  0.00  0.00     0.040 A 
ATOM     19  C   UNL d   1      27.082 -18.002  -0.145  0.00  0.00     0.041 A 
ATOM     20  C   UNL d   1      25.969 -17.196  -0.246  0.00  0.00     0.086 A 
ATOM     21  O   UNL d   1      26.361 -15.873  -0.364  0.00  0.00    -0.310 OA
BRANCH  20  22
ATOM     22  C   UNL d   1      24.548 -17.557  -0.228  0.00  0.00    -0.002 A 
ATOM     23  C   UNL d   1      23.546 -16.609  -0.453  0.00  0.00     0.015 A 
ATOM     24  C   UNL d   1      22.192 -16.995  -0.520  0.00  0.00     0.018 A 
ATOM     25  C   UNL d   1      21.821 -18.348  -0.441  0.00  0.00     0.039 A 
ATOM     26  C   UNL d   1      22.815 -19.306  -0.238  0.00  0.00     0.018 A 
ATOM     27  C   UNL d   1      24.163 -18.911  -0.146  0.00  0.00     0.015 A 
BRANCH  25  28
ATOM     28  C   UNL d   1      20.424 -18.747  -0.775  0.00  0.00     0.293 C 
ATOM     29  O   UNL d   1      19.528 -17.912  -0.895  0.00  0.00    -0.259 OA
BRANCH  28  30
ATOM     30  O   UNL d   1      20.280 -20.087  -0.951  0.00  0.00    -0.318 OA
BRANCH  30  31
ATOM     31  C   UNL d   1      19.707 -20.773   0.184  0.00  0.00     0.174 C 
ATOM     32  C   UNL d   1      19.848 -19.922   1.437  0.00  0.00     0.034 C 
ENDBRANCH  30  31
ENDBRANCH  28  30
ENDBRANCH  25  28
ENDBRANCH  20  22
ENDBRANCH   1  17
BRANCH   3  33
ATOM     33  O   UNL d   1      27.099 -12.527  -2.985  0.00  0.00    -0.344 OA
ATOM     34  H   UNL d   1      26.958 -11.746  -2.423  0.00  0.00     0.219 HD
ENDBRANCH   3  33
TORSDOF 6
ENDMDL
MODEL 7
REMARK VINA RESULT:    -9.002      1.307      1.712
REMARK INTER + INTRA:         -11.674
REMARK INTER:                 -10.791
REMARK INTRA:                  -0.882
REMARK CONF_INDEPENDENT:        1.790
REMARK UNBOUND:                -0.882
REMARK  6 active torsions:
REMARK  status: ('A' for Active; 'I' for Inactive)
REMARK    1  A    between atoms: C_2  and  O_3 
REMARK    2  A    between atoms: O_3  and  C_4 
REMARK    3  A    between atoms: C_4  and  C_6 
REMARK    4  A    between atoms: C_9  and  C_10 
REMARK    5  A    between atoms: C_14  and  C_13 
REMARK    6  A    between atoms: C_16  and  O_17 
ROOT
ATOM      1  C   UNL d   1      30.308 -13.962   0.113  0.00  0.00     0.267 C 
ATOM      2  N   UNL d   1      31.426 -14.326   1.034  0.00  0.00    -0.233 NA
ATOM      3  C   UNL d   1      31.173 -14.165   2.283  0.00  0.00     0.173 C 
ATOM      4  C   UNL d   1      29.948 -13.629   2.819  0.00  0.00     0.057 A 
ATOM      5  C   UNL d   1      29.117 -12.971   1.947  0.00  0.00     0.087 A 
ATOM      6  S   UNL d   1      27.713 -12.384   2.719  0.00  0.00    -0.074 SA
ATOM      7  C   UNL d   1      28.207 -13.016   4.233  0.00  0.00     0.018 A 
ATOM      8  C   UNL d   1      29.425 -13.674   4.141  0.00  0.00    -0.024 A 
ATOM      9  C   UNL d   1      30.093 -14.297   5.333  0.00  0.00     0.068 C 
ATOM     10  C   UNL d   1      29.106 -14.450   6.496  0.00  0.00     0.239 C 
ATOM     11  N   UNL d   1      28.345 -13.142   6.715  0.00  0.00    -0.070 N 
ATOM     12  C   UNL d   1      29.263 -11.979   7.001  0.00  0.00     0.270 C 
ATOM     13  C   UNL d   1      27.431 -12.856   5.510  0.00  0.00     0.281 C 
ATOM     14  N   UNL d   1      29.452 -12.873   0.640  0.00  0.00    -0.355 N 
ATOM     15  H   UNL d   1      27.746 -13.268   7.541  0.00  0.00     0.279 HD
ATOM     16  H   UNL d   1      28.878 -12.394  -0.047  0.00  0.00     0.162 HD
ENDROOT
BRANCH   1  17
ATOM     17  C   UNL d   1      29.518 -15.240  -0.185  0.00  0.00     0.098 A 
ATOM     18  C   UNL d   1      29.998 -16.505  -0.466  0.00  0.00     0.040 A 
ATOM     19  C   UNL d   1      28.897 -17.358  -0.608  0.00  0.00     0.041 A 
ATOM     20  C   UNL d   1      27.767 -16.584  -0.453  0.00  0.00     0.086 A 
ATOM     21  O   UNL d   1      28.132 -15.273  -0.193  0.00  0.00    -0.310 OA
BRANCH  20  22
ATOM     22  C   UNL d   1      26.354 -16.969  -0.513  0.00  0.00    -0.002 A 
ATOM     23  C   UNL d   1      25.481 -16.421  -1.457  0.00  0.00     0.015 A 
ATOM     24  C   UNL d   1      24.149 -16.873  -1.554  0.00  0.00     0.018 A 
ATOM     25  C   UNL d   1      23.686 -17.936  -0.761  0.00  0.00     0.039 A 
ATOM     26  C   UNL d   1      24.556 -18.507   0.170  0.00  0.00     0.018 A 
ATOM     27  C   UNL d   1      25.877 -18.033   0.280  0.00  0.00     0.015 A 
BRANCH  25  28
ATOM     28  C   UNL d   1      22.368 -18.561  -1.067  0.00  0.00     0.293 C 
ATOM     29  O   UNL d   1      22.224 -19.325  -2.021  0.00  0.00    -0.259 OA
BRANCH  28  30
ATOM     30  O   UNL d   1      21.397 -18.217  -0.181  0.00  0.00    -0.318 OA
BRANCH  30  31
ATOM     31  C   UNL d   1      20.686 -19.342   0.383  0.00  0.00     0.174 C 
ATOM     32  C   UNL d   1      19.453 -19.653  -0.452  0.00  0.00     0.034 C 
ENDBRANCH  30  31
ENDBRANCH  28  30
ENDBRANCH  25  28
ENDBRANCH  20  22
ENDBRANCH   1  17
BRANCH   3  33
ATOM     33  O   UNL d   1      32.090 -14.523   3.202  0.00  0.00    -0.344 OA
ATOM     34  H   UNL d   1      31.615 -14.779   4.011  0.00  0.00     0.219 HD
ENDBRANCH   3  33
TORSDOF 6
ENDMDL
MODEL 8
REMARK VINA RESULT:    -8.775      3.976      6.401
REMARK INTER + INTRA:         -11.472
REMARK INTER:                 -10.565
REMARK INTRA:                  -0.907
REMARK CONF_INDEPENDENT:        1.790
REMARK UNBOUND:                -0.907
REMARK  6 active torsions:
REMARK  status: ('A' for Active; 'I' for Inactive)
REMARK    1  A    between atoms: C_2  and  O_3 
REMARK    2  A    between atoms: O_3  and  C_4 
REMARK    3  A    between atoms: C_4  and  C_6 
REMARK    4  A    between atoms: C_9  and  C_10 
REMARK    5  A    between atoms: C_14  and  C_13 
REMARK    6  A    between atoms: C_16  and  O_17 
ROOT
ATOM      1  C   UNL d   1      29.541 -16.475  -0.862  0.00  0.00     0.267 C 
ATOM      2  N   UNL d   1      30.340 -15.213  -0.909  0.00  0.00    -0.233 NA
ATOM      3  C   UNL d   1      30.754 -14.877  -2.077  0.00  0.00     0.173 C 
ATOM      4  C   UNL d   1      30.545 -15.639  -3.282  0.00  0.00     0.057 A 
ATOM      5  C   UNL d   1      30.145 -16.944  -3.138  0.00  0.00     0.087 A 
ATOM      6  S   UNL d   1      29.947 -17.724  -4.643  0.00  0.00    -0.074 SA
ATOM      7  C   UNL d   1      30.389 -16.310  -5.503  0.00  0.00     0.018 A 
ATOM      8  C   UNL d   1      30.675 -15.257  -4.646  0.00  0.00    -0.024 A 
ATOM      9  C   UNL d   1      31.114 -13.911  -5.148  0.00  0.00     0.068 C 
ATOM     10  C   UNL d   1      30.819 -13.761  -6.644  0.00  0.00     0.239 C 
ATOM     11  N   UNL d   1      31.311 -14.993  -7.404  0.00  0.00    -0.070 N 
ATOM     12  C   UNL d   1      32.789 -15.235  -7.217  0.00  0.00     0.270 C 
ATOM     13  C   UNL d   1      30.482 -16.226  -7.001  0.00  0.00     0.281 C 
ATOM     14  N   UNL d   1      29.938 -17.453  -1.902  0.00  0.00    -0.355 N 
ATOM     15  H   UNL d   1      31.155 -14.821  -8.405  0.00  0.00     0.279 HD
ATOM     16  H   UNL d   1      29.649 -18.412  -1.737  0.00  0.00     0.162 HD
ENDROOT
BRANCH   1  17
ATOM     17  C   UNL d   1      28.061 -16.089  -0.952  0.00  0.00     0.098 A 
ATOM     18  C   UNL d   1      27.506 -14.871  -1.295  0.00  0.00     0.040 A 
ATOM     19  C   UNL d   1      26.115 -15.021  -1.295  0.00  0.00     0.041 A 
ATOM     20  C   UNL d   1      25.850 -16.317  -0.910  0.00  0.00     0.086 A 
ATOM     21  O   UNL d   1      27.040 -16.991  -0.691  0.00  0.00    -0.310 OA
BRANCH  20  22
ATOM     22  C   UNL d   1      24.563 -16.998  -0.738  0.00  0.00    -0.002 A 
ATOM     23  C   UNL d   1      23.348 -16.324  -0.891  0.00  0.00     0.015 A 
ATOM     24  C   UNL d   1      22.124 -17.019  -0.810  0.00  0.00     0.018 A 
ATOM     25  C   UNL d   1      22.094 -18.415  -0.651  0.00  0.00     0.039 A 
ATOM     26  C   UNL d   1      23.302 -19.102  -0.520  0.00  0.00     0.018 A 
ATOM     27  C   UNL d   1      24.520 -18.398  -0.575  0.00  0.00     0.015 A 
BRANCH  25  28
ATOM     28  C   UNL d   1      20.808 -19.147  -0.831  0.00  0.00     0.293 C 
ATOM     29  O   UNL d   1      20.526 -19.699  -1.895  0.00  0.00    -0.259 OA
BRANCH  28  30
ATOM     30  O   UNL d   1      20.036 -19.151   0.287  0.00  0.00    -0.318 OA
BRANCH  30  31
ATOM     31  C   UNL d   1      19.917 -20.446   0.918  0.00  0.00     0.174 C 
ATOM     32  C   UNL d   1      18.482 -20.942   0.830  0.00  0.00     0.034 C 
ENDBRANCH  30  31
ENDBRANCH  28  30
ENDBRANCH  25  28
ENDBRANCH  20  22
ENDBRANCH   1  17
BRANCH   3  33
ATOM     33  O   UNL d   1      31.429 -13.724  -2.241  0.00  0.00    -0.344 OA
ATOM     34  H   UNL d   1      32.321 -13.944  -2.560  0.00  0.00     0.219 HD
ENDBRANCH   3  33
TORSDOF 6
ENDMDL
MODEL 9
REMARK VINA RESULT:    -8.744      4.553      6.590
REMARK INTER + INTRA:         -11.349
REMARK INTER:                 -10.534
REMARK INTRA:                  -0.815
REMARK CONF_INDEPENDENT:        1.790
REMARK UNBOUND:                -0.815
REMARK  6 active torsions:
REMARK  status: ('A' for Active; 'I' for Inactive)
REMARK    1  A    between atoms: C_2  and  O_3 
REMARK    2  A    between atoms: O_3  and  C_4 
REMARK    3  A    between atoms: C_4  and  C_6 
REMARK    4  A    between atoms: C_9  and  C_10 
REMARK    5  A    between atoms: C_14  and  C_13 
REMARK    6  A    between atoms: C_16  and  O_17 
ROOT
ATOM      1  C   UNL d   1      26.609 -13.263  -4.041  0.00  0.00     0.267 C 
ATOM      2  N   UNL d   1      26.569 -14.032  -5.321  0.00  0.00    -0.233 NA
ATOM      3  C   UNL d   1      27.710 -14.442  -5.743  0.00  0.00     0.173 C 
ATOM      4  C   UNL d   1      28.975 -14.169  -5.110  0.00  0.00     0.057 A 
ATOM      5  C   UNL d   1      29.005 -13.167  -4.173  0.00  0.00     0.087 A 
ATOM      6  S   UNL d   1      30.565 -12.949  -3.515  0.00  0.00    -0.074 SA
ATOM      7  C   UNL d   1      31.213 -14.207  -4.480  0.00  0.00     0.018 A 
ATOM      8  C   UNL d   1      30.245 -14.788  -5.286  0.00  0.00    -0.024 A 
ATOM      9  C   UNL d   1      30.559 -15.897  -6.247  0.00  0.00     0.068 C 
ATOM     10  C   UNL d   1      31.919 -16.528  -5.929  0.00  0.00     0.239 C 
ATOM     11  N   UNL d   1      32.974 -15.437  -5.740  0.00  0.00    -0.070 N 
ATOM     12  C   UNL d   1      33.115 -14.552  -6.954  0.00  0.00     0.270 C 
ATOM     13  C   UNL d   1      32.660 -14.616  -4.476  0.00  0.00     0.281 C 
ATOM     14  N   UNL d   1      27.869 -12.502  -3.860  0.00  0.00    -0.355 N 
ATOM     15  H   UNL d   1      33.878 -15.903  -5.595  0.00  0.00     0.279 HD
ATOM     16  H   UNL d   1      27.834 -11.750  -3.180  0.00  0.00     0.162 HD
ENDROOT
BRANCH   1  17
ATOM     17  C   UNL d   1      26.348 -14.248  -2.898  0.00  0.00     0.098 A 
ATOM     18  C   UNL d   1      27.153 -14.547  -1.816  0.00  0.00     0.040 A 
ATOM     19  C   UNL d   1      26.463 -15.461  -1.011  0.00  0.00     0.041 A 
ATOM     20  C   UNL d   1      25.270 -15.734  -1.644  0.00  0.00     0.086 A 
ATOM     21  O   UNL d   1      25.183 -14.995  -2.812  0.00  0.00    -0.310 OA
BRANCH  20  22
ATOM     22  C   UNL d   1      24.179 -16.627  -1.240  0.00  0.00    -0.002 A 
ATOM     23  C   UNL d   1      22.852 -16.194  -1.198  0.00  0.00     0.015 A 
ATOM     24  C   UNL d   1      21.810 -17.095  -0.895  0.00  0.00     0.018 A 
ATOM     25  C   UNL d   1      22.069 -18.463  -0.704  0.00  0.00     0.039 A 
ATOM     26  C   UNL d   1      23.390 -18.911  -0.766  0.00  0.00     0.018 A 
ATOM     27  C   UNL d   1      24.428 -18.001  -1.043  0.00  0.00     0.015 A 
BRANCH  25  28
ATOM     28  C   UNL d   1      20.932 -19.425  -0.647  0.00  0.00     0.293 C 
ATOM     29  O   UNL d   1      20.272 -19.701  -1.649  0.00  0.00    -0.259 OA
BRANCH  28  30
ATOM     30  O   UNL d   1      20.744 -19.955   0.590  0.00  0.00    -0.318 OA
BRANCH  30  31
ATOM     31  C   UNL d   1      19.422 -19.735   1.132  0.00  0.00     0.174 C 
ATOM     32  C   UNL d   1      18.468 -20.810   0.637  0.00  0.00     0.034 C 
ENDBRANCH  30  31
ENDBRANCH  28  30
ENDBRANCH  25  28
ENDBRANCH  20  22
ENDBRANCH   1  17
BRANCH   3  33
ATOM     33  O   UNL d   1      27.780 -15.200  -6.854  0.00  0.00    -0.344 OA
ATOM     34  H   UNL d   1      28.514 -14.866  -7.396  0.00  0.00     0.219 HD
ENDBRANCH   3  33
TORSDOF 6
ENDMDL
