MODEL 1
REMARK VINA RESULT:    -8.697      0.000      0.000
REMARK INTER + INTRA:         -13.806
REMARK INTER:                 -12.277
REMARK INTRA:                  -1.530
REMARK CONF_INDEPENDENT:        3.580
REMARK UNBOUND:                -1.530
REMARK  12 active torsions:
REMARK  status: ('A' for Active; 'I' for Inactive)
REMARK    1  A    between atoms: C_2  and  C_3 
REMARK    2  A    between atoms: C_3  and  C_25 
REMARK    3  A    between atoms: N_4  and  N_5 
REMARK       I    between atoms: N_5  and  C_6 
REMARK    4  A    between atoms: C_6  and  C_8 
REMARK    5  A    between atoms: C_8  and  C_9 
REMARK    6  A    between atoms: C_9  and  C_10 
REMARK    7  A    between atoms: C_10  and  C_11 
REMARK       I    between atoms: C_11  and  N_13 
REMARK    8  A    between atoms: N_13  and  N_14 
REMARK    9  A    between atoms: C_15  and  C_16 
REMARK   10  A    between atoms: C_15  and  C_18 
REMARK   11  A    between atoms: C_21  and  O_22 
REMARK   12  A    between atoms: C_28  and  O_29 
ROOT
ATOM      1  C   UNL d   1      30.603 -16.287   0.493  0.00  0.00     0.019 C 
ENDROOT
BRANCH   1   2
ATOM      2  C   UNL d   1      30.513 -17.226  -0.701  0.00  0.00     0.105 C 
BRANCH   2   3
ATOM      3  C   UNL d   1      29.037 -17.275  -1.171  0.00  0.00     0.237 C 
ATOM      4  N   UNL d   1      28.214 -17.845  -0.226  0.00  0.00    -0.247 N 
ATOM      5  H   UNL d   1      28.698 -18.110   0.601  0.00  0.00     0.192 HD
ATOM      6  O   UNL d   1      28.664 -16.849  -2.263  0.00  0.00    -0.272 OA
BRANCH   4   7
ATOM      7  N   UNL d   1      26.861 -18.011  -0.367  0.00  0.00    -0.176 NA
ATOM      8  C   UNL d   1      26.012 -17.012  -0.368  0.00  0.00     0.064 C 
BRANCH   8   9
ATOM      9  C   UNL d   1      26.302 -15.507  -0.189  0.00  0.00     0.057 C 
ATOM     10  C   UNL d   1      26.298 -14.636  -1.424  0.00  0.00     0.011 C 
ENDBRANCH   8   9
BRANCH   8  11
ATOM     11  C   UNL d   1      24.533 -17.349  -0.535  0.00  0.00    -0.010 A 
ATOM     12  C   UNL d   1      24.058 -18.674  -0.522  0.00  0.00     0.016 A 
ATOM     13  C   UNL d   1      22.682 -18.955  -0.646  0.00  0.00     0.037 A 
ATOM     14  C   UNL d   1      21.781 -17.907  -0.799  0.00  0.00     0.065 A 
ATOM     15  C   UNL d   1      22.236 -16.595  -0.842  0.00  0.00     0.037 A 
ATOM     16  C   UNL d   1      23.606 -16.314  -0.703  0.00  0.00     0.016 A 
BRANCH  14  17
ATOM     17  O   UNL d   1      20.436 -18.110  -0.908  0.00  0.00    -0.361 OA
ATOM     18  H   UNL d   1      20.099 -17.689  -1.715  0.00  0.00     0.217 HD
ENDBRANCH  14  17
ENDBRANCH   8  11
ENDBRANCH   4   7
ENDBRANCH   2   3
ENDBRANCH   1   2
BRANCH   1  19
ATOM     19  C   UNL d   1      31.053 -14.854   0.248  0.00  0.00     0.105 C 
BRANCH  19  20
ATOM     20  C   UNL d   1      30.707 -14.016   1.503  0.00  0.00     0.237 C 
ATOM     21  O   UNL d   1      30.467 -12.809   1.465  0.00  0.00    -0.272 OA
ATOM     22  N   UNL d   1      30.699 -14.782   2.648  0.00  0.00    -0.247 N 
ATOM     23  H   UNL d   1      30.919 -15.737   2.480  0.00  0.00     0.192 HD
BRANCH  22  24
ATOM     24  N   UNL d   1      30.419 -14.307   3.901  0.00  0.00    -0.176 NA
ATOM     25  C   UNL d   1      29.199 -14.141   4.351  0.00  0.00     0.064 C 
BRANCH  25  26
ATOM     26  C   UNL d   1      27.864 -14.395   3.617  0.00  0.00     0.057 C 
ATOM     27  C   UNL d   1      27.042 -13.192   3.215  0.00  0.00     0.011 C 
ENDBRANCH  25  26
BRANCH  25  28
ATOM     28  C   UNL d   1      29.040 -13.570   5.756  0.00  0.00    -0.010 A 
ATOM     29  C   UNL d   1      28.374 -12.346   5.923  0.00  0.00     0.016 A 
ATOM     30  C   UNL d   1      28.145 -11.813   7.204  0.00  0.00     0.037 A 
ATOM     31  C   UNL d   1      28.596 -12.498   8.326  0.00  0.00     0.065 A 
ATOM     32  C   UNL d   1      29.283 -13.698   8.183  0.00  0.00     0.037 A 
ATOM     33  C   UNL d   1      29.501 -14.238   6.904  0.00  0.00     0.016 A 
BRANCH  31  34
ATOM     34  O   UNL d   1      28.388 -12.038   9.594  0.00  0.00    -0.361 OA
ATOM     35  H   UNL d   1      28.498 -11.072   9.612  0.00  0.00     0.217 HD
ENDBRANCH  31  34
ENDBRANCH  25  28
ENDBRANCH  22  24
ENDBRANCH  19  20
ENDBRANCH   1  19
TORSDOF 12
ENDMDL
MODEL 2
REMARK VINA RESULT:    -8.526      6.135      9.697
REMARK INTER + INTRA:         -13.598
REMARK INTER:                 -12.105
REMARK INTRA:                  -1.493
REMARK CONF_INDEPENDENT:        3.580
REMARK UNBOUND:                -1.493
REMARK  12 active torsions:
REMARK  status: ('A' for Active; 'I' for Inactive)
REMARK    1  A    between atoms: C_2  and  C_3 
REMARK    2  A    between atoms: C_3  and  C_25 
REMARK    3  A    between atoms: N_4  and  N_5 
REMARK       I    between atoms: N_5  and  C_6 
REMARK    4  A    between atoms: C_6  and  C_8 
REMARK    5  A    between atoms: C_8  and  C_9 
REMARK    6  A    between atoms: C_9  and  C_10 
REMARK    7  A    between atoms: C_10  and  C_11 
REMARK       I    between atoms: C_11  and  N_13 
REMARK    8  A    between atoms: N_13  and  N_14 
REMARK    9  A    between atoms: C_15  and  C_16 
REMARK   10  A    between atoms: C_15  and  C_18 
REMARK   11  A    between atoms: C_21  and  O_22 
REMARK   12  A    between atoms: C_28  and  O_29 
ROOT
ATOM      1  C   UNL d   1      25.409 -14.058  -2.687  0.00  0.00     0.019 C 
ENDROOT
BRANCH   1   2
ATOM      2  C   UNL d   1      24.883 -14.082  -4.115  0.00  0.00     0.105 C 
BRANCH   2   3
ATOM      3  C   UNL d   1      25.769 -15.044  -4.944  0.00  0.00     0.237 C 
ATOM      4  N   UNL d   1      27.048 -14.559  -5.104  0.00  0.00    -0.247 N 
ATOM      5  H   UNL d   1      27.192 -13.688  -4.649  0.00  0.00     0.192 HD
ATOM      6  O   UNL d   1      25.361 -16.113  -5.397  0.00  0.00    -0.272 OA
BRANCH   4   7
ATOM      7  N   UNL d   1      28.048 -15.202  -5.786  0.00  0.00    -0.176 NA
ATOM      8  C   UNL d   1      29.234 -15.427  -5.275  0.00  0.00     0.064 C 
BRANCH   8   9
ATOM      9  C   UNL d   1      29.774 -15.020  -3.887  0.00  0.00     0.057 C 
ATOM     10  C   UNL d   1      29.360 -15.854  -2.697  0.00  0.00     0.011 C 
ENDBRANCH   8   9
BRANCH   8  11
ATOM     11  C   UNL d   1      30.248 -16.155  -6.152  0.00  0.00    -0.010 A 
ATOM     12  C   UNL d   1      30.405 -17.554  -6.118  0.00  0.00     0.016 A 
ATOM     13  C   UNL d   1      31.328 -18.203  -6.963  0.00  0.00     0.037 A 
ATOM     14  C   UNL d   1      32.107 -17.449  -7.833  0.00  0.00     0.065 A 
ATOM     15  C   UNL d   1      31.985 -16.065  -7.860  0.00  0.00     0.037 A 
ATOM     16  C   UNL d   1      31.055 -15.419  -7.028  0.00  0.00     0.016 A 
BRANCH  14  17
ATOM     17  O   UNL d   1      33.006 -18.017  -8.688  0.00  0.00    -0.361 OA
ATOM     18  H   UNL d   1      33.682 -18.502  -8.187  0.00  0.00     0.217 HD
ENDBRANCH  14  17
ENDBRANCH   8  11
ENDBRANCH   4   7
ENDBRANCH   2   3
ENDBRANCH   1   2
BRANCH   1  19
ATOM     19  C   UNL d   1      25.963 -15.350  -2.105  0.00  0.00     0.105 C 
BRANCH  19  20
ATOM     20  C   UNL d   1      24.816 -16.389  -2.048  0.00  0.00     0.237 C 
ATOM     21  O   UNL d   1      24.778 -17.393  -2.760  0.00  0.00    -0.272 OA
ATOM     22  N   UNL d   1      23.862 -16.052  -1.114  0.00  0.00    -0.247 N 
ATOM     23  H   UNL d   1      24.065 -15.203  -0.638  0.00  0.00     0.192 HD
BRANCH  22  24
ATOM     24  N   UNL d   1      22.741 -16.791  -0.844  0.00  0.00    -0.176 NA
ATOM     25  C   UNL d   1      22.782 -18.019  -0.386  0.00  0.00     0.064 C 
BRANCH  25  26
ATOM     26  C   UNL d   1      24.022 -18.889  -0.086  0.00  0.00     0.057 C 
ATOM     27  C   UNL d   1      25.258 -18.196   0.439  0.00  0.00     0.011 C 
ENDBRANCH  25  26
BRANCH  25  28
ATOM     28  C   UNL d   1      21.451 -18.731  -0.165  0.00  0.00    -0.010 A 
ATOM     29  C   UNL d   1      20.624 -18.987  -1.270  0.00  0.00     0.016 A 
ATOM     30  C   UNL d   1      19.420 -19.699  -1.126  0.00  0.00     0.037 A 
ATOM     31  C   UNL d   1      19.031 -20.146   0.132  0.00  0.00     0.065 A 
ATOM     32  C   UNL d   1      19.820 -19.879   1.244  0.00  0.00     0.037 A 
ATOM     33  C   UNL d   1      21.030 -19.178   1.099  0.00  0.00     0.016 A 
BRANCH  31  34
ATOM     34  O   UNL d   1      17.882 -20.855   0.330  0.00  0.00    -0.361 OA
ATOM     35  H   UNL d   1      18.083 -21.806   0.331  0.00  0.00     0.217 HD
ENDBRANCH  31  34
ENDBRANCH  25  28
ENDBRANCH  22  24
ENDBRANCH  19  20
ENDBRANCH   1  19
TORSDOF 12
ENDMDL
MODEL 3
REMARK VINA RESULT:    -8.182      5.653      9.142
REMARK INTER + INTRA:         -14.173
REMARK INTER:                 -11.762
REMARK INTRA:                  -2.411
REMARK CONF_INDEPENDENT:        3.580
REMARK UNBOUND:                -2.411
REMARK  12 active torsions:
REMARK  status: ('A' for Active; 'I' for Inactive)
REMARK    1  A    between atoms: C_2  and  C_3 
REMARK    2  A    between atoms: C_3  and  C_25 
REMARK    3  A    between atoms: N_4  and  N_5 
REMARK       I    between atoms: N_5  and  C_6 
REMARK    4  A    between atoms: C_6  and  C_8 
REMARK    5  A    between atoms: C_8  and  C_9 
REMARK    6  A    between atoms: C_9  and  C_10 
REMARK    7  A    between atoms: C_10  and  C_11 
REMARK       I    between atoms: C_11  and  N_13 
REMARK    8  A    between atoms: N_13  and  N_14 
REMARK    9  A    between atoms: C_15  and  C_16 
REMARK   10  A    between atoms: C_15  and  C_18 
REMARK   11  A    between atoms: C_21  and  O_22 
REMARK   12  A    between atoms: C_28  and  O_29 
ROOT
ATOM      1  C   UNL d   1      27.162 -12.439  -5.765  0.00  0.00     0.019 C 
ENDROOT
BRANCH   1   2
ATOM      2  C   UNL d   1      27.493 -12.556  -4.284  0.00  0.00     0.105 C 
BRANCH   2   3
ATOM      3  C   UNL d   1      26.276 -13.188  -3.562  0.00  0.00     0.237 C 
ATOM      4  N   UNL d   1      26.371 -14.560  -3.495  0.00  0.00    -0.247 N 
ATOM      5  H   UNL d   1      27.207 -14.911  -3.902  0.00  0.00     0.192 HD
ATOM      6  O   UNL d   1      25.345 -12.525  -3.106  0.00  0.00    -0.272 OA
BRANCH   4   7
ATOM      7  N   UNL d   1      25.444 -15.379  -2.907  0.00  0.00    -0.176 NA
ATOM      8  C   UNL d   1      25.599 -15.894  -1.711  0.00  0.00     0.064 C 
BRANCH   8   9
ATOM      9  C   UNL d   1      26.797 -15.744  -0.749  0.00  0.00     0.057 C 
ATOM     10  C   UNL d   1      27.667 -16.956  -0.512  0.00  0.00     0.011 C 
ENDBRANCH   8   9
BRANCH   8  11
ATOM     11  C   UNL d   1      24.481 -16.790  -1.184  0.00  0.00    -0.010 A 
ATOM     12  C   UNL d   1      23.175 -16.313  -0.967  0.00  0.00     0.016 A 
ATOM     13  C   UNL d   1      22.154 -17.172  -0.510  0.00  0.00     0.037 A 
ATOM     14  C   UNL d   1      22.446 -18.507  -0.253  0.00  0.00     0.065 A 
ATOM     15  C   UNL d   1      23.737 -18.987  -0.435  0.00  0.00     0.037 A 
ATOM     16  C   UNL d   1      24.751 -18.135  -0.905  0.00  0.00     0.016 A 
BRANCH  14  17
ATOM     17  O   UNL d   1      21.501 -19.392   0.175  0.00  0.00    -0.361 OA
ATOM     18  H   UNL d   1      21.912 -20.081   0.722  0.00  0.00     0.217 HD
ENDBRANCH  14  17
ENDBRANCH   8  11
ENDBRANCH   4   7
ENDBRANCH   2   3
ENDBRANCH   1   2
BRANCH   1  19
ATOM     19  C   UNL d   1      28.143 -13.027  -6.769  0.00  0.00     0.105 C 
BRANCH  19  20
ATOM     20  C   UNL d   1      28.267 -14.546  -6.494  0.00  0.00     0.237 C 
ATOM     21  O   UNL d   1      27.400 -15.201  -5.917  0.00  0.00    -0.272 OA
ATOM     22  N   UNL d   1      29.452 -15.060  -6.972  0.00  0.00    -0.247 N 
ATOM     23  H   UNL d   1      30.027 -14.376  -7.408  0.00  0.00     0.192 HD
BRANCH  22  24
ATOM     24  N   UNL d   1      29.825 -16.374  -6.876  0.00  0.00    -0.176 NA
ATOM     25  C   UNL d   1      30.189 -16.937  -5.748  0.00  0.00     0.064 C 
BRANCH  25  26
ATOM     26  C   UNL d   1      30.307 -16.292  -4.350  0.00  0.00     0.057 C 
ATOM     27  C   UNL d   1      29.071 -16.261  -3.482  0.00  0.00     0.011 C 
ENDBRANCH  25  26
BRANCH  25  28
ATOM     28  C   UNL d   1      30.612 -18.401  -5.799  0.00  0.00    -0.010 A 
ATOM     29  C   UNL d   1      30.807 -19.096  -4.596  0.00  0.00     0.016 A 
ATOM     30  C   UNL d   1      31.132 -20.465  -4.592  0.00  0.00     0.037 A 
ATOM     31  C   UNL d   1      31.278 -21.141  -5.798  0.00  0.00     0.065 A 
ATOM     32  C   UNL d   1      31.118 -20.466  -7.002  0.00  0.00     0.037 A 
ATOM     33  C   UNL d   1      30.780 -19.101  -7.006  0.00  0.00     0.016 A 
BRANCH  31  34
ATOM     34  O   UNL d   1      31.576 -22.471  -5.856  0.00  0.00    -0.361 OA
ATOM     35  H   UNL d   1      30.887 -22.980  -5.397  0.00  0.00     0.217 HD
ENDBRANCH  31  34
ENDBRANCH  25  28
ENDBRANCH  22  24
ENDBRANCH  19  20
ENDBRANCH   1  19
TORSDOF 12
ENDMDL
MODEL 4
REMARK VINA RESULT:    -8.120      5.757      8.914
REMARK INTER + INTRA:         -14.139
REMARK INTER:                 -11.700
REMARK INTRA:                  -2.439
REMARK CONF_INDEPENDENT:        3.580
REMARK UNBOUND:                -2.439
REMARK  12 active torsions:
REMARK  status: ('A' for Active; 'I' for Inactive)
REMARK    1  A    between atoms: C_2  and  C_3 
REMARK    2  A    between atoms: C_3  and  C_25 
REMARK    3  A    between atoms: N_4  and  N_5 
REMARK       I    between atoms: N_5  and  C_6 
REMARK    4  A    between atoms: C_6  and  C_8 
REMARK    5  A    between atoms: C_8  and  C_9 
REMARK    6  A    between atoms: C_9  and  C_10 
REMARK    7  A    between atoms: C_10  and  C_11 
REMARK       I    between atoms: C_11  and  N_13 
REMARK    8  A    between atoms: N_13  and  N_14 
REMARK    9  A    between atoms: C_15  and  C_16 
REMARK   10  A    between atoms: C_15  and  C_18 
REMARK   11  A    between atoms: C_21  and  O_22 
REMARK   12  A    between atoms: C_28  and  O_29 
ROOT
ATOM      1  C   UNL d   1      27.834 -12.517  -5.206  0.00  0.00     0.019 C 
ENDROOT
BRANCH   1   2
ATOM      2  C   UNL d   1      28.436 -13.086  -6.483  0.00  0.00     0.105 C 
BRANCH   2   3
ATOM      3  C   UNL d   1      28.516 -14.626  -6.339  0.00  0.00     0.237 C 
ATOM      4  N   UNL d   1      29.641 -15.143  -6.944  0.00  0.00    -0.247 N 
ATOM      5  H   UNL d   1      30.218 -14.444  -7.351  0.00  0.00     0.192 HD
ATOM      6  O   UNL d   1      27.666 -15.293  -5.750  0.00  0.00    -0.272 OA
BRANCH   4   7
ATOM      7  N   UNL d   1      29.973 -16.472  -6.968  0.00  0.00    -0.176 NA
ATOM      8  C   UNL d   1      30.443 -17.112  -5.924  0.00  0.00     0.064 C 
BRANCH   8   9
ATOM      9  C   UNL d   1      30.749 -16.558  -4.517  0.00  0.00     0.057 C 
ATOM     10  C   UNL d   1      29.741 -16.819  -3.421  0.00  0.00     0.011 C 
ENDBRANCH   8   9
BRANCH   8  11
ATOM     11  C   UNL d   1      30.770 -18.593  -6.100  0.00  0.00    -0.010 A 
ATOM     12  C   UNL d   1      31.246 -19.118  -7.316  0.00  0.00     0.016 A 
ATOM     13  C   UNL d   1      31.570 -20.485  -7.440  0.00  0.00     0.037 A 
ATOM     14  C   UNL d   1      31.403 -21.330  -6.348  0.00  0.00     0.065 A 
ATOM     15  C   UNL d   1      30.909 -20.832  -5.149  0.00  0.00     0.037 A 
ATOM     16  C   UNL d   1      30.599 -19.468  -5.021  0.00  0.00     0.016 A 
BRANCH  14  17
ATOM     17  O   UNL d   1      31.714 -22.657  -6.398  0.00  0.00    -0.361 OA
ATOM     18  H   UNL d   1      31.177 -23.101  -7.074  0.00  0.00     0.217 HD
ENDBRANCH  14  17
ENDBRANCH   8  11
ENDBRANCH   4   7
ENDBRANCH   2   3
ENDBRANCH   1   2
BRANCH   1  19
ATOM     19  C   UNL d   1      26.411 -11.983  -5.258  0.00  0.00     0.105 C 
BRANCH  19  20
ATOM     20  C   UNL d   1      25.604 -12.636  -4.109  0.00  0.00     0.237 C 
ATOM     21  O   UNL d   1      25.157 -12.002  -3.153  0.00  0.00    -0.272 OA
ATOM     22  N   UNL d   1      25.452 -13.992  -4.293  0.00  0.00    -0.247 N 
ATOM     23  H   UNL d   1      25.884 -14.324  -5.124  0.00  0.00     0.192 HD
BRANCH  22  24
ATOM     24  N   UNL d   1      24.777 -14.822  -3.438  0.00  0.00    -0.176 NA
ATOM     25  C   UNL d   1      25.372 -15.542  -2.517  0.00  0.00     0.064 C 
BRANCH  25  26
ATOM     26  C   UNL d   1      26.881 -15.647  -2.208  0.00  0.00     0.057 C 
ATOM     27  C   UNL d   1      27.325 -15.429  -0.781  0.00  0.00     0.011 C 
ENDBRANCH  25  26
BRANCH  25  28
ATOM     28  C   UNL d   1      24.494 -16.448  -1.659  0.00  0.00    -0.010 A 
ATOM     29  C   UNL d   1      23.232 -15.987  -1.251  0.00  0.00     0.016 A 
ATOM     30  C   UNL d   1      22.361 -16.811  -0.517  0.00  0.00     0.037 A 
ATOM     31  C   UNL d   1      22.756 -18.099  -0.174  0.00  0.00     0.065 A 
ATOM     32  C   UNL d   1      24.011 -18.566  -0.543  0.00  0.00     0.037 A 
ATOM     33  C   UNL d   1      24.878 -17.748  -1.288  0.00  0.00     0.016 A 
BRANCH  31  34
ATOM     34  O   UNL d   1      21.947 -18.948   0.522  0.00  0.00    -0.361 OA
ATOM     35  H   UNL d   1      22.484 -19.647   0.932  0.00  0.00     0.217 HD
ENDBRANCH  31  34
ENDBRANCH  25  28
ENDBRANCH  22  24
ENDBRANCH  19  20
ENDBRANCH   1  19
TORSDOF 12
ENDMDL
MODEL 5
REMARK VINA RESULT:    -8.004      6.110      9.181
REMARK INTER + INTRA:         -13.996
REMARK INTER:                 -11.583
REMARK INTRA:                  -2.413
REMARK CONF_INDEPENDENT:        3.580
REMARK UNBOUND:                -2.413
REMARK  12 active torsions:
REMARK  status: ('A' for Active; 'I' for Inactive)
REMARK    1  A    between atoms: C_2  and  C_3 
REMARK    2  A    between atoms: C_3  and  C_25 
REMARK    3  A    between atoms: N_4  and  N_5 
REMARK       I    between atoms: N_5  and  C_6 
REMARK    4  A    between atoms: C_6  and  C_8 
REMARK    5  A    between atoms: C_8  and  C_9 
REMARK    6  A    between atoms: C_9  and  C_10 
REMARK    7  A    between atoms: C_10  and  C_11 
REMARK       I    between atoms: C_11  and  N_13 
REMARK    8  A    between atoms: N_13  and  N_14 
REMARK    9  A    between atoms: C_15  and  C_16 
REMARK   10  A    between atoms: C_15  and  C_18 
REMARK   11  A    between atoms: C_21  and  O_22 
REMARK   12  A    between atoms: C_28  and  O_29 
ROOT
ATOM      1  C   UNL d   1      27.765 -12.335  -5.413  0.00  0.00     0.019 C 
ENDROOT
BRANCH   1   2
ATOM      2  C   UNL d   1      26.335 -11.829  -5.298  0.00  0.00     0.105 C 
BRANCH   2   3
ATOM      3  C   UNL d   1      25.634 -12.607  -4.156  0.00  0.00     0.237 C 
ATOM      4  N   UNL d   1      25.423 -13.928  -4.485  0.00  0.00    -0.247 N 
ATOM      5  H   UNL d   1      25.770 -14.163  -5.386  0.00  0.00     0.192 HD
ATOM      6  O   UNL d   1      25.313 -12.090  -3.087  0.00  0.00    -0.272 OA
BRANCH   4   7
ATOM      7  N   UNL d   1      24.831 -14.852  -3.665  0.00  0.00    -0.176 NA
ATOM      8  C   UNL d   1      25.298 -15.163  -2.480  0.00  0.00     0.064 C 
BRANCH   8   9
ATOM      9  C   UNL d   1      26.564 -14.627  -1.777  0.00  0.00     0.057 C 
ATOM     10  C   UNL d   1      27.850 -15.401  -1.953  0.00  0.00     0.011 C 
ENDBRANCH   8   9
BRANCH   8  11
ATOM     11  C   UNL d   1      24.533 -16.211  -1.677  0.00  0.00    -0.010 A 
ATOM     12  C   UNL d   1      25.102 -17.449  -1.322  0.00  0.00     0.016 A 
ATOM     13  C   UNL d   1      24.382 -18.385  -0.553  0.00  0.00     0.037 A 
ATOM     14  C   UNL d   1      23.083 -18.090  -0.152  0.00  0.00     0.065 A 
ATOM     15  C   UNL d   1      22.497 -16.884  -0.518  0.00  0.00     0.037 A 
ATOM     16  C   UNL d   1      23.220 -15.944  -1.272  0.00  0.00     0.016 A 
BRANCH  14  17
ATOM     17  O   UNL d   1      22.340 -18.945   0.607  0.00  0.00    -0.361 OA
ATOM     18  H   UNL d   1      22.625 -19.861   0.454  0.00  0.00     0.217 HD
ENDBRANCH  14  17
ENDBRANCH   8  11
ENDBRANCH   4   7
ENDBRANCH   2   3
ENDBRANCH   1   2
BRANCH   1  19
ATOM     19  C   UNL d   1      28.181 -13.028  -6.703  0.00  0.00     0.105 C 
BRANCH  19  20
ATOM     20  C   UNL d   1      28.329 -14.542  -6.415  0.00  0.00     0.237 C 
ATOM     21  O   UNL d   1      27.473 -15.205  -5.827  0.00  0.00    -0.272 OA
ATOM     22  N   UNL d   1      29.518 -15.044  -6.895  0.00  0.00    -0.247 N 
ATOM     23  H   UNL d   1      30.081 -14.356  -7.339  0.00  0.00     0.192 HD
BRANCH  22  24
ATOM     24  N   UNL d   1      29.911 -16.352  -6.788  0.00  0.00    -0.176 NA
ATOM     25  C   UNL d   1      30.085 -16.958  -5.639  0.00  0.00     0.064 C 
BRANCH  25  26
ATOM     26  C   UNL d   1      29.933 -16.378  -4.216  0.00  0.00     0.057 C 
ATOM     27  C   UNL d   1      31.188 -16.171  -3.401  0.00  0.00     0.011 C 
ENDBRANCH  25  26
BRANCH  25  28
ATOM     28  C   UNL d   1      30.558 -18.408  -5.675  0.00  0.00    -0.010 A 
ATOM     29  C   UNL d   1      30.834 -19.065  -4.466  0.00  0.00     0.016 A 
ATOM     30  C   UNL d   1      31.207 -20.421  -4.445  0.00  0.00     0.037 A 
ATOM     31  C   UNL d   1      31.322 -21.122  -5.640  0.00  0.00     0.065 A 
ATOM     32  C   UNL d   1      31.082 -20.484  -6.851  0.00  0.00     0.037 A 
ATOM     33  C   UNL d   1      30.695 -19.132  -6.872  0.00  0.00     0.016 A 
BRANCH  31  34
ATOM     34  O   UNL d   1      31.664 -22.442  -5.681  0.00  0.00    -0.361 OA
ATOM     35  H   UNL d   1      31.143 -22.893  -6.366  0.00  0.00     0.217 HD
ENDBRANCH  31  34
ENDBRANCH  25  28
ENDBRANCH  22  24
ENDBRANCH  19  20
ENDBRANCH   1  19
TORSDOF 12
ENDMDL
MODEL 6
REMARK VINA RESULT:    -7.565      5.511      8.769
REMARK INTER + INTRA:         -13.593
REMARK INTER:                 -11.144
REMARK INTRA:                  -2.448
REMARK CONF_INDEPENDENT:        3.580
REMARK UNBOUND:                -2.448
REMARK  12 active torsions:
REMARK  status: ('A' for Active; 'I' for Inactive)
REMARK    1  A    between atoms: C_2  and  C_3 
REMARK    2  A    between atoms: C_3  and  C_25 
REMARK    3  A    between atoms: N_4  and  N_5 
REMARK       I    between atoms: N_5  and  C_6 
REMARK    4  A    between atoms: C_6  and  C_8 
REMARK    5  A    between atoms: C_8  and  C_9 
REMARK    6  A    between atoms: C_9  and  C_10 
REMARK    7  A    between atoms: C_10  and  C_11 
REMARK       I    between atoms: C_11  and  N_13 
REMARK    8  A    between atoms: N_13  and  N_14 
REMARK    9  A    between atoms: C_15  and  C_16 
REMARK   10  A    between atoms: C_15  and  C_18 
REMARK   11  A    between atoms: C_21  and  O_22 
REMARK   12  A    between atoms: C_28  and  O_29 
ROOT
ATOM      1  C   UNL d   1      28.868 -13.239  -5.726  0.00  0.00     0.019 C 
ENDROOT
BRANCH   1   2
ATOM      2  C   UNL d   1      29.638 -13.361  -7.033  0.00  0.00     0.105 C 
BRANCH   2   3
ATOM      3  C   UNL d   1      30.372 -14.725  -7.039  0.00  0.00     0.237 C 
ATOM      4  N   UNL d   1      29.637 -15.709  -6.416  0.00  0.00    -0.247 N 
ATOM      5  H   UNL d   1      28.758 -15.386  -6.085  0.00  0.00     0.192 HD
ATOM      6  O   UNL d   1      31.480 -14.891  -7.548  0.00  0.00    -0.272 OA
BRANCH   4   7
ATOM      7  N   UNL d   1      30.035 -17.014  -6.281  0.00  0.00    -0.176 NA
ATOM      8  C   UNL d   1      30.375 -17.544  -5.130  0.00  0.00     0.064 C 
BRANCH   8   9
ATOM      9  C   UNL d   1      30.439 -16.868  -3.744  0.00  0.00     0.057 C 
ATOM     10  C   UNL d   1      29.241 -17.010  -2.834  0.00  0.00     0.011 C 
ENDBRANCH   8   9
BRANCH   8  11
ATOM     11  C   UNL d   1      30.797 -19.010  -5.132  0.00  0.00    -0.010 A 
ATOM     12  C   UNL d   1      31.156 -19.691  -3.953  0.00  0.00     0.016 A 
ATOM     13  C   UNL d   1      31.511 -21.054  -3.981  0.00  0.00     0.037 A 
ATOM     14  C   UNL d   1      31.524 -21.735  -5.194  0.00  0.00     0.065 A 
ATOM     15  C   UNL d   1      31.200 -21.070  -6.370  0.00  0.00     0.037 A 
ATOM     16  C   UNL d   1      30.831 -19.715  -6.341  0.00  0.00     0.016 A 
BRANCH  14  17
ATOM     17  O   UNL d   1      31.843 -23.058  -5.286  0.00  0.00    -0.361 OA
ATOM     18  H   UNL d   1      31.169 -23.528  -5.804  0.00  0.00     0.217 HD
ENDBRANCH  14  17
ENDBRANCH   8  11
ENDBRANCH   4   7
ENDBRANCH   2   3
ENDBRANCH   1   2
BRANCH   1  19
ATOM     19  C   UNL d   1      27.354 -13.101  -5.793  0.00  0.00     0.105 C 
BRANCH  19  20
ATOM     20  C   UNL d   1      26.723 -14.344  -5.119  0.00  0.00     0.237 C 
ATOM     21  O   UNL d   1      27.026 -15.500  -5.415  0.00  0.00    -0.272 OA
ATOM     22  N   UNL d   1      25.797 -13.996  -4.161  0.00  0.00    -0.247 N 
ATOM     23  H   UNL d   1      25.686 -13.012  -4.065  0.00  0.00     0.192 HD
BRANCH  22  24
ATOM     24  N   UNL d   1      25.089 -14.889  -3.401  0.00  0.00    -0.176 NA
ATOM     25  C   UNL d   1      25.519 -15.355  -2.253  0.00  0.00     0.064 C 
BRANCH  25  26
ATOM     26  C   UNL d   1      26.853 -15.056  -1.536  0.00  0.00     0.057 C 
ATOM     27  C   UNL d   1      26.836 -14.957  -0.029  0.00  0.00     0.011 C 
ENDBRANCH  25  26
BRANCH  25  28
ATOM     28  C   UNL d   1      24.637 -16.371  -1.534  0.00  0.00    -0.010 A 
ATOM     29  C   UNL d   1      23.298 -16.043  -1.268  0.00  0.00     0.016 A 
ATOM     30  C   UNL d   1      22.429 -16.972  -0.669  0.00  0.00     0.037 A 
ATOM     31  C   UNL d   1      22.902 -18.232  -0.318  0.00  0.00     0.065 A 
ATOM     32  C   UNL d   1      24.231 -18.567  -0.546  0.00  0.00     0.037 A 
ATOM     33  C   UNL d   1      25.097 -17.644  -1.158  0.00  0.00     0.016 A 
BRANCH  31  34
ATOM     34  O   UNL d   1      22.102 -19.179   0.251  0.00  0.00    -0.361 OA
ATOM     35  H   UNL d   1      22.560 -20.036   0.251  0.00  0.00     0.217 HD
ENDBRANCH  31  34
ENDBRANCH  25  28
ENDBRANCH  22  24
ENDBRANCH  19  20
ENDBRANCH   1  19
TORSDOF 12
ENDMDL
MODEL 7
REMARK VINA RESULT:    -7.270      3.315      8.146
REMARK INTER + INTRA:         -13.825
REMARK INTER:                 -10.849
REMARK INTRA:                  -2.975
REMARK CONF_INDEPENDENT:        3.580
REMARK UNBOUND:                -2.975
REMARK  12 active torsions:
REMARK  status: ('A' for Active; 'I' for Inactive)
REMARK    1  A    between atoms: C_2  and  C_3 
REMARK    2  A    between atoms: C_3  and  C_25 
REMARK    3  A    between atoms: N_4  and  N_5 
REMARK       I    between atoms: N_5  and  C_6 
REMARK    4  A    between atoms: C_6  and  C_8 
REMARK    5  A    between atoms: C_8  and  C_9 
REMARK    6  A    between atoms: C_9  and  C_10 
REMARK    7  A    between atoms: C_10  and  C_11 
REMARK       I    between atoms: C_11  and  N_13 
REMARK    8  A    between atoms: N_13  and  N_14 
REMARK    9  A    between atoms: C_15  and  C_16 
REMARK   10  A    between atoms: C_15  and  C_18 
REMARK   11  A    between atoms: C_21  and  O_22 
REMARK   12  A    between atoms: C_28  and  O_29 
ROOT
ATOM      1  C   UNL d   1      26.825 -12.408  -5.760  0.00  0.00     0.019 C 
ENDROOT
BRANCH   1   2
ATOM      2  C   UNL d   1      26.872 -11.246  -4.778  0.00  0.00     0.105 C 
BRANCH   2   3
ATOM      3  C   UNL d   1      26.639 -11.805  -3.352  0.00  0.00     0.237 C 
ATOM      4  N   UNL d   1      27.809 -12.241  -2.771  0.00  0.00    -0.247 N 
ATOM      5  H   UNL d   1      28.604 -12.108  -3.352  0.00  0.00     0.192 HD
ATOM      6  O   UNL d   1      25.531 -11.845  -2.818  0.00  0.00    -0.272 OA
BRANCH   4   7
ATOM      7  N   UNL d   1      27.904 -12.775  -1.512  0.00  0.00    -0.176 NA
ATOM      8  C   UNL d   1      27.719 -12.073  -0.420  0.00  0.00     0.064 C 
BRANCH   8   9
ATOM      9  C   UNL d   1      27.405 -10.568  -0.289  0.00  0.00     0.057 C 
ATOM     10  C   UNL d   1      28.112  -9.792   0.799  0.00  0.00     0.011 C 
ENDBRANCH   8   9
BRANCH   8  11
ATOM     11  C   UNL d   1      27.858 -12.803   0.913  0.00  0.00    -0.010 A 
ATOM     12  C   UNL d   1      26.993 -12.559   1.997  0.00  0.00     0.016 A 
ATOM     13  C   UNL d   1      27.125 -13.271   3.206  0.00  0.00     0.037 A 
ATOM     14  C   UNL d   1      28.134 -14.219   3.337  0.00  0.00     0.065 A 
ATOM     15  C   UNL d   1      29.014 -14.451   2.286  0.00  0.00     0.037 A 
ATOM     16  C   UNL d   1      28.874 -13.752   1.076  0.00  0.00     0.016 A 
BRANCH  14  17
ATOM     17  O   UNL d   1      28.305 -14.953   4.474  0.00  0.00    -0.361 OA
ATOM     18  H   UNL d   1      29.032 -15.585   4.357  0.00  0.00     0.217 HD
ENDBRANCH  14  17
ENDBRANCH   8  11
ENDBRANCH   4   7
ENDBRANCH   2   3
ENDBRANCH   1   2
BRANCH   1  19
ATOM     19  C   UNL d   1      27.569 -13.685  -5.398  0.00  0.00     0.105 C 
BRANCH  19  20
ATOM     20  C   UNL d   1      26.530 -14.740  -4.943  0.00  0.00     0.237 C 
ATOM     21  O   UNL d   1      26.054 -15.589  -5.696  0.00  0.00    -0.272 OA
ATOM     22  N   UNL d   1      26.214 -14.608  -3.609  0.00  0.00    -0.247 N 
ATOM     23  H   UNL d   1      26.698 -13.862  -3.165  0.00  0.00     0.192 HD
BRANCH  22  24
ATOM     24  N   UNL d   1      25.330 -15.408  -2.935  0.00  0.00    -0.176 NA
ATOM     25  C   UNL d   1      25.570 -15.900  -1.744  0.00  0.00     0.064 C 
BRANCH  25  26
ATOM     26  C   UNL d   1      26.837 -15.737  -0.876  0.00  0.00     0.057 C 
ATOM     27  C   UNL d   1      28.016 -16.632  -1.176  0.00  0.00     0.011 C 
ENDBRANCH  25  26
BRANCH  25  28
ATOM     28  C   UNL d   1      24.505 -16.805  -1.131  0.00  0.00    -0.010 A 
ATOM     29  C   UNL d   1      23.192 -16.325  -1.010  0.00  0.00     0.016 A 
ATOM     30  C   UNL d   1      22.162 -17.145  -0.514  0.00  0.00     0.037 A 
ATOM     31  C   UNL d   1      22.448 -18.448  -0.121  0.00  0.00     0.065 A 
ATOM     32  C   UNL d   1      23.747 -18.934  -0.204  0.00  0.00     0.037 A 
ATOM     33  C   UNL d   1      24.774 -18.119  -0.713  0.00  0.00     0.016 A 
BRANCH  31  34
ATOM     34  O   UNL d   1      21.488 -19.294   0.353  0.00  0.00    -0.361 OA
ATOM     35  H   UNL d   1      21.891 -20.147   0.584  0.00  0.00     0.217 HD
ENDBRANCH  31  34
ENDBRANCH  25  28
ENDBRANCH  22  24
ENDBRANCH  19  20
ENDBRANCH   1  19
TORSDOF 12
ENDMDL
MODEL 8
REMARK VINA RESULT:    -7.266      2.761      3.737
REMARK INTER + INTRA:         -13.443
REMARK INTER:                 -10.845
REMARK INTRA:                  -2.598
REMARK CONF_INDEPENDENT:        3.580
REMARK UNBOUND:                -2.598
REMARK  12 active torsions:
REMARK  status: ('A' for Active; 'I' for Inactive)
REMARK    1  A    between atoms: C_2  and  C_3 
REMARK    2  A    between atoms: C_3  and  C_25 
REMARK    3  A    between atoms: N_4  and  N_5 
REMARK       I    between atoms: N_5  and  C_6 
REMARK    4  A    between atoms: C_6  and  C_8 
REMARK    5  A    between atoms: C_8  and  C_9 
REMARK    6  A    between atoms: C_9  and  C_10 
REMARK    7  A    between atoms: C_10  and  C_11 
REMARK       I    between atoms: C_11  and  N_13 
REMARK    8  A    between atoms: N_13  and  N_14 
REMARK    9  A    between atoms: C_15  and  C_16 
REMARK   10  A    between atoms: C_15  and  C_18 
REMARK   11  A    between atoms: C_21  and  O_22 
REMARK   12  A    between atoms: C_28  and  O_29 
ROOT
ATOM      1  C   UNL d   1      28.315 -12.890  -3.913  0.00  0.00     0.019 C 
ENDROOT
BRANCH   1   2
ATOM      2  C   UNL d   1      27.479 -13.340  -5.103  0.00  0.00     0.105 C 
BRANCH   2   3
ATOM      3  C   UNL d   1      26.605 -14.539  -4.657  0.00  0.00     0.237 C 
ATOM      4  N   UNL d   1      25.979 -14.301  -3.453  0.00  0.00    -0.247 N 
ATOM      5  H   UNL d   1      26.177 -13.400  -3.084  0.00  0.00     0.192 HD
ATOM      6  O   UNL d   1      26.494 -15.572  -5.315  0.00  0.00    -0.272 OA
BRANCH   4   7
ATOM      7  N   UNL d   1      25.139 -15.182  -2.823  0.00  0.00    -0.176 NA
ATOM      8  C   UNL d   1      25.500 -15.900  -1.787  0.00  0.00     0.064 C 
BRANCH   8   9
ATOM      9  C   UNL d   1      26.876 -15.953  -1.089  0.00  0.00     0.057 C 
ATOM     10  C   UNL d   1      26.940 -15.581   0.374  0.00  0.00     0.011 C 
ENDBRANCH   8   9
BRANCH   8  11
ATOM     11  C   UNL d   1      24.457 -16.839  -1.188  0.00  0.00    -0.010 A 
ATOM     12  C   UNL d   1      24.783 -18.130  -0.731  0.00  0.00     0.016 A 
ATOM     13  C   UNL d   1      23.804 -18.965  -0.153  0.00  0.00     0.037 A 
ATOM     14  C   UNL d   1      22.494 -18.512  -0.046  0.00  0.00     0.065 A 
ATOM     15  C   UNL d   1      22.151 -17.250  -0.518  0.00  0.00     0.037 A 
ATOM     16  C   UNL d   1      23.128 -16.413  -1.080  0.00  0.00     0.016 A 
BRANCH  14  17
ATOM     17  O   UNL d   1      21.505 -19.263   0.518  0.00  0.00    -0.361 OA
ATOM     18  H   UNL d   1      21.790 -20.188   0.592  0.00  0.00     0.217 HD
ENDBRANCH  14  17
ENDBRANCH   8  11
ENDBRANCH   4   7
ENDBRANCH   2   3
ENDBRANCH   1   2
BRANCH   1  19
ATOM     19  C   UNL d   1      27.774 -11.768  -3.038  0.00  0.00     0.105 C 
BRANCH  19  20
ATOM     20  C   UNL d   1      27.456 -12.354  -1.640  0.00  0.00     0.237 C 
ATOM     21  O   UNL d   1      26.313 -12.592  -1.252  0.00  0.00    -0.272 OA
ATOM     22  N   UNL d   1      28.598 -12.573  -0.902  0.00  0.00    -0.247 N 
ATOM     23  H   UNL d   1      29.430 -12.317  -1.384  0.00  0.00     0.192 HD
BRANCH  22  24
ATOM     24  N   UNL d   1      28.618 -13.091   0.366  0.00  0.00    -0.176 NA
ATOM     25  C   UNL d   1      28.254 -12.410   1.426  0.00  0.00     0.064 C 
BRANCH  25  26
ATOM     26  C   UNL d   1      27.774 -10.945   1.506  0.00  0.00     0.057 C 
ATOM     27  C   UNL d   1      26.653 -10.623   2.467  0.00  0.00     0.011 C 
ENDBRANCH  25  26
BRANCH  25  28
ATOM     28  C   UNL d   1      28.362 -13.107   2.778  0.00  0.00    -0.010 A 
ATOM     29  C   UNL d   1      29.618 -13.203   3.397  0.00  0.00     0.016 A 
ATOM     30  C   UNL d   1      29.757 -13.776   4.674  0.00  0.00     0.037 A 
ATOM     31  C   UNL d   1      28.637 -14.272   5.331  0.00  0.00     0.065 A 
ATOM     32  C   UNL d   1      27.388 -14.214   4.726  0.00  0.00     0.037 A 
ATOM     33  C   UNL d   1      27.246 -13.629   3.455  0.00  0.00     0.016 A 
BRANCH  31  34
ATOM     34  O   UNL d   1      28.708 -14.824   6.577  0.00  0.00    -0.361 OA
ATOM     35  H   UNL d   1      28.580 -15.786   6.515  0.00  0.00     0.217 HD
ENDBRANCH  31  34
ENDBRANCH  25  28
ENDBRANCH  22  24
ENDBRANCH  19  20
ENDBRANCH   1  19
TORSDOF 12
ENDMDL
MODEL 9
REMARK VINA RESULT:    -7.142      3.254      4.756
REMARK INTER + INTRA:         -13.809
REMARK INTER:                 -10.722
REMARK INTRA:                  -3.087
REMARK CONF_INDEPENDENT:        3.580
REMARK UNBOUND:                -3.087
REMARK  12 active torsions:
REMARK  status: ('A' for Active; 'I' for Inactive)
REMARK    1  A    between atoms: C_2  and  C_3 
REMARK    2  A    between atoms: C_3  and  C_25 
REMARK    3  A    between atoms: N_4  and  N_5 
REMARK       I    between atoms: N_5  and  C_6 
REMARK    4  A    between atoms: C_6  and  C_8 
REMARK    5  A    between atoms: C_8  and  C_9 
REMARK    6  A    between atoms: C_9  and  C_10 
REMARK    7  A    between atoms: C_10  and  C_11 
REMARK       I    between atoms: C_11  and  N_13 
REMARK    8  A    between atoms: N_13  and  N_14 
REMARK    9  A    between atoms: C_15  and  C_16 
REMARK   10  A    between atoms: C_15  and  C_18 
REMARK   11  A    between atoms: C_21  and  O_22 
REMARK   12  A    between atoms: C_28  and  O_29 
ROOT
ATOM      1  C   UNL d   1      27.123 -12.472  -5.571  0.00  0.00     0.019 C 
ENDROOT
BRANCH   1   2
ATOM      2  C   UNL d   1      27.839 -13.712  -5.057  0.00  0.00     0.105 C 
BRANCH   2   3
ATOM      3  C   UNL d   1      26.776 -14.798  -4.754  0.00  0.00     0.237 C 
ATOM      4  N   UNL d   1      26.388 -14.784  -3.432  0.00  0.00    -0.247 N 
ATOM      5  H   UNL d   1      26.838 -14.074  -2.903  0.00  0.00     0.192 HD
ATOM      6  O   UNL d   1      26.340 -15.570  -5.606  0.00  0.00    -0.272 OA
BRANCH   4   7
ATOM      7  N   UNL d   1      25.457 -15.627  -2.883  0.00  0.00    -0.176 NA
ATOM      8  C   UNL d   1      25.410 -15.906  -1.603  0.00  0.00     0.064 C 
BRANCH   8   9
ATOM      9  C   UNL d   1      26.349 -15.417  -0.479  0.00  0.00     0.057 C 
ATOM     10  C   UNL d   1      27.330 -16.409   0.102  0.00  0.00     0.011 C 
ENDBRANCH   8   9
BRANCH   8  11
ATOM     11  C   UNL d   1      24.317 -16.863  -1.134  0.00  0.00    -0.010 A 
ATOM     12  C   UNL d   1      22.993 -16.440  -0.914  0.00  0.00     0.016 A 
ATOM     13  C   UNL d   1      21.996 -17.352  -0.512  0.00  0.00     0.037 A 
ATOM     14  C   UNL d   1      22.329 -18.688  -0.314  0.00  0.00     0.065 A 
ATOM     15  C   UNL d   1      23.639 -19.116  -0.499  0.00  0.00     0.037 A 
ATOM     16  C   UNL d   1      24.628 -18.210  -0.915  0.00  0.00     0.016 A 
BRANCH  14  17
ATOM     17  O   UNL d   1      21.409 -19.623   0.059  0.00  0.00    -0.361 OA
ATOM     18  H   UNL d   1      21.406 -19.721   1.025  0.00  0.00     0.217 HD
ENDBRANCH  14  17
ENDBRANCH   8  11
ENDBRANCH   4   7
ENDBRANCH   2   3
ENDBRANCH   1   2
BRANCH   1  19
ATOM     19  C   UNL d   1      26.822 -11.354  -4.582  0.00  0.00     0.105 C 
BRANCH  19  20
ATOM     20  C   UNL d   1      26.625 -11.986  -3.182  0.00  0.00     0.237 C 
ATOM     21  O   UNL d   1      25.519 -12.240  -2.705  0.00  0.00    -0.272 OA
ATOM     22  N   UNL d   1      27.826 -12.224  -2.551  0.00  0.00    -0.247 N 
ATOM     23  H   UNL d   1      28.613 -11.950  -3.094  0.00  0.00     0.192 HD
BRANCH  22  24
ATOM     24  N   UNL d   1      27.955 -12.782  -1.307  0.00  0.00    -0.176 NA
ATOM     25  C   UNL d   1      27.803 -12.103  -0.196  0.00  0.00     0.064 C 
BRANCH  25  26
ATOM     26  C   UNL d   1      27.494 -10.599  -0.026  0.00  0.00     0.057 C 
ATOM     27  C   UNL d   1      28.551  -9.610  -0.457  0.00  0.00     0.011 C 
ENDBRANCH  25  26
BRANCH  25  28
ATOM     28  C   UNL d   1      28.011 -12.850   1.118  0.00  0.00    -0.010 A 
ATOM     29  C   UNL d   1      26.940 -12.953   2.019  0.00  0.00     0.016 A 
ATOM     30  C   UNL d   1      27.063 -13.689   3.211  0.00  0.00     0.037 A 
ATOM     31  C   UNL d   1      28.267 -14.315   3.513  0.00  0.00     0.065 A 
ATOM     32  C   UNL d   1      29.349 -14.203   2.649  0.00  0.00     0.037 A 
ATOM     33  C   UNL d   1      29.223 -13.478   1.451  0.00  0.00     0.016 A 
BRANCH  31  34
ATOM     34  O   UNL d   1      28.440 -15.055   4.646  0.00  0.00    -0.361 OA
ATOM     35  H   UNL d   1      28.842 -15.910   4.419  0.00  0.00     0.217 HD
ENDBRANCH  31  34
ENDBRANCH  25  28
ENDBRANCH  22  24
ENDBRANCH  19  20
ENDBRANCH   1  19
TORSDOF 12
ENDMDL
