MODEL 1
REMARK VINA RESULT:    -7.514      0.000      0.000
REMARK INTER + INTRA:         -13.917
REMARK INTER:                 -10.199
REMARK INTRA:                  -3.719
REMARK CONF_INDEPENDENT:        2.685
REMARK UNBOUND:                -3.719
REMARK  9 active torsions:
REMARK  status: ('A' for Active; 'I' for Inactive)
REMARK    1  A    between atoms: C_8  and  N_9 
REMARK       I    between atoms: N_9  and  C_10 
REMARK    2  A    between atoms: C_10  and  C_12 
REMARK       I    between atoms: C_12  and  N_14 
REMARK    3  A    between atoms: N_14  and  N_15 
REMARK    4  A    between atoms: C_16  and  C_17 
REMARK    5  A    between atoms: C_20  and  O_21 
REMARK    6  A    between atoms: O_21  and  C_22 
REMARK    7  A    between atoms: C_22  and  C_23 
REMARK       I    between atoms: C_23  and  N_25 
REMARK    8  A    between atoms: N_25  and  C_26 
REMARK    9  A    between atoms: C_27  and  C_26 
ROOT
ATOM      1  C   UNL d   1      27.044 -15.388   0.121  0.00  0.00    -0.017 A 
ATOM      2  C   UNL d   1      26.475 -16.463  -0.564  0.00  0.00     0.015 A 
ATOM      3  C   UNL d   1      25.822 -16.233  -1.791  0.00  0.00     0.037 A 
ATOM      4  C   UNL d   1      25.699 -14.938  -2.317  0.00  0.00     0.069 A 
ATOM      5  C   UNL d   1      26.279 -13.877  -1.627  0.00  0.00     0.037 A 
ATOM      6  C   UNL d   1      26.943 -14.101  -0.415  0.00  0.00     0.015 A 
ENDROOT
BRANCH   1   7
ATOM      7  C   UNL d   1      27.780 -15.561   1.402  0.00  0.00     0.150 C 
ATOM      8  N   UNL d   1      27.649 -14.667   2.335  0.00  0.00    -0.183 NA
BRANCH   8   9
ATOM      9  N   UNL d   1      28.353 -14.826   3.492  0.00  0.00    -0.239 N 
ATOM     10  C   UNL d   1      27.981 -14.176   4.684  0.00  0.00     0.329 C 
ATOM     11  O   UNL d   1      27.039 -13.422   4.889  0.00  0.00    -0.261 OA
ATOM     12  H   UNL d   1      29.182 -15.427   3.527  0.00  0.00     0.192 HD
BRANCH  10  13
ATOM     13  C   UNL d   1      28.947 -14.532   5.819  0.00  0.00     0.315 C 
ATOM     14  N   UNL d   1      28.802 -13.923   7.079  0.00  0.00    -0.318 N 
ATOM     15  H   UNL d   1      28.017 -13.274   7.145  0.00  0.00     0.169 HD
ATOM     16  O   UNL d   1      29.769 -15.362   5.436  0.00  0.00    -0.262 OA
BRANCH  14  17
ATOM     17  C   UNL d   1      29.610 -14.080   8.276  0.00  0.00     0.041 A 
ATOM     18  C   UNL d   1      30.974 -14.446   8.137  0.00  0.00     0.032 A 
ATOM     19  C   UNL d   1      31.823 -14.632   9.260  0.00  0.00     0.026 A 
ATOM     20  C   UNL d   1      31.329 -14.470  10.545  0.00  0.00     0.034 A 
ATOM     21  C   UNL d   1      30.007 -14.114  10.710  0.00  0.00     0.032 A 
ATOM     22 CL   UNL d   1      32.318 -14.687  11.934  0.00  0.00    -0.084 Cl
ATOM     23  C   UNL d   1      29.155 -13.904   9.602  0.00  0.00    -0.034 A 
ATOM     24  C   UNL d   1      27.781 -13.476   9.984  0.00  0.00     0.050 C 
ENDBRANCH  14  17
ENDBRANCH  10  13
ENDBRANCH   8   9
ENDBRANCH   1   7
BRANCH   4  25
ATOM     25  O   UNL d   1      24.993 -14.831  -3.486  0.00  0.00    -0.342 OA
BRANCH  25  26
ATOM     26  C   UNL d   1      24.593 -13.528  -3.924  0.00  0.00     0.278 C 
BRANCH  26  27
ATOM     27  C   UNL d   1      25.716 -12.853  -4.735  0.00  0.00     0.241 C 
ATOM     28  O   UNL d   1      25.673 -11.683  -5.109  0.00  0.00    -0.271 OA
ATOM     29  N   UNL d   1      26.810 -13.659  -5.008  0.00  0.00    -0.357 N 
ATOM     30  H   UNL d   1      26.746 -14.662  -4.884  0.00  0.00     0.162 HD
BRANCH  29  31
ATOM     31  C   UNL d   1      27.892 -13.177  -5.862  0.00  0.00     0.154 C 
BRANCH  31  32
ATOM     32  C   UNL d   1      28.543 -14.276  -6.725  0.00  0.00     0.139 C 
ATOM     33  C   UNL d   1      30.055 -14.135  -6.819  0.00  0.00     0.035 C 
ATOM     34  C   UNL d   1      30.543 -14.998  -5.687  0.00  0.00     0.029 C 
ATOM     35  C   UNL d   1      29.524 -16.116  -5.659  0.00  0.00     0.168 C 
ATOM     36  O   UNL d   1      28.287 -15.574  -6.146  0.00  0.00    -0.384 OA
ENDBRANCH  31  32
ENDBRANCH  29  31
ENDBRANCH  26  27
ENDBRANCH  25  26
ENDBRANCH   4  25
TORSDOF 9
ENDMDL
MODEL 2
REMARK VINA RESULT:    -7.213      1.270      2.428
REMARK INTER + INTRA:         -13.712
REMARK INTER:                  -9.897
REMARK INTRA:                  -3.814
REMARK CONF_INDEPENDENT:        2.685
REMARK UNBOUND:                -3.814
REMARK  9 active torsions:
REMARK  status: ('A' for Active; 'I' for Inactive)
REMARK    1  A    between atoms: C_8  and  N_9 
REMARK       I    between atoms: N_9  and  C_10 
REMARK    2  A    between atoms: C_10  and  C_12 
REMARK       I    between atoms: C_12  and  N_14 
REMARK    3  A    between atoms: N_14  and  N_15 
REMARK    4  A    between atoms: C_16  and  C_17 
REMARK    5  A    between atoms: C_20  and  O_21 
REMARK    6  A    between atoms: O_21  and  C_22 
REMARK    7  A    between atoms: C_22  and  C_23 
REMARK       I    between atoms: C_23  and  N_25 
REMARK    8  A    between atoms: N_25  and  C_26 
REMARK    9  A    between atoms: C_27  and  C_26 
ROOT
ATOM      1  C   UNL d   1      27.076 -15.386   0.188  0.00  0.00    -0.017 A 
ATOM      2  C   UNL d   1      26.576 -16.464  -0.545  0.00  0.00     0.015 A 
ATOM      3  C   UNL d   1      25.952 -16.227  -1.785  0.00  0.00     0.037 A 
ATOM      4  C   UNL d   1      25.789 -14.923  -2.279  0.00  0.00     0.069 A 
ATOM      5  C   UNL d   1      26.301 -13.859  -1.542  0.00  0.00     0.037 A 
ATOM      6  C   UNL d   1      26.936 -14.090  -0.315  0.00  0.00     0.015 A 
ENDROOT
BRANCH   1   7
ATOM      7  C   UNL d   1      27.780 -15.565   1.486  0.00  0.00     0.150 C 
ATOM      8  N   UNL d   1      27.842 -14.569   2.317  0.00  0.00    -0.183 NA
BRANCH   8   9
ATOM      9  N   UNL d   1      28.515 -14.740   3.490  0.00  0.00    -0.239 N 
ATOM     10  C   UNL d   1      28.104 -14.115   4.682  0.00  0.00     0.329 C 
ATOM     11  O   UNL d   1      27.149 -13.373   4.873  0.00  0.00    -0.261 OA
ATOM     12  H   UNL d   1      29.348 -15.334   3.539  0.00  0.00     0.192 HD
BRANCH  10  13
ATOM     13  C   UNL d   1      29.041 -14.481   5.838  0.00  0.00     0.315 C 
ATOM     14  N   UNL d   1      28.859 -13.889   7.100  0.00  0.00    -0.318 N 
ATOM     15  H   UNL d   1      28.070 -13.244   7.154  0.00  0.00     0.169 HD
ATOM     16  O   UNL d   1      29.877 -15.301   5.466  0.00  0.00    -0.262 OA
BRANCH  14  17
ATOM     17  C   UNL d   1      29.636 -14.058   8.317  0.00  0.00     0.041 A 
ATOM     18  C   UNL d   1      30.995 -14.451   8.211  0.00  0.00     0.032 A 
ATOM     19  C   UNL d   1      31.814 -14.651   9.353  0.00  0.00     0.026 A 
ATOM     20  C   UNL d   1      31.294 -14.474  10.626  0.00  0.00     0.034 A 
ATOM     21  C   UNL d   1      29.976 -14.091  10.760  0.00  0.00     0.032 A 
ATOM     22 CL   UNL d   1      32.246 -14.706  12.039  0.00  0.00    -0.084 Cl
ATOM     23  C   UNL d   1      29.154 -13.868   9.632  0.00  0.00    -0.034 A 
ATOM     24  C   UNL d   1      27.780 -13.411   9.980  0.00  0.00     0.050 C 
ENDBRANCH  14  17
ENDBRANCH  10  13
ENDBRANCH   8   9
ENDBRANCH   1   7
BRANCH   4  25
ATOM     25  O   UNL d   1      25.116 -14.812  -3.467  0.00  0.00    -0.342 OA
BRANCH  25  26
ATOM     26  C   UNL d   1      25.613 -15.530  -4.601  0.00  0.00     0.278 C 
BRANCH  26  27
ATOM     27  C   UNL d   1      26.698 -14.716  -5.332  0.00  0.00     0.241 C 
ATOM     28  O   UNL d   1      27.462 -15.201  -6.164  0.00  0.00    -0.271 OA
ATOM     29  N   UNL d   1      26.748 -13.372  -5.001  0.00  0.00    -0.357 N 
ATOM     30  H   UNL d   1      26.268 -13.033  -4.177  0.00  0.00     0.162 HD
BRANCH  29  31
ATOM     31  C   UNL d   1      27.801 -12.514  -5.539  0.00  0.00     0.154 C 
BRANCH  31  32
ATOM     32  C   UNL d   1      27.632 -11.022  -5.186  0.00  0.00     0.139 C 
ATOM     33  C   UNL d   1      26.996 -10.218  -6.309  0.00  0.00     0.035 C 
ATOM     34  C   UNL d   1      25.530 -10.269  -5.970  0.00  0.00     0.029 C 
ATOM     35  C   UNL d   1      25.540 -10.263  -4.457  0.00  0.00     0.168 C 
ATOM     36  O   UNL d   1      26.766 -10.882  -4.039  0.00  0.00    -0.384 OA
ENDBRANCH  31  32
ENDBRANCH  29  31
ENDBRANCH  26  27
ENDBRANCH  25  26
ENDBRANCH   4  25
TORSDOF 9
ENDMDL
MODEL 3
REMARK VINA RESULT:    -7.156      2.154      3.978
REMARK INTER + INTRA:         -13.591
REMARK INTER:                  -9.841
REMARK INTRA:                  -3.750
REMARK CONF_INDEPENDENT:        2.685
REMARK UNBOUND:                -3.750
REMARK  9 active torsions:
REMARK  status: ('A' for Active; 'I' for Inactive)
REMARK    1  A    between atoms: C_8  and  N_9 
REMARK       I    between atoms: N_9  and  C_10 
REMARK    2  A    between atoms: C_10  and  C_12 
REMARK       I    between atoms: C_12  and  N_14 
REMARK    3  A    between atoms: N_14  and  N_15 
REMARK    4  A    between atoms: C_16  and  C_17 
REMARK    5  A    between atoms: C_20  and  O_21 
REMARK    6  A    between atoms: O_21  and  C_22 
REMARK    7  A    between atoms: C_22  and  C_23 
REMARK       I    between atoms: C_23  and  N_25 
REMARK    8  A    between atoms: N_25  and  C_26 
REMARK    9  A    between atoms: C_27  and  C_26 
ROOT
ATOM      1  C   UNL d   1      28.513 -14.746  -0.480  0.00  0.00    -0.017 A 
ATOM      2  C   UNL d   1      28.058 -13.681  -1.259  0.00  0.00     0.015 A 
ATOM      3  C   UNL d   1      27.847 -13.875  -2.638  0.00  0.00     0.037 A 
ATOM      4  C   UNL d   1      28.125 -15.107  -3.250  0.00  0.00     0.069 A 
ATOM      5  C   UNL d   1      28.569 -16.163  -2.458  0.00  0.00     0.037 A 
ATOM      6  C   UNL d   1      28.766 -15.981  -1.084  0.00  0.00     0.015 A 
ENDROOT
BRANCH   1   7
ATOM      7  C   UNL d   1      28.722 -14.626   0.988  0.00  0.00     0.150 C 
ATOM      8  N   UNL d   1      27.878 -15.191   1.798  0.00  0.00    -0.183 NA
BRANCH   8   9
ATOM      9  N   UNL d   1      28.068 -15.047   3.140  0.00  0.00    -0.239 N 
ATOM     10  C   UNL d   1      27.873 -13.814   3.792  0.00  0.00     0.329 C 
ATOM     11  O   UNL d   1      27.521 -12.741   3.319  0.00  0.00    -0.261 OA
ATOM     12  H   UNL d   1      28.363 -15.839   3.720  0.00  0.00     0.192 HD
BRANCH  10  13
ATOM     13  C   UNL d   1      28.159 -13.942   5.291  0.00  0.00     0.315 C 
ATOM     14  N   UNL d   1      28.374 -12.786   6.063  0.00  0.00    -0.318 N 
ATOM     15  H   UNL d   1      28.303 -11.912   5.542  0.00  0.00     0.169 HD
ATOM     16  O   UNL d   1      28.158 -15.125   5.627  0.00  0.00    -0.262 OA
BRANCH  14  17
ATOM     17  C   UNL d   1      28.690 -12.670   7.477  0.00  0.00     0.041 A 
ATOM     18  C   UNL d   1      28.647 -13.835   8.286  0.00  0.00     0.032 A 
ATOM     19  C   UNL d   1      28.929 -13.798   9.677  0.00  0.00     0.026 A 
ATOM     20  C   UNL d   1      29.249 -12.599  10.294  0.00  0.00     0.034 A 
ATOM     21  C   UNL d   1      29.299 -11.450   9.533  0.00  0.00     0.032 A 
ATOM     22 CL   UNL d   1      29.596 -12.505  11.976  0.00  0.00    -0.084 Cl
ATOM     23  C   UNL d   1      29.043 -11.474   8.143  0.00  0.00    -0.034 A 
ATOM     24  C   UNL d   1      29.197 -10.145   7.489  0.00  0.00     0.050 C 
ENDBRANCH  14  17
ENDBRANCH  10  13
ENDBRANCH   8   9
ENDBRANCH   1   7
BRANCH   4  25
ATOM     25  O   UNL d   1      27.936 -15.159  -4.606  0.00  0.00    -0.342 OA
BRANCH  25  26
ATOM     26  C   UNL d   1      26.658 -15.573  -5.101  0.00  0.00     0.278 C 
BRANCH  26  27
ATOM     27  C   UNL d   1      25.531 -15.125  -4.151  0.00  0.00     0.241 C 
ATOM     28  O   UNL d   1      24.805 -14.158  -4.370  0.00  0.00    -0.271 OA
ATOM     29  N   UNL d   1      25.371 -15.907  -3.018  0.00  0.00    -0.357 N 
ATOM     30  H   UNL d   1      26.095 -16.559  -2.744  0.00  0.00     0.162 HD
BRANCH  29  31
ATOM     31  C   UNL d   1      24.414 -15.527  -1.983  0.00  0.00     0.154 C 
BRANCH  31  32
ATOM     32  C   UNL d   1      24.729 -16.115  -0.593  0.00  0.00     0.139 C 
ATOM     33  C   UNL d   1      23.710 -17.152  -0.145  0.00  0.00     0.035 C 
ATOM     34  C   UNL d   1      24.315 -18.445  -0.622  0.00  0.00     0.029 C 
ATOM     35  C   UNL d   1      25.798 -18.195  -0.464  0.00  0.00     0.168 C 
ATOM     36  O   UNL d   1      26.009 -16.784  -0.620  0.00  0.00    -0.384 OA
ENDBRANCH  31  32
ENDBRANCH  29  31
ENDBRANCH  26  27
ENDBRANCH  25  26
ENDBRANCH   4  25
TORSDOF 9
ENDMDL
MODEL 4
REMARK VINA RESULT:    -7.137      1.686      2.950
REMARK INTER + INTRA:         -13.663
REMARK INTER:                  -9.821
REMARK INTRA:                  -3.842
REMARK CONF_INDEPENDENT:        2.685
REMARK UNBOUND:                -3.842
REMARK  9 active torsions:
REMARK  status: ('A' for Active; 'I' for Inactive)
REMARK    1  A    between atoms: C_8  and  N_9 
REMARK       I    between atoms: N_9  and  C_10 
REMARK    2  A    between atoms: C_10  and  C_12 
REMARK       I    between atoms: C_12  and  N_14 
REMARK    3  A    between atoms: N_14  and  N_15 
REMARK    4  A    between atoms: C_16  and  C_17 
REMARK    5  A    between atoms: C_20  and  O_21 
REMARK    6  A    between atoms: O_21  and  C_22 
REMARK    7  A    between atoms: C_22  and  C_23 
REMARK       I    between atoms: C_23  and  N_25 
REMARK    8  A    between atoms: N_25  and  C_26 
REMARK    9  A    between atoms: C_27  and  C_26 
ROOT
ATOM      1  C   UNL d   1      26.658 -14.275  -0.011  0.00  0.00    -0.017 A 
ATOM      2  C   UNL d   1      26.803 -13.282  -0.982  0.00  0.00     0.015 A 
ATOM      3  C   UNL d   1      26.251 -13.482  -2.262  0.00  0.00     0.037 A 
ATOM      4  C   UNL d   1      25.593 -14.678  -2.591  0.00  0.00     0.069 A 
ATOM      5  C   UNL d   1      25.448 -15.654  -1.609  0.00  0.00     0.037 A 
ATOM      6  C   UNL d   1      25.981 -15.455  -0.330  0.00  0.00     0.015 A 
ENDROOT
BRANCH   1   7
ATOM      7  C   UNL d   1      27.182 -14.116   1.373  0.00  0.00     0.150 C 
ATOM      8  N   UNL d   1      28.052 -14.968   1.823  0.00  0.00    -0.183 NA
BRANCH   8   9
ATOM      9  N   UNL d   1      28.501 -14.826   3.103  0.00  0.00    -0.239 N 
ATOM     10  C   UNL d   1      27.731 -14.191   4.095  0.00  0.00     0.329 C 
ATOM     11  O   UNL d   1      26.613 -13.699   4.005  0.00  0.00    -0.261 OA
ATOM     12  H   UNL d   1      29.422 -15.178   3.382  0.00  0.00     0.192 HD
BRANCH  10  13
ATOM     13  C   UNL d   1      28.479 -14.170   5.432  0.00  0.00     0.315 C 
ATOM     14  N   UNL d   1      28.106 -13.250   6.428  0.00  0.00    -0.318 N 
ATOM     15  H   UNL d   1      27.319 -12.652   6.176  0.00  0.00     0.169 HD
ATOM     16  O   UNL d   1      29.361 -15.026   5.440  0.00  0.00    -0.262 OA
BRANCH  14  17
ATOM     17  C   UNL d   1      28.687 -13.030   7.742  0.00  0.00     0.041 A 
ATOM     18  C   UNL d   1      28.925 -14.150   8.580  0.00  0.00     0.032 A 
ATOM     19  C   UNL d   1      29.476 -14.014   9.882  0.00  0.00     0.026 A 
ATOM     20  C   UNL d   1      29.791 -12.760  10.380  0.00  0.00     0.034 A 
ATOM     21  C   UNL d   1      29.572 -11.653   9.587  0.00  0.00     0.032 A 
ATOM     22 CL   UNL d   1      30.459 -12.546  11.951  0.00  0.00    -0.084 Cl
ATOM     23  C   UNL d   1      29.045 -11.774   8.282  0.00  0.00    -0.034 A 
ATOM     24  C   UNL d   1      28.929 -10.473   7.566  0.00  0.00     0.050 C 
ENDBRANCH  14  17
ENDBRANCH  10  13
ENDBRANCH   8   9
ENDBRANCH   1   7
BRANCH   4  25
ATOM     25  O   UNL d   1      25.149 -14.782  -3.883  0.00  0.00    -0.342 OA
BRANCH  25  26
ATOM     26  C   UNL d   1      25.906 -15.576  -4.802  0.00  0.00     0.278 C 
BRANCH  26  27
ATOM     27  C   UNL d   1      26.972 -14.721  -5.515  0.00  0.00     0.241 C 
ATOM     28  O   UNL d   1      27.901 -15.199  -6.163  0.00  0.00    -0.271 OA
ATOM     29  N   UNL d   1      26.804 -13.351  -5.396  0.00  0.00    -0.357 N 
ATOM     30  H   UNL d   1      26.173 -12.975  -4.698  0.00  0.00     0.162 HD
BRANCH  29  31
ATOM     31  C   UNL d   1      27.804 -12.431  -5.930  0.00  0.00     0.154 C 
BRANCH  31  32
ATOM     32  C   UNL d   1      27.657 -10.983  -5.421  0.00  0.00     0.139 C 
ATOM     33  C   UNL d   1      26.982 -10.068  -6.430  0.00  0.00     0.035 C 
ATOM     34  C   UNL d   1      25.530 -10.152  -6.041  0.00  0.00     0.029 C 
ATOM     35  C   UNL d   1      25.598 -10.300  -4.537  0.00  0.00     0.168 C 
ATOM     36  O   UNL d   1      26.837 -10.960  -4.232  0.00  0.00    -0.384 OA
ENDBRANCH  31  32
ENDBRANCH  29  31
ENDBRANCH  26  27
ENDBRANCH  25  26
ENDBRANCH   4  25
TORSDOF 9
ENDMDL
MODEL 5
REMARK VINA RESULT:    -6.796      2.047      2.833
REMARK INTER + INTRA:         -13.432
REMARK INTER:                  -9.481
REMARK INTRA:                  -3.952
REMARK CONF_INDEPENDENT:        2.685
REMARK UNBOUND:                -3.952
REMARK  9 active torsions:
REMARK  status: ('A' for Active; 'I' for Inactive)
REMARK    1  A    between atoms: C_8  and  N_9 
REMARK       I    between atoms: N_9  and  C_10 
REMARK    2  A    between atoms: C_10  and  C_12 
REMARK       I    between atoms: C_12  and  N_14 
REMARK    3  A    between atoms: N_14  and  N_15 
REMARK    4  A    between atoms: C_16  and  C_17 
REMARK    5  A    between atoms: C_20  and  O_21 
REMARK    6  A    between atoms: O_21  and  C_22 
REMARK    7  A    between atoms: C_22  and  C_23 
REMARK       I    between atoms: C_23  and  N_25 
REMARK    8  A    between atoms: N_25  and  C_26 
REMARK    9  A    between atoms: C_27  and  C_26 
ROOT
ATOM      1  C   UNL d   1      26.806 -14.458  -0.063  0.00  0.00    -0.017 A 
ATOM      2  C   UNL d   1      26.879 -13.484  -1.062  0.00  0.00     0.015 A 
ATOM      3  C   UNL d   1      26.364 -13.767  -2.342  0.00  0.00     0.037 A 
ATOM      4  C   UNL d   1      25.814 -15.023  -2.643  0.00  0.00     0.069 A 
ATOM      5  C   UNL d   1      25.739 -15.980  -1.634  0.00  0.00     0.037 A 
ATOM      6  C   UNL d   1      26.236 -15.700  -0.356  0.00  0.00     0.015 A 
ENDROOT
BRANCH   1   7
ATOM      7  C   UNL d   1      27.295 -14.216   1.321  0.00  0.00     0.150 C 
ATOM      8  N   UNL d   1      27.754 -15.213   2.014  0.00  0.00    -0.183 NA
BRANCH   8   9
ATOM      9  N   UNL d   1      28.172 -14.980   3.291  0.00  0.00    -0.239 N 
ATOM     10  C   UNL d   1      27.623 -13.950   4.078  0.00  0.00     0.329 C 
ATOM     11  O   UNL d   1      26.744 -13.148   3.791  0.00  0.00    -0.261 OA
ATOM     12  H   UNL d   1      28.906 -15.553   3.719  0.00  0.00     0.192 HD
BRANCH  10  13
ATOM     13  C   UNL d   1      28.280 -13.916   5.462  0.00  0.00     0.315 C 
ATOM     14  N   UNL d   1      28.025 -12.839   6.330  0.00  0.00    -0.318 N 
ATOM     15  H   UNL d   1      27.381 -12.141   5.959  0.00  0.00     0.169 HD
ATOM     16  O   UNL d   1      28.984 -14.910   5.624  0.00  0.00    -0.262 OA
BRANCH  14  17
ATOM     17  C   UNL d   1      28.556 -12.584   7.659  0.00  0.00     0.041 A 
ATOM     18  C   UNL d   1      28.530 -13.628   8.618  0.00  0.00     0.032 A 
ATOM     19  C   UNL d   1      29.016 -13.451   9.940  0.00  0.00     0.026 A 
ATOM     20  C   UNL d   1      29.529 -12.226  10.338  0.00  0.00     0.034 A 
ATOM     21  C   UNL d   1      29.568 -11.192   9.426  0.00  0.00     0.032 A 
ATOM     22 CL   UNL d   1      30.127 -11.963  11.929  0.00  0.00    -0.084 Cl
ATOM     23  C   UNL d   1      29.108 -11.360   8.101  0.00  0.00    -0.034 A 
ATOM     24  C   UNL d   1      29.280 -10.146   7.255  0.00  0.00     0.050 C 
ENDBRANCH  14  17
ENDBRANCH  10  13
ENDBRANCH   8   9
ENDBRANCH   1   7
BRANCH   4  25
ATOM     25  O   UNL d   1      25.398 -15.201  -3.936  0.00  0.00    -0.342 OA
BRANCH  25  26
ATOM     26  C   UNL d   1      26.047 -14.453  -4.969  0.00  0.00     0.278 C 
BRANCH  26  27
ATOM     27  C   UNL d   1      27.386 -15.106  -5.361  0.00  0.00     0.241 C 
ATOM     28  O   UNL d   1      27.780 -15.200  -6.521  0.00  0.00    -0.271 OA
ATOM     29  N   UNL d   1      28.145 -15.574  -4.300  0.00  0.00    -0.357 N 
ATOM     30  H   UNL d   1      27.726 -15.683  -3.385  0.00  0.00     0.162 HD
BRANCH  29  31
ATOM     31  C   UNL d   1      29.381 -16.313  -4.541  0.00  0.00     0.154 C 
BRANCH  31  32
ATOM     32  C   UNL d   1      29.901 -17.080  -3.309  0.00  0.00     0.139 C 
ATOM     33  C   UNL d   1      31.152 -16.456  -2.709  0.00  0.00     0.035 C 
ATOM     34  C   UNL d   1      30.596 -15.528  -1.662  0.00  0.00     0.029 C 
ATOM     35  C   UNL d   1      29.375 -16.275  -1.173  0.00  0.00     0.168 C 
ATOM     36  O   UNL d   1      28.901 -17.075  -2.267  0.00  0.00    -0.384 OA
ENDBRANCH  31  32
ENDBRANCH  29  31
ENDBRANCH  26  27
ENDBRANCH  25  26
ENDBRANCH   4  25
TORSDOF 9
ENDMDL
MODEL 6
REMARK VINA RESULT:    -6.610      2.061      2.749
REMARK INTER + INTRA:         -13.189
REMARK INTER:                  -9.294
REMARK INTRA:                  -3.894
REMARK CONF_INDEPENDENT:        2.685
REMARK UNBOUND:                -3.894
REMARK  9 active torsions:
REMARK  status: ('A' for Active; 'I' for Inactive)
REMARK    1  A    between atoms: C_8  and  N_9 
REMARK       I    between atoms: N_9  and  C_10 
REMARK    2  A    between atoms: C_10  and  C_12 
REMARK       I    between atoms: C_12  and  N_14 
REMARK    3  A    between atoms: N_14  and  N_15 
REMARK    4  A    between atoms: C_16  and  C_17 
REMARK    5  A    between atoms: C_20  and  O_21 
REMARK    6  A    between atoms: O_21  and  C_22 
REMARK    7  A    between atoms: C_22  and  C_23 
REMARK       I    between atoms: C_23  and  N_25 
REMARK    8  A    between atoms: N_25  and  C_26 
REMARK    9  A    between atoms: C_27  and  C_26 
ROOT
ATOM      1  C   UNL d   1      27.150 -15.518  -0.860  0.00  0.00    -0.017 A 
ATOM      2  C   UNL d   1      25.930 -15.414  -1.531  0.00  0.00     0.015 A 
ATOM      3  C   UNL d   1      25.908 -15.463  -2.938  0.00  0.00     0.037 A 
ATOM      4  C   UNL d   1      27.094 -15.575  -3.680  0.00  0.00     0.069 A 
ATOM      5  C   UNL d   1      28.302 -15.687  -2.998  0.00  0.00     0.037 A 
ATOM      6  C   UNL d   1      28.330 -15.655  -1.598  0.00  0.00     0.015 A 
ENDROOT
BRANCH   1   7
ATOM      7  C   UNL d   1      27.246 -15.512   0.624  0.00  0.00     0.150 C 
ATOM      8  N   UNL d   1      28.080 -14.702   1.203  0.00  0.00    -0.183 NA
BRANCH   8   9
ATOM      9  N   UNL d   1      28.176 -14.729   2.563  0.00  0.00    -0.239 N 
ATOM     10  C   UNL d   1      28.271 -13.549   3.325  0.00  0.00     0.329 C 
ATOM     11  O   UNL d   1      28.278 -12.386   2.946  0.00  0.00    -0.261 OA
ATOM     12  H   UNL d   1      28.183 -15.616   3.074  0.00  0.00     0.192 HD
BRANCH  10  13
ATOM     13  C   UNL d   1      28.369 -13.877   4.819  0.00  0.00     0.315 C 
ATOM     14  N   UNL d   1      28.655 -12.854   5.742  0.00  0.00    -0.318 N 
ATOM     15  H   UNL d   1      28.764 -11.929   5.325  0.00  0.00     0.169 HD
ATOM     16  O   UNL d   1      28.166 -15.074   5.008  0.00  0.00    -0.262 OA
BRANCH  14  17
ATOM     17  C   UNL d   1      28.826 -12.936   7.182  0.00  0.00     0.041 A 
ATOM     18  C   UNL d   1      28.907 -14.216   7.790  0.00  0.00     0.032 A 
ATOM     19  C   UNL d   1      29.059 -14.377   9.192  0.00  0.00     0.026 A 
ATOM     20  C   UNL d   1      29.122 -13.268  10.021  0.00  0.00     0.034 A 
ATOM     21  C   UNL d   1      29.047 -12.011   9.458  0.00  0.00     0.032 A 
ATOM     22 CL   UNL d   1      29.304 -13.413  11.725  0.00  0.00    -0.084 Cl
ATOM     23  C   UNL d   1      28.918 -11.834   8.062  0.00  0.00    -0.034 A 
ATOM     24  C   UNL d   1      28.905 -10.404   7.644  0.00  0.00     0.050 C 
ENDBRANCH  14  17
ENDBRANCH  10  13
ENDBRANCH   8   9
ENDBRANCH   1   7
BRANCH   4  25
ATOM     25  O   UNL d   1      26.953 -15.554  -5.042  0.00  0.00    -0.342 OA
BRANCH  25  26
ATOM     26  C   UNL d   1      27.306 -14.359  -5.746  0.00  0.00     0.278 C 
BRANCH  26  27
ATOM     27  C   UNL d   1      28.645 -14.534  -6.488  0.00  0.00     0.241 C 
ATOM     28  O   UNL d   1      29.093 -13.709  -7.281  0.00  0.00    -0.271 OA
ATOM     29  N   UNL d   1      29.337 -15.696  -6.185  0.00  0.00    -0.357 N 
ATOM     30  H   UNL d   1      28.870 -16.455  -5.704  0.00  0.00     0.162 HD
BRANCH  29  31
ATOM     31  C   UNL d   1      30.563 -16.037  -6.901  0.00  0.00     0.154 C 
BRANCH  31  32
ATOM     32  C   UNL d   1      31.100 -17.447  -6.584  0.00  0.00     0.139 C 
ATOM     33  C   UNL d   1      32.259 -17.431  -5.600  0.00  0.00     0.035 C 
ATOM     34  C   UNL d   1      31.574 -17.600  -4.271  0.00  0.00     0.029 C 
ATOM     35  C   UNL d   1      30.409 -18.503  -4.611  0.00  0.00     0.168 C 
ATOM     36  O   UNL d   1      30.060 -18.247  -5.980  0.00  0.00    -0.384 OA
ENDBRANCH  31  32
ENDBRANCH  29  31
ENDBRANCH  26  27
ENDBRANCH  25  26
ENDBRANCH   4  25
TORSDOF 9
ENDMDL
MODEL 7
REMARK VINA RESULT:    -6.386      2.038      3.045
REMARK INTER + INTRA:         -12.895
REMARK INTER:                  -9.070
REMARK INTRA:                  -3.825
REMARK CONF_INDEPENDENT:        2.685
REMARK UNBOUND:                -3.825
REMARK  9 active torsions:
REMARK  status: ('A' for Active; 'I' for Inactive)
REMARK    1  A    between atoms: C_8  and  N_9 
REMARK       I    between atoms: N_9  and  C_10 
REMARK    2  A    between atoms: C_10  and  C_12 
REMARK       I    between atoms: C_12  and  N_14 
REMARK    3  A    between atoms: N_14  and  N_15 
REMARK    4  A    between atoms: C_16  and  C_17 
REMARK    5  A    between atoms: C_20  and  O_21 
REMARK    6  A    between atoms: O_21  and  C_22 
REMARK    7  A    between atoms: C_22  and  C_23 
REMARK       I    between atoms: C_23  and  N_25 
REMARK    8  A    between atoms: N_25  and  C_26 
REMARK    9  A    between atoms: C_27  and  C_26 
ROOT
ATOM      1  C   UNL d   1      27.866 -15.645  -0.480  0.00  0.00    -0.017 A 
ATOM      2  C   UNL d   1      26.696 -16.152  -1.049  0.00  0.00     0.015 A 
ATOM      3  C   UNL d   1      26.538 -16.122  -2.448  0.00  0.00     0.037 A 
ATOM      4  C   UNL d   1      27.518 -15.554  -3.278  0.00  0.00     0.069 A 
ATOM      5  C   UNL d   1      28.683 -15.061  -2.697  0.00  0.00     0.037 A 
ATOM      6  C   UNL d   1      28.852 -15.102  -1.308  0.00  0.00     0.015 A 
ENDROOT
BRANCH   1   7
ATOM      7  C   UNL d   1      28.117 -15.678   0.986  0.00  0.00     0.150 C 
ATOM      8  N   UNL d   1      27.636 -14.731   1.734  0.00  0.00    -0.183 NA
BRANCH   8   9
ATOM      9  N   UNL d   1      27.899 -14.761   3.071  0.00  0.00    -0.239 N 
ATOM     10  C   UNL d   1      27.746 -13.623   3.885  0.00  0.00     0.329 C 
ATOM     11  O   UNL d   1      27.375 -12.498   3.575  0.00  0.00    -0.261 OA
ATOM     12  H   UNL d   1      28.221 -15.620   3.527  0.00  0.00     0.192 HD
BRANCH  10  13
ATOM     13  C   UNL d   1      28.113 -13.942   5.338  0.00  0.00     0.315 C 
ATOM     14  N   UNL d   1      28.350 -12.895   6.246  0.00  0.00    -0.318 N 
ATOM     15  H   UNL d   1      28.236 -11.961   5.851  0.00  0.00     0.169 HD
ATOM     16  O   UNL d   1      28.149 -15.158   5.512  0.00  0.00    -0.262 OA
BRANCH  14  17
ATOM     17  C   UNL d   1      28.738 -12.959   7.645  0.00  0.00     0.041 A 
ATOM     18  C   UNL d   1      28.903 -14.232   8.251  0.00  0.00     0.032 A 
ATOM     19  C   UNL d   1      29.266 -14.377   9.616  0.00  0.00     0.026 A 
ATOM     20  C   UNL d   1      29.462 -13.257  10.409  0.00  0.00     0.034 A 
ATOM     21  C   UNL d   1      29.310 -12.007   9.847  0.00  0.00     0.032 A 
ATOM     22 CL   UNL d   1      29.902 -13.382  12.067  0.00  0.00    -0.084 Cl
ATOM     23  C   UNL d   1      28.970 -11.847   8.485  0.00  0.00    -0.034 A 
ATOM     24  C   UNL d   1      28.902 -10.423   8.054  0.00  0.00     0.050 C 
ENDBRANCH  14  17
ENDBRANCH  10  13
ENDBRANCH   8   9
ENDBRANCH   1   7
BRANCH   4  25
ATOM     25  O   UNL d   1      27.228 -15.530  -4.617  0.00  0.00    -0.342 OA
BRANCH  25  26
ATOM     26  C   UNL d   1      25.859 -15.401  -5.015  0.00  0.00     0.278 C 
BRANCH  26  27
ATOM     27  C   UNL d   1      25.235 -14.120  -4.429  0.00  0.00     0.241 C 
ATOM     28  O   UNL d   1      24.026 -13.964  -4.277  0.00  0.00    -0.271 OA
ATOM     29  N   UNL d   1      26.142 -13.140  -4.060  0.00  0.00    -0.357 N 
ATOM     30  H   UNL d   1      27.102 -13.189  -4.380  0.00  0.00     0.162 HD
BRANCH  29  31
ATOM     31  C   UNL d   1      25.678 -11.836  -3.596  0.00  0.00     0.154 C 
BRANCH  31  32
ATOM     32  C   UNL d   1      26.807 -10.804  -3.399  0.00  0.00     0.139 C 
ATOM     33  C   UNL d   1      26.668 -10.015  -2.106  0.00  0.00     0.035 C 
ATOM     34  C   UNL d   1      27.488 -10.818  -1.132  0.00  0.00     0.029 C 
ATOM     35  C   UNL d   1      28.606 -11.351  -2.001  0.00  0.00     0.168 C 
ATOM     36  O   UNL d   1      28.084 -11.477  -3.333  0.00  0.00    -0.384 OA
ENDBRANCH  31  32
ENDBRANCH  29  31
ENDBRANCH  26  27
ENDBRANCH  25  26
ENDBRANCH   4  25
TORSDOF 9
ENDMDL
MODEL 8
REMARK VINA RESULT:    -6.197      4.686     12.561
REMARK INTER + INTRA:         -12.853
REMARK INTER:                  -8.882
REMARK INTRA:                  -3.971
REMARK CONF_INDEPENDENT:        2.685
REMARK UNBOUND:                -3.971
REMARK  9 active torsions:
REMARK  status: ('A' for Active; 'I' for Inactive)
REMARK    1  A    between atoms: C_8  and  N_9 
REMARK       I    between atoms: N_9  and  C_10 
REMARK    2  A    between atoms: C_10  and  C_12 
REMARK       I    between atoms: C_12  and  N_14 
REMARK    3  A    between atoms: N_14  and  N_15 
REMARK    4  A    between atoms: C_16  and  C_17 
REMARK    5  A    between atoms: C_20  and  O_21 
REMARK    6  A    between atoms: O_21  and  C_22 
REMARK    7  A    between atoms: C_22  and  C_23 
REMARK       I    between atoms: C_23  and  N_25 
REMARK    8  A    between atoms: N_25  and  C_26 
REMARK    9  A    between atoms: C_27  and  C_26 
ROOT
ATOM      1  C   UNL d   1      29.014 -13.412   7.152  0.00  0.00    -0.017 A 
ATOM      2  C   UNL d   1      28.156 -12.544   7.829  0.00  0.00     0.015 A 
ATOM      3  C   UNL d   1      28.331 -12.338   9.211  0.00  0.00     0.037 A 
ATOM      4  C   UNL d   1      29.326 -13.021   9.928  0.00  0.00     0.069 A 
ATOM      5  C   UNL d   1      30.180 -13.877   9.237  0.00  0.00     0.037 A 
ATOM      6  C   UNL d   1      30.021 -14.074   7.860  0.00  0.00     0.015 A 
ENDROOT
BRANCH   1   7
ATOM      7  C   UNL d   1      28.913 -13.649   5.687  0.00  0.00     0.150 C 
ATOM      8  N   UNL d   1      28.159 -14.612   5.250  0.00  0.00    -0.183 NA
BRANCH   8   9
ATOM      9  N   UNL d   1      28.100 -14.834   3.906  0.00  0.00    -0.239 N 
ATOM     10  C   UNL d   1      27.448 -13.943   3.033  0.00  0.00     0.329 C 
ATOM     11  O   UNL d   1      26.872 -12.894   3.292  0.00  0.00    -0.261 OA
ATOM     12  H   UNL d   1      28.530 -15.665   3.489  0.00  0.00     0.192 HD
BRANCH  10  13
ATOM     13  C   UNL d   1      27.534 -14.441   1.587  0.00  0.00     0.315 C 
ATOM     14  N   UNL d   1      26.492 -14.157   0.686  0.00  0.00    -0.318 N 
ATOM     15  H   UNL d   1      25.733 -13.601   1.081  0.00  0.00     0.169 HD
ATOM     16  O   UNL d   1      28.580 -15.061   1.410  0.00  0.00    -0.262 OA
BRANCH  14  17
ATOM     17  C   UNL d   1      26.345 -14.550  -0.705  0.00  0.00     0.041 A 
ATOM     18  C   UNL d   1      26.723 -13.631  -1.719  0.00  0.00     0.032 A 
ATOM     19  C   UNL d   1      26.596 -13.937  -3.100  0.00  0.00     0.026 A 
ATOM     20  C   UNL d   1      26.079 -15.159  -3.500  0.00  0.00     0.034 A 
ATOM     21  C   UNL d   1      25.704 -16.072  -2.537  0.00  0.00     0.032 A 
ATOM     22 CL   UNL d   1      25.904 -15.574  -5.160  0.00  0.00    -0.084 Cl
ATOM     23  C   UNL d   1      25.845 -15.791  -1.159  0.00  0.00    -0.034 A 
ATOM     24  C   UNL d   1      25.434 -16.920  -0.279  0.00  0.00     0.050 C 
ENDBRANCH  14  17
ENDBRANCH  10  13
ENDBRANCH   8   9
ENDBRANCH   1   7
BRANCH   4  25
ATOM     25  O   UNL d   1      29.363 -12.784  11.277  0.00  0.00    -0.342 OA
BRANCH  25  26
ATOM     26  C   UNL d   1      30.640 -12.649  11.910  0.00  0.00     0.278 C 
BRANCH  26  27
ATOM     27  C   UNL d   1      31.203 -11.228  11.710  0.00  0.00     0.241 C 
ATOM     28  O   UNL d   1      32.277 -10.854  12.175  0.00  0.00    -0.271 OA
ATOM     29  N   UNL d   1      30.415 -10.386  10.942  0.00  0.00    -0.357 N 
ATOM     30  H   UNL d   1      29.452 -10.629  10.746  0.00  0.00     0.162 HD
BRANCH  29  31
ATOM     31  C   UNL d   1      30.779  -8.983  10.769  0.00  0.00     0.154 C 
BRANCH  31  32
ATOM     32  C   UNL d   1      30.229  -8.349   9.475  0.00  0.00     0.139 C 
ATOM     33  C   UNL d   1      31.312  -8.084   8.440  0.00  0.00     0.035 C 
ATOM     34  C   UNL d   1      31.296  -9.339   7.609  0.00  0.00     0.029 C 
ATOM     35  C   UNL d   1      29.834  -9.727   7.622  0.00  0.00     0.168 C 
ATOM     36  O   UNL d   1      29.278  -9.242   8.854  0.00  0.00    -0.384 OA
ENDBRANCH  31  32
ENDBRANCH  29  31
ENDBRANCH  26  27
ENDBRANCH  25  26
ENDBRANCH   4  25
TORSDOF 9
ENDMDL
MODEL 9
REMARK VINA RESULT:    -5.811      4.536     12.646
REMARK INTER + INTRA:         -12.512
REMARK INTER:                  -8.496
REMARK INTRA:                  -4.016
REMARK CONF_INDEPENDENT:        2.685
REMARK UNBOUND:                -4.016
REMARK  9 active torsions:
REMARK  status: ('A' for Active; 'I' for Inactive)
REMARK    1  A    between atoms: C_8  and  N_9 
REMARK       I    between atoms: N_9  and  C_10 
REMARK    2  A    between atoms: C_10  and  C_12 
REMARK       I    between atoms: C_12  and  N_14 
REMARK    3  A    between atoms: N_14  and  N_15 
REMARK    4  A    between atoms: C_16  and  C_17 
REMARK    5  A    between atoms: C_20  and  O_21 
REMARK    6  A    between atoms: O_21  and  C_22 
REMARK    7  A    between atoms: C_22  and  C_23 
REMARK       I    between atoms: C_23  and  N_25 
REMARK    8  A    between atoms: N_25  and  C_26 
REMARK    9  A    between atoms: C_27  and  C_26 
ROOT
ATOM      1  C   UNL d   1      28.699 -13.329   7.532  0.00  0.00    -0.017 A 
ATOM      2  C   UNL d   1      28.497 -12.094   8.151  0.00  0.00     0.015 A 
ATOM      3  C   UNL d   1      28.611 -11.996   9.551  0.00  0.00     0.037 A 
ATOM      4  C   UNL d   1      28.885 -13.125  10.339  0.00  0.00     0.069 A 
ATOM      5  C   UNL d   1      29.093 -14.348   9.707  0.00  0.00     0.037 A 
ATOM      6  C   UNL d   1      28.996 -14.449   8.314  0.00  0.00     0.015 A 
ENDROOT
BRANCH   1   7
ATOM      7  C   UNL d   1      28.632 -13.499   6.056  0.00  0.00     0.150 C 
ATOM      8  N   UNL d   1      28.409 -14.680   5.563  0.00  0.00    -0.183 NA
BRANCH   8   9
ATOM      9  N   UNL d   1      28.379 -14.824   4.207  0.00  0.00    -0.239 N 
ATOM     10  C   UNL d   1      27.627 -13.965   3.384  0.00  0.00     0.329 C 
ATOM     11  O   UNL d   1      26.929 -13.010   3.701  0.00  0.00    -0.261 OA
ATOM     12  H   UNL d   1      28.906 -15.571   3.744  0.00  0.00     0.192 HD
BRANCH  10  13
ATOM     13  C   UNL d   1      27.775 -14.360   1.911  0.00  0.00     0.315 C 
ATOM     14  N   UNL d   1      26.721 -14.114   1.012  0.00  0.00    -0.318 N 
ATOM     15  H   UNL d   1      25.910 -13.656   1.428  0.00  0.00     0.169 HD
ATOM     16  O   UNL d   1      28.875 -14.870   1.714  0.00  0.00    -0.262 OA
BRANCH  14  17
ATOM     17  C   UNL d   1      26.627 -14.429  -0.404  0.00  0.00     0.041 A 
ATOM     18  C   UNL d   1      26.760 -13.378  -1.348  0.00  0.00     0.032 A 
ATOM     19  C   UNL d   1      26.665 -13.605  -2.747  0.00  0.00     0.026 A 
ATOM     20  C   UNL d   1      26.424 -14.880  -3.234  0.00  0.00     0.034 A 
ATOM     21  C   UNL d   1      26.292 -15.921  -2.339  0.00  0.00     0.032 A 
ATOM     22 CL   UNL d   1      26.300 -15.202  -4.918  0.00  0.00    -0.084 Cl
ATOM     23  C   UNL d   1      26.405 -15.715  -0.946  0.00  0.00    -0.034 A 
ATOM     24  C   UNL d   1      26.283 -16.968  -0.149  0.00  0.00     0.050 C 
ENDBRANCH  14  17
ENDBRANCH  10  13
ENDBRANCH   8   9
ENDBRANCH   1   7
BRANCH   4  25
ATOM     25  O   UNL d   1      28.914 -12.918  11.693  0.00  0.00    -0.342 OA
BRANCH  25  26
ATOM     26  C   UNL d   1      29.372 -11.652  12.179  0.00  0.00     0.278 C 
BRANCH  26  27
ATOM     27  C   UNL d   1      30.819 -11.380  11.723  0.00  0.00     0.241 C 
ATOM     28  O   UNL d   1      31.342 -10.268  11.754  0.00  0.00    -0.271 OA
ATOM     29  N   UNL d   1      31.516 -12.494  11.284  0.00  0.00    -0.357 N 
ATOM     30  H   UNL d   1      31.021 -13.350  11.065  0.00  0.00     0.162 HD
BRANCH  29  31
ATOM     31  C   UNL d   1      32.856 -12.357  10.722  0.00  0.00     0.154 C 
BRANCH  31  32
ATOM     32  C   UNL d   1      33.217 -13.447   9.692  0.00  0.00     0.139 C 
ATOM     33  C   UNL d   1      34.289 -14.403  10.194  0.00  0.00     0.035 C 
ATOM     34  C   UNL d   1      33.484 -15.516  10.810  0.00  0.00     0.029 C 
ATOM     35  C   UNL d   1      32.263 -15.574   9.918  0.00  0.00     0.168 C 
ATOM     36  O   UNL d   1      32.054 -14.252   9.399  0.00  0.00    -0.384 OA
ENDBRANCH  31  32
ENDBRANCH  29  31
ENDBRANCH  26  27
ENDBRANCH  25  26
ENDBRANCH   4  25
TORSDOF 9
ENDMDL
