MODEL 1
REMARK VINA RESULT:   -10.434      0.000      0.000
REMARK INTER + INTRA:         -13.790
REMARK INTER:                 -12.522
REMARK INTRA:                  -1.267
REMARK CONF_INDEPENDENT:        2.088
REMARK UNBOUND:                -1.267
REMARK  7 active torsions:
REMARK  status: ('A' for Active; 'I' for Inactive)
REMARK    1  A    between atoms: C_2  and  C_3 
REMARK    2  A    between atoms: C_7  and  C_8 
REMARK       I    between atoms: C_8  and  N_9 
REMARK    3  A    between atoms: N_15  and  C_16 
REMARK    4  A    between atoms: C_16  and  C_17 
REMARK       I    between atoms: C_17  and  N_19 
REMARK    5  A    between atoms: N_19  and  C_20 
REMARK    6  A    between atoms: C_24  and  O_25 
REMARK    7  A    between atoms: O_25  and  C_26 
ROOT
ATOM      1  C   UNL d   1      29.189 -14.514  -6.947  0.00  0.00     0.054 C 
ATOM      2  C   UNL d   1      29.065 -14.851  -5.463  0.00  0.00     0.140 C 
ATOM      3  N   UNL d   1      29.577 -13.850  -4.569  0.00  0.00    -0.321 N 
ATOM      4  C   UNL d   1      28.797 -13.812  -3.424  0.00  0.00     0.326 C 
ATOM      5  O   UNL d   1      29.216 -13.461  -2.331  0.00  0.00    -0.247 OA
ATOM      6  N   UNL d   1      27.538 -14.229  -3.760  0.00  0.00    -0.259 N 
ATOM      7  C   UNL d   1      27.621 -14.790  -5.013  0.00  0.00     0.261 C 
ATOM      8  O   UNL d   1      26.772 -15.289  -5.748  0.00  0.00    -0.270 OA
ATOM      9  H   UNL d   1      30.517 -13.480  -4.604  0.00  0.00     0.165 HD
ENDROOT
BRANCH   6  10
ATOM     10  C   UNL d   1      26.345 -13.969  -2.911  0.00  0.00     0.240 C 
BRANCH  10  11
ATOM     11  C   UNL d   1      25.550 -15.213  -2.479  0.00  0.00     0.240 C 
ATOM     12  O   UNL d   1      25.143 -16.026  -3.304  0.00  0.00    -0.271 OA
ATOM     13  N   UNL d   1      25.176 -15.409  -1.161  0.00  0.00    -0.326 N 
ATOM     14  H   UNL d   1      25.121 -14.638  -0.511  0.00  0.00     0.169 HD
BRANCH  13  15
ATOM     15  C   UNL d   1      24.511 -16.634  -0.834  0.00  0.00     0.037 A 
ATOM     16  C   UNL d   1      25.192 -17.756  -0.386  0.00  0.00     0.029 A 
ATOM     17  C   UNL d   1      24.485 -18.949  -0.152  0.00  0.00     0.005 A 
ATOM     18  C   UNL d   1      23.093 -19.013  -0.326  0.00  0.00     0.037 A 
ATOM     19  C   UNL d   1      22.399 -17.883  -0.746  0.00  0.00     0.078 A 
ATOM     20  C   UNL d   1      23.118 -16.711  -0.967  0.00  0.00     0.066 A 
BRANCH  19  21
ATOM     21  O   UNL d   1      21.032 -17.983  -0.908  0.00  0.00    -0.311 OA
BRANCH  21  22
ATOM     22  C   UNL d   1      20.346 -18.952  -0.199  0.00  0.00     0.076 A 
ATOM     23  C   UNL d   1      19.271 -19.574  -0.834  0.00  0.00     0.037 A 
ATOM     24  C   UNL d   1      18.517 -20.529  -0.147  0.00  0.00     0.003 A 
ATOM     25  C   UNL d   1      18.886 -20.924   1.140  0.00  0.00     0.000 A 
ATOM     26  C   UNL d   1      19.964 -20.312   1.774  0.00  0.00     0.003 A 
ATOM     27  C   UNL d   1      20.663 -19.294   1.124  0.00  0.00     0.037 A 
ENDBRANCH  21  22
ENDBRANCH  19  21
ENDBRANCH  13  15
ENDBRANCH  10  11
ENDBRANCH   6  10
BRANCH   2  28
ATOM     28  C   UNL d   1      29.629 -16.253  -5.212  0.00  0.00    -0.020 A 
ATOM     29  C   UNL d   1      29.747 -16.764  -3.916  0.00  0.00     0.010 A 
ATOM     30  C   UNL d   1      30.430 -17.953  -3.691  0.00  0.00     0.002 A 
ATOM     31  C   UNL d   1      30.927 -18.696  -4.761  0.00  0.00     0.017 A 
ATOM     32  C   UNL d   1      30.786 -18.239  -6.073  0.00  0.00     0.032 A 
ATOM     33  C   UNL d   1      30.129 -17.023  -6.291  0.00  0.00     0.027 A 
BRANCH  32  34
ATOM     34  C   UNL d   1      31.372 -18.961  -7.243  0.00  0.00     0.249 C 
ATOM     35  N   UNL d   1      32.570 -18.523  -7.737  0.00  0.00    -0.366 N 
ATOM     36  H   UNL d   1      33.090 -17.738  -7.385  0.00  0.00     0.159 HD
ATOM     37  H   UNL d   1      32.935 -19.002  -8.549  0.00  0.00     0.159 HD
ATOM     38  O   UNL d   1      30.802 -19.905  -7.778  0.00  0.00    -0.268 OA
ENDBRANCH  32  34
ENDBRANCH   2  28
TORSDOF 7
ENDMDL
MODEL 2
REMARK VINA RESULT:   -10.104      1.653      2.234
REMARK INTER + INTRA:         -13.465
REMARK INTER:                 -12.192
REMARK INTRA:                  -1.273
REMARK CONF_INDEPENDENT:        2.088
REMARK UNBOUND:                -1.273
REMARK  7 active torsions:
REMARK  status: ('A' for Active; 'I' for Inactive)
REMARK    1  A    between atoms: C_2  and  C_3 
REMARK    2  A    between atoms: C_7  and  C_8 
REMARK       I    between atoms: C_8  and  N_9 
REMARK    3  A    between atoms: N_15  and  C_16 
REMARK    4  A    between atoms: C_16  and  C_17 
REMARK       I    between atoms: C_17  and  N_19 
REMARK    5  A    between atoms: N_19  and  C_20 
REMARK    6  A    between atoms: C_24  and  O_25 
REMARK    7  A    between atoms: O_25  and  C_26 
ROOT
ATOM      1  C   UNL d   1      29.492 -14.518  -6.825  0.00  0.00     0.054 C 
ATOM      2  C   UNL d   1      29.259 -14.710  -5.328  0.00  0.00     0.140 C 
ATOM      3  N   UNL d   1      29.619 -13.586  -4.509  0.00  0.00    -0.321 N 
ATOM      4  C   UNL d   1      28.739 -13.492  -3.443  0.00  0.00     0.326 C 
ATOM      5  O   UNL d   1      29.033 -12.999  -2.364  0.00  0.00    -0.247 OA
ATOM      6  N   UNL d   1      27.547 -14.038  -3.834  0.00  0.00    -0.259 N 
ATOM      7  C   UNL d   1      27.780 -14.717  -5.007  0.00  0.00     0.261 C 
ATOM      8  O   UNL d   1      27.036 -15.353  -5.750  0.00  0.00    -0.270 OA
ATOM      9  H   UNL d   1      30.530 -13.150  -4.507  0.00  0.00     0.165 HD
ENDROOT
BRANCH   6  10
ATOM     10  C   UNL d   1      26.267 -13.788  -3.118  0.00  0.00     0.240 C 
BRANCH  10  11
ATOM     11  C   UNL d   1      25.545 -15.036  -2.584  0.00  0.00     0.240 C 
ATOM     12  O   UNL d   1      25.050 -15.860  -3.348  0.00  0.00    -0.271 OA
ATOM     13  N   UNL d   1      25.337 -15.226  -1.229  0.00  0.00    -0.326 N 
ATOM     14  H   UNL d   1      25.353 -14.451  -0.582  0.00  0.00     0.169 HD
BRANCH  13  15
ATOM     15  C   UNL d   1      24.731 -16.455  -0.815  0.00  0.00     0.037 A 
ATOM     16  C   UNL d   1      25.423 -17.428  -0.110  0.00  0.00     0.029 A 
ATOM     17  C   UNL d   1      24.788 -18.643   0.202  0.00  0.00     0.005 A 
ATOM     18  C   UNL d   1      23.449 -18.873  -0.154  0.00  0.00     0.037 A 
ATOM     19  C   UNL d   1      22.739 -17.890  -0.834  0.00  0.00     0.078 A 
ATOM     20  C   UNL d   1      23.385 -16.692  -1.129  0.00  0.00     0.066 A 
BRANCH  19  21
ATOM     21  O   UNL d   1      21.425 -18.150  -1.168  0.00  0.00    -0.311 OA
BRANCH  21  22
ATOM     22  C   UNL d   1      20.670 -18.950  -0.330  0.00  0.00     0.076 A 
ATOM     23  C   UNL d   1      19.608 -19.655  -0.896  0.00  0.00     0.037 A 
ATOM     24  C   UNL d   1      18.787 -20.443  -0.085  0.00  0.00     0.003 A 
ATOM     25  C   UNL d   1      19.075 -20.595   1.272  0.00  0.00     0.000 A 
ATOM     26  C   UNL d   1      20.139 -19.900   1.840  0.00  0.00     0.003 A 
ATOM     27  C   UNL d   1      20.906 -19.041   1.050  0.00  0.00     0.037 A 
ENDBRANCH  21  22
ENDBRANCH  19  21
ENDBRANCH  13  15
ENDBRANCH  10  11
ENDBRANCH   6  10
BRANCH   2  28
ATOM     28  C   UNL d   1      29.894 -16.030  -4.882  0.00  0.00    -0.020 A 
ATOM     29  C   UNL d   1      30.188 -17.040  -5.804  0.00  0.00     0.010 A 
ATOM     30  C   UNL d   1      30.587 -18.296  -5.365  0.00  0.00     0.002 A 
ATOM     31  C   UNL d   1      30.787 -18.540  -4.006  0.00  0.00     0.017 A 
ATOM     32  C   UNL d   1      30.548 -17.540  -3.060  0.00  0.00     0.032 A 
ATOM     33  C   UNL d   1      30.112 -16.287  -3.506  0.00  0.00     0.027 A 
BRANCH  32  34
ATOM     34  C   UNL d   1      30.671 -17.779  -1.590  0.00  0.00     0.249 C 
ATOM     35  N   UNL d   1      29.540 -17.694  -0.827  0.00  0.00    -0.366 N 
ATOM     36  H   UNL d   1      28.623 -17.468  -1.171  0.00  0.00     0.159 HD
ATOM     37  H   UNL d   1      29.647 -17.826   0.170  0.00  0.00     0.159 HD
ATOM     38  O   UNL d   1      31.748 -18.021  -1.057  0.00  0.00    -0.268 OA
ENDBRANCH  32  34
ENDBRANCH   2  28
TORSDOF 7
ENDMDL
MODEL 3
REMARK VINA RESULT:    -9.529      3.717      6.163
REMARK INTER + INTRA:         -12.736
REMARK INTER:                 -11.617
REMARK INTRA:                  -1.119
REMARK CONF_INDEPENDENT:        2.088
REMARK UNBOUND:                -1.119
REMARK  7 active torsions:
REMARK  status: ('A' for Active; 'I' for Inactive)
REMARK    1  A    between atoms: C_2  and  C_3 
REMARK    2  A    between atoms: C_7  and  C_8 
REMARK       I    between atoms: C_8  and  N_9 
REMARK    3  A    between atoms: N_15  and  C_16 
REMARK    4  A    between atoms: C_16  and  C_17 
REMARK       I    between atoms: C_17  and  N_19 
REMARK    5  A    between atoms: N_19  and  C_20 
REMARK    6  A    between atoms: C_24  and  O_25 
REMARK    7  A    between atoms: O_25  and  C_26 
ROOT
ATOM      1  C   UNL d   1      27.978 -11.926  -5.767  0.00  0.00     0.054 C 
ATOM      2  C   UNL d   1      26.930 -12.088  -4.668  0.00  0.00     0.140 C 
ATOM      3  N   UNL d   1      26.026 -13.189  -4.849  0.00  0.00    -0.321 N 
ATOM      4  C   UNL d   1      25.703 -13.729  -3.614  0.00  0.00     0.326 C 
ATOM      5  O   UNL d   1      24.651 -14.304  -3.381  0.00  0.00    -0.247 OA
ATOM      6  N   UNL d   1      26.750 -13.490  -2.766  0.00  0.00    -0.259 N 
ATOM      7  C   UNL d   1      27.566 -12.570  -3.381  0.00  0.00     0.261 C 
ATOM      8  O   UNL d   1      28.626 -12.052  -3.038  0.00  0.00    -0.270 OA
ATOM      9  H   UNL d   1      25.462 -13.336  -5.674  0.00  0.00     0.165 HD
ENDROOT
BRANCH   6  10
ATOM     10  C   UNL d   1      26.942 -14.228  -1.488  0.00  0.00     0.240 C 
BRANCH  10  11
ATOM     11  C   UNL d   1      26.130 -15.525  -1.338  0.00  0.00     0.240 C 
ATOM     12  O   UNL d   1      26.648 -16.624  -1.520  0.00  0.00    -0.271 OA
ATOM     13  N   UNL d   1      24.769 -15.501  -1.093  0.00  0.00    -0.326 N 
ATOM     14  H   UNL d   1      24.211 -14.688  -1.313  0.00  0.00     0.169 HD
BRANCH  13  15
ATOM     15  C   UNL d   1      24.108 -16.753  -0.884  0.00  0.00     0.037 A 
ATOM     16  C   UNL d   1      24.800 -17.930  -0.634  0.00  0.00     0.029 A 
ATOM     17  C   UNL d   1      24.092 -19.138  -0.511  0.00  0.00     0.005 A 
ATOM     18  C   UNL d   1      22.691 -19.169  -0.597  0.00  0.00     0.037 A 
ATOM     19  C   UNL d   1      21.988 -17.989  -0.817  0.00  0.00     0.078 A 
ATOM     20  C   UNL d   1      22.708 -16.803  -0.931  0.00  0.00     0.066 A 
BRANCH  19  21
ATOM     21  O   UNL d   1      20.611 -18.057  -0.897  0.00  0.00    -0.311 OA
BRANCH  21  22
ATOM     22  C   UNL d   1      19.951 -19.049  -0.194  0.00  0.00     0.076 A 
ATOM     23  C   UNL d   1      20.403 -19.334   1.094  0.00  0.00     0.037 A 
ATOM     24  C   UNL d   1      19.800 -20.357   1.831  0.00  0.00     0.003 A 
ATOM     25  C   UNL d   1      18.694 -21.036   1.317  0.00  0.00     0.000 A 
ATOM     26  C   UNL d   1      18.234 -20.749   0.034  0.00  0.00     0.003 A 
ATOM     27  C   UNL d   1      18.892 -19.790  -0.738  0.00  0.00     0.037 A 
ENDBRANCH  21  22
ENDBRANCH  19  21
ENDBRANCH  13  15
ENDBRANCH  10  11
ENDBRANCH   6  10
BRANCH   2  28
ATOM     28  C   UNL d   1      26.232 -10.746  -4.433  0.00  0.00    -0.020 A 
ATOM     29  C   UNL d   1      25.544 -10.097  -5.464  0.00  0.00     0.010 A 
ATOM     30  C   UNL d   1      25.079  -8.800  -5.288  0.00  0.00     0.002 A 
ATOM     31  C   UNL d   1      25.211  -8.162  -4.055  0.00  0.00     0.017 A 
ATOM     32  C   UNL d   1      25.851  -8.798  -2.989  0.00  0.00     0.032 A 
ATOM     33  C   UNL d   1      26.350 -10.091  -3.182  0.00  0.00     0.027 A 
BRANCH  32  34
ATOM     34  C   UNL d   1      26.086  -8.124  -1.676  0.00  0.00     0.249 C 
ATOM     35  N   UNL d   1      25.023  -7.972  -0.830  0.00  0.00    -0.366 N 
ATOM     36  H   UNL d   1      24.081  -8.266  -1.023  0.00  0.00     0.159 HD
ATOM     37  H   UNL d   1      25.193  -7.485   0.040  0.00  0.00     0.159 HD
ATOM     38  O   UNL d   1      27.187  -7.690  -1.354  0.00  0.00    -0.268 OA
ENDBRANCH  32  34
ENDBRANCH   2  28
TORSDOF 7
ENDMDL
MODEL 4
REMARK VINA RESULT:    -9.511      3.710      5.999
REMARK INTER + INTRA:         -12.783
REMARK INTER:                 -11.599
REMARK INTRA:                  -1.183
REMARK CONF_INDEPENDENT:        2.088
REMARK UNBOUND:                -1.183
REMARK  7 active torsions:
REMARK  status: ('A' for Active; 'I' for Inactive)
REMARK    1  A    between atoms: C_2  and  C_3 
REMARK    2  A    between atoms: C_7  and  C_8 
REMARK       I    between atoms: C_8  and  N_9 
REMARK    3  A    between atoms: N_15  and  C_16 
REMARK    4  A    between atoms: C_16  and  C_17 
REMARK       I    between atoms: C_17  and  N_19 
REMARK    5  A    between atoms: N_19  and  C_20 
REMARK    6  A    between atoms: C_24  and  O_25 
REMARK    7  A    between atoms: O_25  and  C_26 
ROOT
ATOM      1  C   UNL d   1      28.125 -11.729  -5.722  0.00  0.00     0.054 C 
ATOM      2  C   UNL d   1      27.133 -11.903  -4.574  0.00  0.00     0.140 C 
ATOM      3  N   UNL d   1      26.197 -12.980  -4.739  0.00  0.00    -0.321 N 
ATOM      4  C   UNL d   1      25.927 -13.550  -3.505  0.00  0.00     0.326 C 
ATOM      5  O   UNL d   1      24.876 -14.111  -3.234  0.00  0.00    -0.247 OA
ATOM      6  N   UNL d   1      27.021 -13.357  -2.707  0.00  0.00    -0.259 N 
ATOM      7  C   UNL d   1      27.824 -12.436  -3.337  0.00  0.00     0.261 C 
ATOM      8  O   UNL d   1      28.911 -11.950  -3.036  0.00  0.00    -0.270 OA
ATOM      9  H   UNL d   1      25.588 -13.090  -5.538  0.00  0.00     0.165 HD
ENDROOT
BRANCH   6  10
ATOM     10  C   UNL d   1      27.265 -14.137  -1.463  0.00  0.00     0.240 C 
BRANCH  10  11
ATOM     11  C   UNL d   1      26.443 -15.429  -1.314  0.00  0.00     0.240 C 
ATOM     12  O   UNL d   1      26.949 -16.531  -1.513  0.00  0.00    -0.271 OA
ATOM     13  N   UNL d   1      25.085 -15.395  -1.052  0.00  0.00    -0.326 N 
ATOM     14  H   UNL d   1      24.532 -14.576  -1.257  0.00  0.00     0.169 HD
BRANCH  13  15
ATOM     15  C   UNL d   1      24.416 -16.644  -0.846  0.00  0.00     0.037 A 
ATOM     16  C   UNL d   1      25.099 -17.821  -0.575  0.00  0.00     0.029 A 
ATOM     17  C   UNL d   1      24.385 -19.026  -0.456  0.00  0.00     0.005 A 
ATOM     18  C   UNL d   1      22.986 -19.053  -0.568  0.00  0.00     0.037 A 
ATOM     19  C   UNL d   1      22.291 -17.873  -0.809  0.00  0.00     0.078 A 
ATOM     20  C   UNL d   1      23.017 -16.690  -0.919  0.00  0.00     0.066 A 
BRANCH  19  21
ATOM     21  O   UNL d   1      20.916 -17.937  -0.914  0.00  0.00    -0.311 OA
BRANCH  21  22
ATOM     22  C   UNL d   1      20.244 -18.951  -0.257  0.00  0.00     0.076 A 
ATOM     23  C   UNL d   1      19.137 -19.509  -0.894  0.00  0.00     0.037 A 
ATOM     24  C   UNL d   1      18.396 -20.506  -0.254  0.00  0.00     0.003 A 
ATOM     25  C   UNL d   1      18.809 -21.005   0.982  0.00  0.00     0.000 A 
ATOM     26  C   UNL d   1      19.919 -20.458   1.619  0.00  0.00     0.003 A 
ATOM     27  C   UNL d   1      20.607 -19.399   1.022  0.00  0.00     0.037 A 
ENDBRANCH  21  22
ENDBRANCH  19  21
ENDBRANCH  13  15
ENDBRANCH  10  11
ENDBRANCH   6  10
BRANCH   2  28
ATOM     28  C   UNL d   1      26.476 -10.554  -4.263  0.00  0.00    -0.020 A 
ATOM     29  C   UNL d   1      26.438 -10.052  -2.958  0.00  0.00     0.010 A 
ATOM     30  C   UNL d   1      25.681  -8.926  -2.662  0.00  0.00     0.002 A 
ATOM     31  C   UNL d   1      25.023  -8.230  -3.676  0.00  0.00     0.017 A 
ATOM     32  C   UNL d   1      25.077  -8.677  -4.998  0.00  0.00     0.032 A 
ATOM     33  C   UNL d   1      25.813  -9.832  -5.285  0.00  0.00     0.027 A 
BRANCH  32  34
ATOM     34  C   UNL d   1      24.324  -8.010  -6.103  0.00  0.00     0.249 C 
ATOM     35  N   UNL d   1      22.960  -8.108  -6.104  0.00  0.00    -0.366 N 
ATOM     36  H   UNL d   1      22.414  -8.608  -5.424  0.00  0.00     0.159 HD
ATOM     37  H   UNL d   1      22.468  -7.679  -6.877  0.00  0.00     0.159 HD
ATOM     38  O   UNL d   1      24.891  -7.408  -7.009  0.00  0.00    -0.268 OA
ENDBRANCH  32  34
ENDBRANCH   2  28
TORSDOF 7
ENDMDL
MODEL 5
REMARK VINA RESULT:    -9.083      2.722      5.027
REMARK INTER + INTRA:         -12.959
REMARK INTER:                 -11.171
REMARK INTRA:                  -1.788
REMARK CONF_INDEPENDENT:        2.088
REMARK UNBOUND:                -1.788
REMARK  7 active torsions:
REMARK  status: ('A' for Active; 'I' for Inactive)
REMARK    1  A    between atoms: C_2  and  C_3 
REMARK    2  A    between atoms: C_7  and  C_8 
REMARK       I    between atoms: C_8  and  N_9 
REMARK    3  A    between atoms: N_15  and  C_16 
REMARK    4  A    between atoms: C_16  and  C_17 
REMARK       I    between atoms: C_17  and  N_19 
REMARK    5  A    between atoms: N_19  and  C_20 
REMARK    6  A    between atoms: C_24  and  O_25 
REMARK    7  A    between atoms: O_25  and  C_26 
ROOT
ATOM      1  C   UNL d   1      29.444 -14.539  -5.373  0.00  0.00     0.054 C 
ATOM      2  C   UNL d   1      28.122 -13.936  -4.904  0.00  0.00     0.140 C 
ATOM      3  N   UNL d   1      26.982 -14.801  -5.030  0.00  0.00    -0.321 N 
ATOM      4  C   UNL d   1      26.111 -14.573  -3.976  0.00  0.00     0.326 C 
ATOM      5  O   UNL d   1      24.905 -14.757  -4.042  0.00  0.00    -0.247 OA
ATOM      6  N   UNL d   1      26.847 -14.122  -2.915  0.00  0.00    -0.259 N 
ATOM      7  C   UNL d   1      28.094 -13.799  -3.397  0.00  0.00     0.261 C 
ATOM      8  O   UNL d   1      29.104 -13.372  -2.843  0.00  0.00    -0.270 OA
ATOM      9  H   UNL d   1      26.695 -15.245  -5.890  0.00  0.00     0.165 HD
ENDROOT
BRANCH   6  10
ATOM     10  C   UNL d   1      26.341 -14.130  -1.515  0.00  0.00     0.240 C 
BRANCH  10  11
ATOM     11  C   UNL d   1      25.623 -15.415  -1.073  0.00  0.00     0.240 C 
ATOM     12  O   UNL d   1      26.020 -16.066  -0.110  0.00  0.00    -0.271 OA
ATOM     13  N   UNL d   1      24.569 -15.941  -1.799  0.00  0.00    -0.326 N 
ATOM     14  H   UNL d   1      24.436 -15.709  -2.772  0.00  0.00     0.169 HD
BRANCH  13  15
ATOM     15  C   UNL d   1      23.905 -17.094  -1.269  0.00  0.00     0.037 A 
ATOM     16  C   UNL d   1      24.591 -18.230  -0.866  0.00  0.00     0.029 A 
ATOM     17  C   UNL d   1      23.872 -19.354  -0.424  0.00  0.00     0.005 A 
ATOM     18  C   UNL d   1      22.470 -19.332  -0.344  0.00  0.00     0.037 A 
ATOM     19  C   UNL d   1      21.777 -18.186  -0.717  0.00  0.00     0.078 A 
ATOM     20  C   UNL d   1      22.509 -17.082  -1.148  0.00  0.00     0.066 A 
BRANCH  19  21
ATOM     21  O   UNL d   1      20.400 -18.200  -0.627  0.00  0.00    -0.311 OA
BRANCH  21  22
ATOM     22  C   UNL d   1      19.789 -19.223   0.076  0.00  0.00     0.076 A 
ATOM     23  C   UNL d   1      20.121 -19.366   1.423  0.00  0.00     0.037 A 
ATOM     24  C   UNL d   1      19.566 -20.410   2.167  0.00  0.00     0.003 A 
ATOM     25  C   UNL d   1      18.617 -21.257   1.593  0.00  0.00     0.000 A 
ATOM     26  C   UNL d   1      18.275 -21.112   0.251  0.00  0.00     0.003 A 
ATOM     27  C   UNL d   1      18.896 -20.127  -0.519  0.00  0.00     0.037 A 
ENDBRANCH  21  22
ENDBRANCH  19  21
ENDBRANCH  13  15
ENDBRANCH  10  11
ENDBRANCH   6  10
BRANCH   2  28
ATOM     28  C   UNL d   1      27.932 -12.562  -5.554  0.00  0.00    -0.020 A 
ATOM     29  C   UNL d   1      28.923 -12.005  -6.369  0.00  0.00     0.010 A 
ATOM     30  C   UNL d   1      28.819 -10.687  -6.797  0.00  0.00     0.002 A 
ATOM     31  C   UNL d   1      27.686  -9.933  -6.496  0.00  0.00     0.017 A 
ATOM     32  C   UNL d   1      26.655 -10.473  -5.723  0.00  0.00     0.032 A 
ATOM     33  C   UNL d   1      26.781 -11.790  -5.264  0.00  0.00     0.027 A 
BRANCH  32  34
ATOM     34  C   UNL d   1      25.460  -9.678  -5.308  0.00  0.00     0.249 C 
ATOM     35  N   UNL d   1      25.284  -9.427  -3.975  0.00  0.00    -0.366 N 
ATOM     36  H   UNL d   1      25.890  -9.747  -3.240  0.00  0.00     0.159 HD
ATOM     37  H   UNL d   1      24.453  -8.916  -3.710  0.00  0.00     0.159 HD
ATOM     38  O   UNL d   1      24.634  -9.272  -6.118  0.00  0.00    -0.268 OA
ENDBRANCH  32  34
ENDBRANCH   2  28
TORSDOF 7
ENDMDL
MODEL 6
REMARK VINA RESULT:    -9.011      4.099      6.162
REMARK INTER + INTRA:         -12.951
REMARK INTER:                 -11.099
REMARK INTRA:                  -1.852
REMARK CONF_INDEPENDENT:        2.088
REMARK UNBOUND:                -1.852
REMARK  7 active torsions:
REMARK  status: ('A' for Active; 'I' for Inactive)
REMARK    1  A    between atoms: C_2  and  C_3 
REMARK    2  A    between atoms: C_7  and  C_8 
REMARK       I    between atoms: C_8  and  N_9 
REMARK    3  A    between atoms: N_15  and  C_16 
REMARK    4  A    between atoms: C_16  and  C_17 
REMARK       I    between atoms: C_17  and  N_19 
REMARK    5  A    between atoms: N_19  and  C_20 
REMARK    6  A    between atoms: C_24  and  O_25 
REMARK    7  A    between atoms: O_25  and  C_26 
ROOT
ATOM      1  C   UNL d   1      30.349 -13.530  -0.165  0.00  0.00     0.054 C 
ATOM      2  C   UNL d   1      29.000 -12.832  -0.319  0.00  0.00     0.140 C 
ATOM      3  N   UNL d   1      28.976 -11.764  -1.280  0.00  0.00    -0.321 N 
ATOM      4  C   UNL d   1      27.741 -11.736  -1.907  0.00  0.00     0.326 C 
ATOM      5  O   UNL d   1      27.243 -10.723  -2.376  0.00  0.00    -0.247 OA
ATOM      6  N   UNL d   1      27.232 -13.006  -1.888  0.00  0.00    -0.259 N 
ATOM      7  C   UNL d   1      28.000 -13.734  -1.009  0.00  0.00     0.261 C 
ATOM      8  O   UNL d   1      27.956 -14.912  -0.661  0.00  0.00    -0.270 OA
ATOM      9  H   UNL d   1      29.602 -10.971  -1.268  0.00  0.00     0.165 HD
ENDROOT
BRANCH   6  10
ATOM     10  C   UNL d   1      26.125 -13.449  -2.778  0.00  0.00     0.240 C 
BRANCH  10  11
ATOM     11  C   UNL d   1      25.422 -14.754  -2.368  0.00  0.00     0.240 C 
ATOM     12  O   UNL d   1      24.676 -15.345  -3.145  0.00  0.00    -0.271 OA
ATOM     13  N   UNL d   1      25.519 -15.255  -1.082  0.00  0.00    -0.326 N 
ATOM     14  H   UNL d   1      25.769 -14.660  -0.305  0.00  0.00     0.169 HD
BRANCH  13  15
ATOM     15  C   UNL d   1      24.901 -16.517  -0.811  0.00  0.00     0.037 A 
ATOM     16  C   UNL d   1      25.608 -17.605  -0.320  0.00  0.00     0.029 A 
ATOM     17  C   UNL d   1      24.954 -18.837  -0.145  0.00  0.00     0.005 A 
ATOM     18  C   UNL d   1      23.584 -18.975  -0.421  0.00  0.00     0.037 A 
ATOM     19  C   UNL d   1      22.861 -17.881  -0.884  0.00  0.00     0.078 A 
ATOM     20  C   UNL d   1      23.527 -16.669  -1.046  0.00  0.00     0.066 A 
BRANCH  19  21
ATOM     21  O   UNL d   1      21.516 -18.053  -1.146  0.00  0.00    -0.311 OA
BRANCH  21  22
ATOM     22  C   UNL d   1      20.778 -18.883  -0.321  0.00  0.00     0.076 A 
ATOM     23  C   UNL d   1      19.756 -19.630  -0.907  0.00  0.00     0.037 A 
ATOM     24  C   UNL d   1      18.952 -20.449  -0.111  0.00  0.00     0.003 A 
ATOM     25  C   UNL d   1      19.220 -20.589   1.251  0.00  0.00     0.000 A 
ATOM     26  C   UNL d   1      20.245 -19.853   1.839  0.00  0.00     0.003 A 
ATOM     27  C   UNL d   1      20.991 -18.965   1.063  0.00  0.00     0.037 A 
ENDBRANCH  21  22
ENDBRANCH  19  21
ENDBRANCH  13  15
ENDBRANCH  10  11
ENDBRANCH   6  10
BRANCH   2  28
ATOM     28  C   UNL d   1      28.474 -12.434   1.063  0.00  0.00    -0.020 A 
ATOM     29  C   UNL d   1      28.127 -11.110   1.352  0.00  0.00     0.010 A 
ATOM     30  C   UNL d   1      27.833 -10.730   2.655  0.00  0.00     0.002 A 
ATOM     31  C   UNL d   1      27.790 -11.680   3.675  0.00  0.00     0.017 A 
ATOM     32  C   UNL d   1      28.085 -13.020   3.415  0.00  0.00     0.032 A 
ATOM     33  C   UNL d   1      28.417 -13.390   2.106  0.00  0.00     0.027 A 
BRANCH  32  34
ATOM     34  C   UNL d   1      28.131 -14.057   4.489  0.00  0.00     0.249 C 
ATOM     35  N   UNL d   1      28.843 -15.200   4.252  0.00  0.00    -0.366 N 
ATOM     36  H   UNL d   1      29.334 -15.412   3.401  0.00  0.00     0.159 HD
ATOM     37  H   UNL d   1      28.835 -15.905   4.977  0.00  0.00     0.159 HD
ATOM     38  O   UNL d   1      27.534 -13.921   5.552  0.00  0.00    -0.268 OA
ENDBRANCH  32  34
ENDBRANCH   2  28
TORSDOF 7
ENDMDL
MODEL 7
REMARK VINA RESULT:    -8.918      8.070     10.851
REMARK INTER + INTRA:         -13.199
REMARK INTER:                 -11.006
REMARK INTRA:                  -2.193
REMARK CONF_INDEPENDENT:        2.088
REMARK UNBOUND:                -2.193
REMARK  7 active torsions:
REMARK  status: ('A' for Active; 'I' for Inactive)
REMARK    1  A    between atoms: C_2  and  C_3 
REMARK    2  A    between atoms: C_7  and  C_8 
REMARK       I    between atoms: C_8  and  N_9 
REMARK    3  A    between atoms: N_15  and  C_16 
REMARK    4  A    between atoms: C_16  and  C_17 
REMARK       I    between atoms: C_17  and  N_19 
REMARK    5  A    between atoms: N_19  and  C_20 
REMARK    6  A    between atoms: C_24  and  O_25 
REMARK    7  A    between atoms: O_25  and  C_26 
ROOT
ATOM      1  C   UNL d   1      29.332 -10.713   7.545  0.00  0.00     0.054 C 
ATOM      2  C   UNL d   1      28.997 -12.177   7.266  0.00  0.00     0.140 C 
ATOM      3  N   UNL d   1      27.839 -12.388   6.443  0.00  0.00    -0.321 N 
ATOM      4  C   UNL d   1      28.041 -13.499   5.640  0.00  0.00     0.326 C 
ATOM      5  O   UNL d   1      27.135 -14.204   5.220  0.00  0.00    -0.247 OA
ATOM      6  N   UNL d   1      29.387 -13.629   5.434  0.00  0.00    -0.259 N 
ATOM      7  C   UNL d   1      30.014 -12.795   6.330  0.00  0.00     0.261 C 
ATOM      8  O   UNL d   1      31.201 -12.546   6.530  0.00  0.00    -0.270 OA
ATOM      9  H   UNL d   1      26.921 -12.017   6.643  0.00  0.00     0.165 HD
ENDROOT
BRANCH   6  10
ATOM     10  C   UNL d   1      29.964 -14.454   4.339  0.00  0.00     0.240 C 
BRANCH  10  11
ATOM     11  C   UNL d   1      29.317 -14.274   2.956  0.00  0.00     0.240 C 
ATOM     12  O   UNL d   1      29.930 -13.748   2.030  0.00  0.00    -0.271 OA
ATOM     13  N   UNL d   1      27.992 -14.602   2.729  0.00  0.00    -0.326 N 
ATOM     14  H   UNL d   1      27.330 -14.663   3.489  0.00  0.00     0.169 HD
BRANCH  13  15
ATOM     15  C   UNL d   1      27.496 -14.480   1.392  0.00  0.00     0.037 A 
ATOM     16  C   UNL d   1      27.420 -13.262   0.732  0.00  0.00     0.029 A 
ATOM     17  C   UNL d   1      26.854 -13.204  -0.554  0.00  0.00     0.005 A 
ATOM     18  C   UNL d   1      26.400 -14.365  -1.199  0.00  0.00     0.037 A 
ATOM     19  C   UNL d   1      26.501 -15.594  -0.556  0.00  0.00     0.078 A 
ATOM     20  C   UNL d   1      27.069 -15.631   0.715  0.00  0.00     0.066 A 
BRANCH  19  21
ATOM     21  O   UNL d   1      26.043 -16.715  -1.220  0.00  0.00    -0.311 OA
BRANCH  21  22
ATOM     22  C   UNL d   1      24.800 -17.224  -0.890  0.00  0.00     0.076 A 
ATOM     23  C   UNL d   1      23.720 -16.341  -0.901  0.00  0.00     0.037 A 
ATOM     24  C   UNL d   1      22.450 -16.793  -0.533  0.00  0.00     0.003 A 
ATOM     25  C   UNL d   1      22.242 -18.141  -0.236  0.00  0.00     0.000 A 
ATOM     26  C   UNL d   1      23.315 -19.028  -0.232  0.00  0.00     0.003 A 
ATOM     27  C   UNL d   1      24.600 -18.560  -0.512  0.00  0.00     0.037 A 
ENDBRANCH  21  22
ENDBRANCH  19  21
ENDBRANCH  13  15
ENDBRANCH  10  11
ENDBRANCH   6  10
BRANCH   2  28
ATOM     28  C   UNL d   1      28.968 -12.951   8.587  0.00  0.00    -0.020 A 
ATOM     29  C   UNL d   1      28.124 -12.565   9.634  0.00  0.00     0.010 A 
ATOM     30  C   UNL d   1      28.243 -13.157  10.885  0.00  0.00     0.002 A 
ATOM     31  C   UNL d   1      29.141 -14.204  11.089  0.00  0.00     0.017 A 
ATOM     32  C   UNL d   1      29.967 -14.647  10.054  0.00  0.00     0.032 A 
ATOM     33  C   UNL d   1      29.868 -14.023   8.805  0.00  0.00     0.027 A 
BRANCH  32  34
ATOM     34  C   UNL d   1      31.000 -15.710  10.248  0.00  0.00     0.249 C 
ATOM     35  N   UNL d   1      32.186 -15.585   9.580  0.00  0.00    -0.366 N 
ATOM     36  H   UNL d   1      32.422 -14.838   8.950  0.00  0.00     0.159 HD
ATOM     37  H   UNL d   1      32.860 -16.331   9.696  0.00  0.00     0.159 HD
ATOM     38  O   UNL d   1      30.802 -16.688  10.960  0.00  0.00    -0.268 OA
ENDBRANCH  32  34
ENDBRANCH   2  28
TORSDOF 7
ENDMDL
MODEL 8
REMARK VINA RESULT:    -8.849      6.965      9.786
REMARK INTER + INTRA:         -12.867
REMARK INTER:                 -10.937
REMARK INTRA:                  -1.930
REMARK CONF_INDEPENDENT:        2.088
REMARK UNBOUND:                -1.930
REMARK  7 active torsions:
REMARK  status: ('A' for Active; 'I' for Inactive)
REMARK    1  A    between atoms: C_2  and  C_3 
REMARK    2  A    between atoms: C_7  and  C_8 
REMARK       I    between atoms: C_8  and  N_9 
REMARK    3  A    between atoms: N_15  and  C_16 
REMARK    4  A    between atoms: C_16  and  C_17 
REMARK       I    between atoms: C_17  and  N_19 
REMARK    5  A    between atoms: N_19  and  C_20 
REMARK    6  A    between atoms: C_24  and  O_25 
REMARK    7  A    between atoms: O_25  and  C_26 
ROOT
ATOM      1  C   UNL d   1      29.437 -15.213   5.281  0.00  0.00     0.054 C 
ATOM      2  C   UNL d   1      29.364 -13.697   5.104  0.00  0.00     0.140 C 
ATOM      3  N   UNL d   1      30.515 -13.102   4.486  0.00  0.00    -0.321 N 
ATOM      4  C   UNL d   1      30.115 -12.036   3.695  0.00  0.00     0.326 C 
ATOM      5  O   UNL d   1      30.824 -11.072   3.449  0.00  0.00    -0.247 OA
ATOM      6  N   UNL d   1      28.835 -12.281   3.280  0.00  0.00    -0.259 N 
ATOM      7  C   UNL d   1      28.357 -13.325   4.037  0.00  0.00     0.261 C 
ATOM      8  O   UNL d   1      27.281 -13.917   4.034  0.00  0.00    -0.270 OA
ATOM      9  H   UNL d   1      31.462 -13.211   4.819  0.00  0.00     0.165 HD
ENDROOT
BRANCH   6  10
ATOM     10  C   UNL d   1      28.206 -11.573   2.132  0.00  0.00     0.240 C 
BRANCH  10  11
ATOM     11  C   UNL d   1      27.662 -12.472   1.010  0.00  0.00     0.240 C 
ATOM     12  O   UNL d   1      27.057 -11.998   0.051  0.00  0.00    -0.271 OA
ATOM     13  N   UNL d   1      27.743 -13.851   1.086  0.00  0.00    -0.326 N 
ATOM     14  H   UNL d   1      27.857 -14.322   1.972  0.00  0.00     0.169 HD
BRANCH  13  15
ATOM     15  C   UNL d   1      27.286 -14.608  -0.041  0.00  0.00     0.037 A 
ATOM     16  C   UNL d   1      27.393 -14.144  -1.344  0.00  0.00     0.029 A 
ATOM     17  C   UNL d   1      26.858 -14.906  -2.397  0.00  0.00     0.005 A 
ATOM     18  C   UNL d   1      26.252 -16.150  -2.157  0.00  0.00     0.037 A 
ATOM     19  C   UNL d   1      26.169 -16.636  -0.857  0.00  0.00     0.078 A 
ATOM     20  C   UNL d   1      26.709 -15.868   0.171  0.00  0.00     0.066 A 
BRANCH  19  21
ATOM     21  O   UNL d   1      25.566 -17.862  -0.658  0.00  0.00    -0.311 OA
BRANCH  21  22
ATOM     22  C   UNL d   1      24.185 -17.936  -0.677  0.00  0.00     0.076 A 
ATOM     23  C   UNL d   1      23.604 -19.186  -0.469  0.00  0.00     0.037 A 
ATOM     24  C   UNL d   1      22.215 -19.324  -0.523  0.00  0.00     0.003 A 
ATOM     25  C   UNL d   1      21.403 -18.203  -0.697  0.00  0.00     0.000 A 
ATOM     26  C   UNL d   1      21.978 -16.950  -0.895  0.00  0.00     0.003 A 
ATOM     27  C   UNL d   1      23.368 -16.825  -0.933  0.00  0.00     0.037 A 
ENDBRANCH  21  22
ENDBRANCH  19  21
ENDBRANCH  13  15
ENDBRANCH  10  11
ENDBRANCH   6  10
BRANCH   2  28
ATOM     28  C   UNL d   1      28.972 -13.051   6.437  0.00  0.00    -0.020 A 
ATOM     29  C   UNL d   1      28.697 -11.682   6.523  0.00  0.00     0.010 A 
ATOM     30  C   UNL d   1      28.528 -11.078   7.763  0.00  0.00     0.002 A 
ATOM     31  C   UNL d   1      28.540 -11.842   8.929  0.00  0.00     0.017 A 
ATOM     32  C   UNL d   1      28.767 -13.219   8.877  0.00  0.00     0.032 A 
ATOM     33  C   UNL d   1      28.972 -13.817   7.628  0.00  0.00     0.027 A 
BRANCH  32  34
ATOM     34  C   UNL d   1      28.868 -14.065  10.105  0.00  0.00     0.249 C 
ATOM     35  N   UNL d   1      29.392 -15.322   9.980  0.00  0.00    -0.366 N 
ATOM     36  H   UNL d   1      29.706 -15.737   9.120  0.00  0.00     0.159 HD
ATOM     37  H   UNL d   1      29.423 -15.892  10.815  0.00  0.00     0.159 HD
ATOM     38  O   UNL d   1      28.477 -13.674  11.199  0.00  0.00    -0.268 OA
ENDBRANCH  32  34
ENDBRANCH   2  28
TORSDOF 7
ENDMDL
MODEL 9
REMARK VINA RESULT:    -8.317      6.546      9.255
REMARK INTER + INTRA:         -13.150
REMARK INTER:                 -10.405
REMARK INTRA:                  -2.745
REMARK CONF_INDEPENDENT:        2.088
REMARK UNBOUND:                -2.745
REMARK  7 active torsions:
REMARK  status: ('A' for Active; 'I' for Inactive)
REMARK    1  A    between atoms: C_2  and  C_3 
REMARK    2  A    between atoms: C_7  and  C_8 
REMARK       I    between atoms: C_8  and  N_9 
REMARK    3  A    between atoms: N_15  and  C_16 
REMARK    4  A    between atoms: C_16  and  C_17 
REMARK       I    between atoms: C_17  and  N_19 
REMARK    5  A    between atoms: N_19  and  C_20 
REMARK    6  A    between atoms: C_24  and  O_25 
REMARK    7  A    between atoms: O_25  and  C_26 
ROOT
ATOM      1  C   UNL d   1      29.902  -9.016   5.226  0.00  0.00     0.054 C 
ATOM      2  C   UNL d   1      28.687  -9.843   4.810  0.00  0.00     0.140 C 
ATOM      3  N   UNL d   1      27.464  -9.102   4.684  0.00  0.00    -0.321 N 
ATOM      4  C   UNL d   1      26.709  -9.629   3.648  0.00  0.00     0.326 C 
ATOM      5  O   UNL d   1      25.490  -9.570   3.600  0.00  0.00    -0.247 OA
ATOM      6  N   UNL d   1      27.571 -10.198   2.750  0.00  0.00    -0.259 N 
ATOM      7  C   UNL d   1      28.799 -10.278   3.365  0.00  0.00     0.261 C 
ATOM      8  O   UNL d   1      29.888 -10.693   2.975  0.00  0.00    -0.270 OA
ATOM      9  H   UNL d   1      27.065  -8.530   5.415  0.00  0.00     0.165 HD
ENDROOT
BRANCH   6  10
ATOM     10  C   UNL d   1      27.185 -10.524   1.351  0.00  0.00     0.240 C 
BRANCH  10  11
ATOM     11  C   UNL d   1      27.419 -11.979   0.915  0.00  0.00     0.240 C 
ATOM     12  O   UNL d   1      26.650 -12.544   0.142  0.00  0.00    -0.271 OA
ATOM     13  N   UNL d   1      28.442 -12.739   1.454  0.00  0.00    -0.326 N 
ATOM     14  H   UNL d   1      28.858 -12.503   2.344  0.00  0.00     0.169 HD
BRANCH  13  15
ATOM     15  C   UNL d   1      28.639 -14.057   0.931  0.00  0.00     0.037 A 
ATOM     16  C   UNL d   1      29.719 -14.387   0.126  0.00  0.00     0.029 A 
ATOM     17  C   UNL d   1      29.813 -15.682  -0.414  0.00  0.00     0.005 A 
ATOM     18  C   UNL d   1      28.851 -16.661  -0.118  0.00  0.00     0.037 A 
ATOM     19  C   UNL d   1      27.782 -16.347   0.713  0.00  0.00     0.078 A 
ATOM     20  C   UNL d   1      27.711 -15.061   1.241  0.00  0.00     0.066 A 
BRANCH  19  21
ATOM     21  O   UNL d   1      26.854 -17.335   0.981  0.00  0.00    -0.311 OA
BRANCH  21  22
ATOM     22  C   UNL d   1      25.767 -17.474   0.138  0.00  0.00     0.076 A 
ATOM     23  C   UNL d   1      24.680 -18.211   0.605  0.00  0.00     0.037 A 
ATOM     24  C   UNL d   1      23.575 -18.420  -0.223  0.00  0.00     0.003 A 
ATOM     25  C   UNL d   1      23.517 -17.822  -1.483  0.00  0.00     0.000 A 
ATOM     26  C   UNL d   1      24.597 -17.077  -1.951  0.00  0.00     0.003 A 
ATOM     27  C   UNL d   1      25.739 -16.943  -1.160  0.00  0.00     0.037 A 
ENDBRANCH  21  22
ENDBRANCH  19  21
ENDBRANCH  13  15
ENDBRANCH  10  11
ENDBRANCH   6  10
BRANCH   2  28
ATOM     28  C   UNL d   1      28.577 -11.073   5.717  0.00  0.00    -0.020 A 
ATOM     29  C   UNL d   1      28.542 -10.945   7.109  0.00  0.00     0.010 A 
ATOM     30  C   UNL d   1      28.631 -12.070   7.919  0.00  0.00     0.002 A 
ATOM     31  C   UNL d   1      28.664 -13.345   7.356  0.00  0.00     0.017 A 
ATOM     32  C   UNL d   1      28.654 -13.513   5.969  0.00  0.00     0.032 A 
ATOM     33  C   UNL d   1      28.600 -12.374   5.158  0.00  0.00     0.027 A 
BRANCH  32  34
ATOM     34  C   UNL d   1      28.769 -14.854   5.321  0.00  0.00     0.249 C 
ATOM     35  N   UNL d   1      30.010 -15.280   4.937  0.00  0.00    -0.366 N 
ATOM     36  H   UNL d   1      30.862 -14.755   5.041  0.00  0.00     0.159 HD
ATOM     37  H   UNL d   1      30.066 -16.175   4.469  0.00  0.00     0.159 HD
ATOM     38  O   UNL d   1      27.790 -15.561   5.107  0.00  0.00    -0.268 OA
ENDBRANCH  32  34
ENDBRANCH   2  28
TORSDOF 7
ENDMDL
