MODEL 1
REMARK VINA RESULT:    -7.195      0.000      0.000
REMARK INTER + INTRA:          -9.565
REMARK INTER:                  -8.388
REMARK INTRA:                  -1.177
REMARK CONF_INDEPENDENT:        1.193
REMARK UNBOUND:                -1.177
REMARK  4 active torsions:
REMARK  status: ('A' for Active; 'I' for Inactive)
REMARK    1  A    between atoms: O_2  and  C_3 
REMARK    2  A    between atoms: C_9  and  C_10 
REMARK       I    between atoms: C_10  and  N_11 
REMARK    3  A    between atoms: C_13  and  N_14 
REMARK    4  A    between atoms: N_15  and  C_16 
ROOT
ATOM      1  C   UNL d   1      30.105 -15.724  -6.420  0.00  0.00     0.102 C 
ATOM      2  C   UNL d   1      30.994 -15.013  -7.229  0.00  0.00     0.040 C 
ATOM      3  C   UNL d   1      30.692 -13.716  -7.650  0.00  0.00     0.004 C 
ATOM      4  C   UNL d   1      29.443 -13.175  -7.385  0.00  0.00     0.014 C 
ATOM      5  C   UNL d   1      28.598 -13.825  -6.493  0.00  0.00     0.002 A 
ATOM      6  C   UNL d   1      27.409 -13.147  -6.023  0.00  0.00     0.035 A 
ATOM      7  C   UNL d   1      26.663 -13.697  -5.060  0.00  0.00     0.085 A 
ATOM      8  C   UNL d   1      27.048 -15.023  -4.533  0.00  0.00     0.178 A 
ATOM      9  O   UNL d   1      28.136 -15.707  -5.019  0.00  0.00    -0.288 OA
ATOM     10  C   UNL d   1      28.939 -15.083  -5.999  0.00  0.00     0.121 A 
ENDROOT
BRANCH   8  11
ATOM     11  N   UNL d   1      26.397 -15.618  -3.595  0.00  0.00    -0.279 N 
ATOM     12  N   UNL d   1      26.904 -16.237  -2.602  0.00  0.00    -0.299 N 
ATOM     13  H   UNL d   1      27.913 -16.245  -2.409  0.00  0.00     0.186 HD
ATOM     14  H   UNL d   1      25.366 -15.526  -3.672  0.00  0.00     0.189 HD
BRANCH  12  15
ATOM     15  C   UNL d   1      26.111 -16.827  -1.612  0.00  0.00     0.072 A 
ATOM     16  C   UNL d   1      24.784 -16.993  -1.686  0.00  0.00     0.169 A 
ATOM     17  N   UNL d   1      24.032 -17.632  -0.745  0.00  0.00    -0.157 NA
ATOM     18  N   UNL d   1      24.504 -18.150   0.292  0.00  0.00    -0.110 NA
ATOM     19  C   UNL d   1      25.841 -18.050   0.604  0.00  0.00     0.286 A 
ATOM     20  O   UNL d   1      26.320 -18.574   1.618  0.00  0.00    -0.268 OA
ATOM     21  C   UNL d   1      26.762 -17.293  -0.333  0.00  0.00     0.230 A 
ATOM     22 CL   UNL d   1      27.395 -15.851   0.518  0.00  0.00    -0.108 Cl
ENDBRANCH  12  15
ENDBRANCH   8  11
BRANCH   7  23
ATOM     23  C   UNL d   1      25.472 -13.003  -4.500  0.00  0.00     0.253 C 
ATOM     24  N   UNL d   1      25.529 -11.675  -4.257  0.00  0.00    -0.366 N 
ATOM     25  H   UNL d   1      26.326 -11.076  -4.422  0.00  0.00     0.159 HD
ATOM     26  H   UNL d   1      24.707 -11.208  -3.892  0.00  0.00     0.159 HD
ATOM     27  O   UNL d   1      24.467 -13.679  -4.269  0.00  0.00    -0.268 OA
ENDBRANCH   7  23
BRANCH   1  28
ATOM     28  O   UNL d   1      30.270 -17.028  -6.050  0.00  0.00    -0.353 OA
ATOM     29  C   UNL d   1      30.780 -17.885  -7.067  0.00  0.00     0.210 C 
ENDBRANCH   1  28
TORSDOF 4
ENDMDL
MODEL 2
REMARK VINA RESULT:    -6.785      2.842      6.968
REMARK INTER + INTRA:          -9.493
REMARK INTER:                  -7.978
REMARK INTRA:                  -1.515
REMARK CONF_INDEPENDENT:        1.193
REMARK UNBOUND:                -1.515
REMARK  4 active torsions:
REMARK  status: ('A' for Active; 'I' for Inactive)
REMARK    1  A    between atoms: O_2  and  C_3 
REMARK    2  A    between atoms: C_9  and  C_10 
REMARK       I    between atoms: C_10  and  N_11 
REMARK    3  A    between atoms: C_13  and  N_14 
REMARK    4  A    between atoms: N_15  and  C_16 
ROOT
ATOM      1  C   UNL d   1      24.978 -18.195  -0.376  0.00  0.00     0.102 C 
ATOM      2  C   UNL d   1      23.687 -18.511   0.055  0.00  0.00     0.040 C 
ATOM      3  C   UNL d   1      22.608 -17.685  -0.266  0.00  0.00     0.004 C 
ATOM      4  C   UNL d   1      22.830 -16.469  -0.895  0.00  0.00     0.014 C 
ATOM      5  C   UNL d   1      24.087 -16.198  -1.422  0.00  0.00     0.002 A 
ATOM      6  C   UNL d   1      24.258 -15.052  -2.290  0.00  0.00     0.035 A 
ATOM      7  C   UNL d   1      25.421 -14.858  -2.919  0.00  0.00     0.085 A 
ATOM      8  C   UNL d   1      26.532 -15.800  -2.666  0.00  0.00     0.178 A 
ATOM      9  O   UNL d   1      26.403 -16.852  -1.791  0.00  0.00    -0.288 OA
ATOM     10  C   UNL d   1      25.149 -17.068  -1.180  0.00  0.00     0.121 A 
ENDROOT
BRANCH   8  11
ATOM     11  N   UNL d   1      27.680 -15.698  -3.240  0.00  0.00    -0.279 N 
ATOM     12  N   UNL d   1      28.645 -16.526  -3.146  0.00  0.00    -0.299 N 
ATOM     13  H   UNL d   1      28.560 -17.424  -2.653  0.00  0.00     0.186 HD
ATOM     14  H   UNL d   1      27.770 -14.870  -3.860  0.00  0.00     0.189 HD
BRANCH  12  15
ATOM     15  C   UNL d   1      29.847 -16.345  -3.837  0.00  0.00     0.072 A 
ATOM     16  C   UNL d   1      31.015 -16.010  -3.274  0.00  0.00     0.169 A 
ATOM     17  N   UNL d   1      32.196 -15.907  -3.948  0.00  0.00    -0.157 NA
ATOM     18  N   UNL d   1      32.322 -16.129  -5.174  0.00  0.00    -0.110 NA
ATOM     19  C   UNL d   1      31.238 -16.433  -5.967  0.00  0.00     0.286 A 
ATOM     20  O   UNL d   1      31.356 -16.671  -7.176  0.00  0.00    -0.268 OA
ATOM     21  C   UNL d   1      29.861 -16.499  -5.338  0.00  0.00     0.230 A 
ATOM     22 CL   UNL d   1      28.844 -15.200  -6.032  0.00  0.00    -0.108 Cl
ENDBRANCH  12  15
ENDBRANCH   8  11
BRANCH   7  23
ATOM     23  C   UNL d   1      25.618 -13.733  -3.872  0.00  0.00     0.253 C 
ATOM     24  N   UNL d   1      24.586 -13.327  -4.645  0.00  0.00    -0.366 N 
ATOM     25  H   UNL d   1      23.655 -13.721  -4.645  0.00  0.00     0.159 HD
ATOM     26  H   UNL d   1      24.725 -12.548  -5.278  0.00  0.00     0.159 HD
ATOM     27  O   UNL d   1      26.734 -13.211  -3.926  0.00  0.00    -0.268 OA
ENDBRANCH   7  23
BRANCH   1  28
ATOM     28  O   UNL d   1      26.102 -18.887  -0.021  0.00  0.00    -0.353 OA
ATOM     29  C   UNL d   1      27.031 -18.162   0.779  0.00  0.00     0.210 C 
ENDBRANCH   1  28
TORSDOF 4
ENDMDL
MODEL 3
REMARK VINA RESULT:    -6.371      8.951     12.332
REMARK INTER + INTRA:          -9.068
REMARK INTER:                  -7.564
REMARK INTRA:                  -1.504
REMARK CONF_INDEPENDENT:        1.193
REMARK UNBOUND:                -1.504
REMARK  4 active torsions:
REMARK  status: ('A' for Active; 'I' for Inactive)
REMARK    1  A    between atoms: O_2  and  C_3 
REMARK    2  A    between atoms: C_9  and  C_10 
REMARK       I    between atoms: C_10  and  N_11 
REMARK    3  A    between atoms: C_13  and  N_14 
REMARK    4  A    between atoms: N_15  and  C_16 
ROOT
ATOM      1  C   UNL d   1      29.339 -11.278   8.728  0.00  0.00     0.102 C 
ATOM      2  C   UNL d   1      30.098 -11.988   9.661  0.00  0.00     0.040 C 
ATOM      3  C   UNL d   1      30.316 -13.358   9.506  0.00  0.00     0.004 C 
ATOM      4  C   UNL d   1      29.662 -14.055   8.501  0.00  0.00     0.014 C 
ATOM      5  C   UNL d   1      28.997 -13.345   7.508  0.00  0.00     0.002 A 
ATOM      6  C   UNL d   1      28.529 -14.046   6.331  0.00  0.00     0.035 A 
ATOM      7  C   UNL d   1      28.016 -13.360   5.305  0.00  0.00     0.085 A 
ATOM      8  C   UNL d   1      27.890 -11.892   5.423  0.00  0.00     0.178 A 
ATOM      9  O   UNL d   1      28.268 -11.223   6.563  0.00  0.00    -0.288 OA
ATOM     10  C   UNL d   1      28.855 -11.962   7.613  0.00  0.00     0.121 A 
ENDROOT
BRANCH   8  11
ATOM     11  N   UNL d   1      27.424 -11.152   4.479  0.00  0.00    -0.279 N 
ATOM     12  N   UNL d   1      27.101  -9.922   4.575  0.00  0.00    -0.299 N 
ATOM     13  H   UNL d   1      27.270  -9.369   5.425  0.00  0.00     0.186 HD
ATOM     14  H   UNL d   1      27.358 -11.630   3.560  0.00  0.00     0.189 HD
BRANCH  12  15
ATOM     15  C   UNL d   1      26.632  -9.189   3.480  0.00  0.00     0.072 A 
ATOM     16  C   UNL d   1      25.649  -9.579   2.658  0.00  0.00     0.169 A 
ATOM     17  N   UNL d   1      25.153  -8.825   1.636  0.00  0.00    -0.157 NA
ATOM     18  N   UNL d   1      25.554  -7.672   1.360  0.00  0.00    -0.110 NA
ATOM     19  C   UNL d   1      26.601  -7.091   2.040  0.00  0.00     0.286 A 
ATOM     20  O   UNL d   1      26.994  -5.944   1.786  0.00  0.00    -0.268 OA
ATOM     21  C   UNL d   1      27.283  -7.869   3.148  0.00  0.00     0.230 A 
ATOM     22 CL   UNL d   1      28.976  -8.197   2.668  0.00  0.00    -0.108 Cl
ENDBRANCH  12  15
ENDBRANCH   8  11
BRANCH   7  23
ATOM     23  C   UNL d   1      27.588 -14.032   4.049  0.00  0.00     0.253 C 
ATOM     24  N   UNL d   1      28.168 -15.199   3.688  0.00  0.00    -0.366 N 
ATOM     25  H   UNL d   1      28.892 -15.685   4.199  0.00  0.00     0.159 HD
ATOM     26  H   UNL d   1      27.856 -15.659   2.840  0.00  0.00     0.159 HD
ATOM     27  O   UNL d   1      26.712 -13.488   3.373  0.00  0.00    -0.268 OA
ENDBRANCH   7  23
BRANCH   1  28
ATOM     28  O   UNL d   1      28.990  -9.963   8.855  0.00  0.00    -0.353 OA
ATOM     29  C   UNL d   1      29.773  -9.053   8.090  0.00  0.00     0.210 C 
ENDBRANCH   1  28
TORSDOF 4
ENDMDL
MODEL 4
REMARK VINA RESULT:    -6.314      5.284      8.337
REMARK INTER + INTRA:          -8.798
REMARK INTER:                  -7.507
REMARK INTRA:                  -1.291
REMARK CONF_INDEPENDENT:        1.193
REMARK UNBOUND:                -1.291
REMARK  4 active torsions:
REMARK  status: ('A' for Active; 'I' for Inactive)
REMARK    1  A    between atoms: O_2  and  C_3 
REMARK    2  A    between atoms: C_9  and  C_10 
REMARK       I    between atoms: C_10  and  N_11 
REMARK    3  A    between atoms: C_13  and  N_14 
REMARK    4  A    between atoms: N_15  and  C_16 
ROOT
ATOM      1  C   UNL d   1      26.370  -9.705   2.467  0.00  0.00     0.102 C 
ATOM      2  C   UNL d   1      26.951  -8.960   3.496  0.00  0.00     0.040 C 
ATOM      3  C   UNL d   1      27.920  -9.528   4.325  0.00  0.00     0.004 C 
ATOM      4  C   UNL d   1      28.211 -10.880   4.226  0.00  0.00     0.014 C 
ATOM      5  C   UNL d   1      27.723 -11.600   3.142  0.00  0.00     0.002 A 
ATOM      6  C   UNL d   1      28.222 -12.937   2.899  0.00  0.00     0.035 A 
ATOM      7  C   UNL d   1      27.872 -13.588   1.785  0.00  0.00     0.085 A 
ATOM      8  C   UNL d   1      26.932 -12.939   0.847  0.00  0.00     0.178 A 
ATOM      9  O   UNL d   1      26.399 -11.698   1.101  0.00  0.00    -0.288 OA
ATOM     10  C   UNL d   1      26.823 -11.007   2.257  0.00  0.00     0.121 A 
ENDROOT
BRANCH   8  11
ATOM     11  N   UNL d   1      26.555 -13.485  -0.256  0.00  0.00    -0.279 N 
ATOM     12  N   UNL d   1      26.415 -12.897  -1.378  0.00  0.00    -0.299 N 
ATOM     13  H   UNL d   1      26.683 -11.916  -1.529  0.00  0.00     0.186 HD
ATOM     14  H   UNL d   1      26.400 -14.509  -0.188  0.00  0.00     0.189 HD
BRANCH  12  15
ATOM     15  C   UNL d   1      26.032 -13.586  -2.534  0.00  0.00     0.072 A 
ATOM     16  C   UNL d   1      24.773 -13.700  -2.979  0.00  0.00     0.169 A 
ATOM     17  N   UNL d   1      24.419 -14.313  -4.144  0.00  0.00    -0.157 NA
ATOM     18  N   UNL d   1      25.237 -14.827  -4.940  0.00  0.00    -0.110 NA
ATOM     19  C   UNL d   1      26.584 -14.877  -4.657  0.00  0.00     0.286 A 
ATOM     20  O   UNL d   1      27.403 -15.368  -5.445  0.00  0.00    -0.268 OA
ATOM     21  C   UNL d   1      27.085 -14.294  -3.350  0.00  0.00     0.230 A 
ATOM     22 CL   UNL d   1      27.759 -15.615  -2.348  0.00  0.00    -0.108 Cl
ENDBRANCH  12  15
ENDBRANCH   8  11
BRANCH   7  23
ATOM     23  C   UNL d   1      28.416 -14.935   1.461  0.00  0.00     0.253 C 
ATOM     24  N   UNL d   1      29.745 -15.158   1.563  0.00  0.00    -0.366 N 
ATOM     25  H   UNL d   1      30.440 -14.481   1.847  0.00  0.00     0.159 HD
ATOM     26  H   UNL d   1      30.103 -16.084   1.358  0.00  0.00     0.159 HD
ATOM     27  O   UNL d   1      27.621 -15.806   1.101  0.00  0.00    -0.268 OA
ENDBRANCH   7  23
BRANCH   1  28
ATOM     28  O   UNL d   1      25.345  -9.265   1.678  0.00  0.00    -0.353 OA
ATOM     29  C   UNL d   1      25.648  -8.133   0.869  0.00  0.00     0.210 C 
ENDBRANCH   1  28
TORSDOF 4
ENDMDL
MODEL 5
REMARK VINA RESULT:    -6.237      2.959      7.150
REMARK INTER + INTRA:          -8.527
REMARK INTER:                  -7.430
REMARK INTRA:                  -1.096
REMARK CONF_INDEPENDENT:        1.193
REMARK UNBOUND:                -1.096
REMARK  4 active torsions:
REMARK  status: ('A' for Active; 'I' for Inactive)
REMARK    1  A    between atoms: O_2  and  C_3 
REMARK    2  A    between atoms: C_9  and  C_10 
REMARK       I    between atoms: C_10  and  N_11 
REMARK    3  A    between atoms: C_13  and  N_14 
REMARK    4  A    between atoms: N_15  and  C_16 
ROOT
ATOM      1  C   UNL d   1      27.490 -17.730  -0.297  0.00  0.00     0.102 C 
ATOM      2  C   UNL d   1      26.644 -18.471   0.532  0.00  0.00     0.040 C 
ATOM      3  C   UNL d   1      25.271 -18.220   0.553  0.00  0.00     0.004 C 
ATOM      4  C   UNL d   1      24.753 -17.139  -0.144  0.00  0.00     0.014 C 
ATOM      5  C   UNL d   1      25.563 -16.468  -1.053  0.00  0.00     0.002 A 
ATOM      6  C   UNL d   1      24.966 -15.508  -1.958  0.00  0.00     0.035 A 
ATOM      7  C   UNL d   1      25.701 -14.961  -2.930  0.00  0.00     0.085 A 
ATOM      8  C   UNL d   1      27.134 -15.314  -3.023  0.00  0.00     0.178 A 
ATOM      9  O   UNL d   1      27.727 -16.171  -2.128  0.00  0.00    -0.288 OA
ATOM     10  C   UNL d   1      26.919 -16.778  -1.142  0.00  0.00     0.121 A 
ENDROOT
BRANCH   8  11
ATOM     11  N   UNL d   1      27.911 -14.847  -3.937  0.00  0.00    -0.279 N 
ATOM     12  N   UNL d   1      27.682 -14.843  -5.191  0.00  0.00    -0.299 N 
ATOM     13  H   UNL d   1      26.785 -15.147  -5.593  0.00  0.00     0.186 HD
ATOM     14  H   UNL d   1      28.777 -14.406  -3.571  0.00  0.00     0.189 HD
BRANCH  12  15
ATOM     15  C   UNL d   1      28.577 -14.281  -6.108  0.00  0.00     0.072 A 
ATOM     16  C   UNL d   1      29.820 -14.723  -6.339  0.00  0.00     0.169 A 
ATOM     17  N   UNL d   1      30.657 -14.211  -7.285  0.00  0.00    -0.157 NA
ATOM     18  N   UNL d   1      30.350 -13.274  -8.057  0.00  0.00    -0.110 NA
ATOM     19  C   UNL d   1      29.138 -12.628  -7.960  0.00  0.00     0.286 A 
ATOM     20  O   UNL d   1      28.818 -11.713  -8.730  0.00  0.00    -0.268 OA
ATOM     21  C   UNL d   1      28.155 -13.062  -6.890  0.00  0.00     0.230 A 
ATOM     22 CL   UNL d   1      27.929 -11.717  -5.731  0.00  0.00    -0.108 Cl
ENDBRANCH  12  15
ENDBRANCH   8  11
BRANCH   7  23
ATOM     23  C   UNL d   1      25.113 -14.023  -3.924  0.00  0.00     0.253 C 
ATOM     24  N   UNL d   1      24.955 -12.721  -3.598  0.00  0.00    -0.366 N 
ATOM     25  H   UNL d   1      25.204 -12.297  -2.715  0.00  0.00     0.159 HD
ATOM     26  H   UNL d   1      24.570 -12.086  -4.288  0.00  0.00     0.159 HD
ATOM     27  O   UNL d   1      24.780 -14.479  -5.020  0.00  0.00    -0.268 OA
ENDBRANCH   7  23
BRANCH   1  28
ATOM     28  O   UNL d   1      28.852 -17.836  -0.305  0.00  0.00    -0.353 OA
ATOM     29  C   UNL d   1      29.554 -16.621  -0.065  0.00  0.00     0.210 C 
ENDBRANCH   1  28
TORSDOF 4
ENDMDL
MODEL 6
REMARK VINA RESULT:    -6.072      4.841      7.612
REMARK INTER + INTRA:          -8.754
REMARK INTER:                  -7.266
REMARK INTRA:                  -1.488
REMARK CONF_INDEPENDENT:        1.193
REMARK UNBOUND:                -1.488
REMARK  4 active torsions:
REMARK  status: ('A' for Active; 'I' for Inactive)
REMARK    1  A    between atoms: O_2  and  C_3 
REMARK    2  A    between atoms: C_9  and  C_10 
REMARK       I    between atoms: C_10  and  N_11 
REMARK    3  A    between atoms: C_13  and  N_14 
REMARK    4  A    between atoms: N_15  and  C_16 
ROOT
ATOM      1  C   UNL d   1      26.319  -7.944  -0.486  0.00  0.00     0.102 C 
ATOM      2  C   UNL d   1      26.016  -6.736   0.148  0.00  0.00     0.040 C 
ATOM      3  C   UNL d   1      25.382  -5.706  -0.550  0.00  0.00     0.004 C 
ATOM      4  C   UNL d   1      25.176  -5.819  -1.917  0.00  0.00     0.014 C 
ATOM      5  C   UNL d   1      25.372  -7.051  -2.531  0.00  0.00     0.002 A 
ATOM      6  C   UNL d   1      24.924  -7.240  -3.895  0.00  0.00     0.035 A 
ATOM      7  C   UNL d   1      24.975  -8.453  -4.453  0.00  0.00     0.085 A 
ATOM      8  C   UNL d   1      25.543  -9.572  -3.671  0.00  0.00     0.178 A 
ATOM      9  O   UNL d   1      26.034  -9.390  -2.400  0.00  0.00    -0.288 OA
ATOM     10  C   UNL d   1      25.922  -8.111  -1.812  0.00  0.00     0.121 A 
ENDROOT
BRANCH   8  11
ATOM     11  N   UNL d   1      25.615 -10.775  -4.122  0.00  0.00    -0.279 N 
ATOM     12  N   UNL d   1      26.199 -11.758  -3.558  0.00  0.00    -0.299 N 
ATOM     13  H   UNL d   1      26.606 -11.695  -2.616  0.00  0.00     0.186 HD
ATOM     14  H   UNL d   1      25.102 -10.924  -5.012  0.00  0.00     0.189 HD
BRANCH  12  15
ATOM     15  C   UNL d   1      26.194 -13.042  -4.112  0.00  0.00     0.072 A 
ATOM     16  C   UNL d   1      25.175 -13.908  -4.038  0.00  0.00     0.169 A 
ATOM     17  N   UNL d   1      25.155 -15.130  -4.642  0.00  0.00    -0.157 NA
ATOM     18  N   UNL d   1      26.087 -15.575  -5.350  0.00  0.00    -0.110 NA
ATOM     19  C   UNL d   1      27.261 -14.875  -5.519  0.00  0.00     0.286 A 
ATOM     20  O   UNL d   1      28.181 -15.298  -6.231  0.00  0.00    -0.268 OA
ATOM     21  C   UNL d   1      27.427 -13.536  -4.828  0.00  0.00     0.230 A 
ATOM     22 CL   UNL d   1      28.746 -13.665  -3.625  0.00  0.00    -0.108 Cl
ENDBRANCH  12  15
ENDBRANCH   8  11
BRANCH   7  23
ATOM     23  C   UNL d   1      24.462  -8.707  -5.826  0.00  0.00     0.253 C 
ATOM     24  N   UNL d   1      23.280  -8.170  -6.204  0.00  0.00    -0.366 N 
ATOM     25  H   UNL d   1      22.682  -7.590  -5.631  0.00  0.00     0.159 HD
ATOM     26  H   UNL d   1      22.948  -8.333  -7.148  0.00  0.00     0.159 HD
ATOM     27  O   UNL d   1      25.141  -9.412  -6.574  0.00  0.00    -0.268 OA
ENDBRANCH   7  23
BRANCH   1  28
ATOM     28  O   UNL d   1      27.028  -8.961   0.088  0.00  0.00    -0.353 OA
ATOM     29  C   UNL d   1      28.394  -9.045  -0.308  0.00  0.00     0.210 C 
ENDBRANCH   1  28
TORSDOF 4
ENDMDL
MODEL 7
REMARK VINA RESULT:    -5.908      5.833      8.295
REMARK INTER + INTRA:          -8.586
REMARK INTER:                  -7.101
REMARK INTRA:                  -1.485
REMARK CONF_INDEPENDENT:        1.193
REMARK UNBOUND:                -1.485
REMARK  4 active torsions:
REMARK  status: ('A' for Active; 'I' for Inactive)
REMARK    1  A    between atoms: O_2  and  C_3 
REMARK    2  A    between atoms: C_9  and  C_10 
REMARK       I    between atoms: C_10  and  N_11 
REMARK    3  A    between atoms: C_13  and  N_14 
REMARK    4  A    between atoms: N_15  and  C_16 
ROOT
ATOM      1  C   UNL d   1      25.916 -14.846  -1.616  0.00  0.00     0.102 C 
ATOM      2  C   UNL d   1      25.711 -16.171  -2.010  0.00  0.00     0.040 C 
ATOM      3  C   UNL d   1      26.196 -17.226  -1.234  0.00  0.00     0.004 C 
ATOM      4  C   UNL d   1      27.009 -16.967  -0.141  0.00  0.00     0.014 C 
ATOM      5  C   UNL d   1      27.127 -15.661   0.320  0.00  0.00     0.002 A 
ATOM      6  C   UNL d   1      27.765 -15.416   1.596  0.00  0.00     0.035 A 
ATOM      7  C   UNL d   1      27.761 -14.187   2.121  0.00  0.00     0.085 A 
ATOM      8  C   UNL d   1      27.145 -13.087   1.349  0.00  0.00     0.178 A 
ATOM      9  O   UNL d   1      26.597 -13.294   0.106  0.00  0.00    -0.288 OA
ATOM     10  C   UNL d   1      26.565 -14.610  -0.405  0.00  0.00     0.121 A 
ENDROOT
BRANCH   8  11
ATOM     11  N   UNL d   1      27.082 -11.877   1.784  0.00  0.00    -0.279 N 
ATOM     12  N   UNL d   1      26.687 -10.859   1.126  0.00  0.00    -0.299 N 
ATOM     13  H   UNL d   1      26.289 -10.930   0.180  0.00  0.00     0.186 HD
ATOM     14  H   UNL d   1      27.348 -11.773   2.782  0.00  0.00     0.189 HD
BRANCH  12  15
ATOM     15  C   UNL d   1      26.622  -9.584   1.698  0.00  0.00     0.072 A 
ATOM     16  C   UNL d   1      26.013  -8.526   1.149  0.00  0.00     0.169 A 
ATOM     17  N   UNL d   1      25.894  -7.306   1.748  0.00  0.00    -0.157 NA
ATOM     18  N   UNL d   1      26.332  -7.045   2.891  0.00  0.00    -0.110 NA
ATOM     19  C   UNL d   1      27.046  -7.970   3.619  0.00  0.00     0.286 A 
ATOM     20  O   UNL d   1      27.468  -7.727   4.758  0.00  0.00    -0.268 OA
ATOM     21  C   UNL d   1      27.307  -9.338   3.019  0.00  0.00     0.230 A 
ATOM     22 CL   UNL d   1      29.068  -9.534   2.770  0.00  0.00    -0.108 Cl
ENDBRANCH  12  15
ENDBRANCH   8  11
BRANCH   7  23
ATOM     23  C   UNL d   1      28.343 -13.905   3.460  0.00  0.00     0.253 C 
ATOM     24  N   UNL d   1      29.289 -14.730   3.961  0.00  0.00    -0.366 N 
ATOM     25  H   UNL d   1      29.660 -15.553   3.506  0.00  0.00     0.159 HD
ATOM     26  H   UNL d   1      29.693 -14.519   4.867  0.00  0.00     0.159 HD
ATOM     27  O   UNL d   1      27.929 -12.918   4.073  0.00  0.00    -0.268 OA
ENDBRANCH   7  23
BRANCH   1  28
ATOM     28  O   UNL d   1      25.570 -13.756  -2.363  0.00  0.00    -0.353 OA
ATOM     29  C   UNL d   1      24.925 -14.049  -3.599  0.00  0.00     0.210 C 
ENDBRANCH   1  28
TORSDOF 4
ENDMDL
MODEL 8
REMARK VINA RESULT:    -5.903      2.567      4.746
REMARK INTER + INTRA:          -8.522
REMARK INTER:                  -7.096
REMARK INTRA:                  -1.426
REMARK CONF_INDEPENDENT:        1.193
REMARK UNBOUND:                -1.426
REMARK  4 active torsions:
REMARK  status: ('A' for Active; 'I' for Inactive)
REMARK    1  A    between atoms: O_2  and  C_3 
REMARK    2  A    between atoms: C_9  and  C_10 
REMARK       I    between atoms: C_10  and  N_11 
REMARK    3  A    between atoms: C_13  and  N_14 
REMARK    4  A    between atoms: N_15  and  C_16 
ROOT
ATOM      1  C   UNL d   1      25.552  -9.648  -4.424  0.00  0.00     0.102 C 
ATOM      2  C   UNL d   1      25.468  -8.595  -5.337  0.00  0.00     0.040 C 
ATOM      3  C   UNL d   1      26.033  -8.710  -6.609  0.00  0.00     0.004 C 
ATOM      4  C   UNL d   1      26.805  -9.817  -6.927  0.00  0.00     0.014 C 
ATOM      5  C   UNL d   1      26.804 -10.912  -6.070  0.00  0.00     0.002 A 
ATOM      6  C   UNL d   1      27.402 -12.154  -6.511  0.00  0.00     0.035 A 
ATOM      7  C   UNL d   1      27.285 -13.255  -5.762  0.00  0.00     0.085 A 
ATOM      8  C   UNL d   1      26.586 -13.159  -4.463  0.00  0.00     0.178 A 
ATOM      9  O   UNL d   1      26.073 -11.970  -4.003  0.00  0.00    -0.288 OA
ATOM     10  C   UNL d   1      26.163 -10.832  -4.835  0.00  0.00     0.121 A 
ENDROOT
BRANCH   8  11
ATOM     11  N   UNL d   1      26.412 -14.171  -3.685  0.00  0.00    -0.279 N 
ATOM     12  N   UNL d   1      25.686 -14.200  -2.638  0.00  0.00    -0.299 N 
ATOM     13  H   UNL d   1      25.085 -13.415  -2.357  0.00  0.00     0.186 HD
ATOM     14  H   UNL d   1      26.895 -15.034  -4.001  0.00  0.00     0.189 HD
BRANCH  12  15
ATOM     15  C   UNL d   1      25.533 -15.361  -1.873  0.00  0.00     0.072 A 
ATOM     16  C   UNL d   1      24.374 -16.001  -1.670  0.00  0.00     0.169 A 
ATOM     17  N   UNL d   1      24.248 -17.171  -0.982  0.00  0.00    -0.157 NA
ATOM     18  N   UNL d   1      25.210 -17.788  -0.472  0.00  0.00    -0.110 NA
ATOM     19  C   UNL d   1      26.491 -17.284  -0.509  0.00  0.00     0.286 A 
ATOM     20  O   UNL d   1      27.452 -17.895  -0.023  0.00  0.00    -0.268 OA
ATOM     21  C   UNL d   1      26.738 -15.948  -1.182  0.00  0.00     0.230 A 
ATOM     22 CL   UNL d   1      27.291 -14.773   0.050  0.00  0.00    -0.108 Cl
ENDBRANCH  12  15
ENDBRANCH   8  11
BRANCH   7  23
ATOM     23  C   UNL d   1      27.823 -14.568  -6.208  0.00  0.00     0.253 C 
ATOM     24  N   UNL d   1      28.658 -14.618  -7.270  0.00  0.00    -0.366 N 
ATOM     25  H   UNL d   1      28.970 -13.827  -7.817  0.00  0.00     0.159 HD
ATOM     26  H   UNL d   1      29.035 -15.515  -7.555  0.00  0.00     0.159 HD
ATOM     27  O   UNL d   1      27.476 -15.575  -5.587  0.00  0.00    -0.268 OA
ENDBRANCH   7  23
BRANCH   1  28
ATOM     28  O   UNL d   1      25.122  -9.584  -3.128  0.00  0.00    -0.353 OA
ATOM     29  C   UNL d   1      25.948  -8.821  -2.254  0.00  0.00     0.210 C 
ENDBRANCH   1  28
TORSDOF 4
ENDMDL
MODEL 9
REMARK VINA RESULT:    -5.847      3.221      5.929
REMARK INTER + INTRA:          -8.523
REMARK INTER:                  -7.040
REMARK INTRA:                  -1.483
REMARK CONF_INDEPENDENT:        1.193
REMARK UNBOUND:                -1.483
REMARK  4 active torsions:
REMARK  status: ('A' for Active; 'I' for Inactive)
REMARK    1  A    between atoms: O_2  and  C_3 
REMARK    2  A    between atoms: C_9  and  C_10 
REMARK       I    between atoms: C_10  and  N_11 
REMARK    3  A    between atoms: C_13  and  N_14 
REMARK    4  A    between atoms: N_15  and  C_16 
ROOT
ATOM      1  C   UNL d   1      30.878 -19.734  -5.684  0.00  0.00     0.102 C 
ATOM      2  C   UNL d   1      31.517 -20.968  -5.533  0.00  0.00     0.040 C 
ATOM      3  C   UNL d   1      32.063 -21.339  -4.303  0.00  0.00     0.004 C 
ATOM      4  C   UNL d   1      32.101 -20.429  -3.258  0.00  0.00     0.014 C 
ATOM      5  C   UNL d   1      31.376 -19.248  -3.362  0.00  0.00     0.002 A 
ATOM      6  C   UNL d   1      31.210 -18.415  -2.189  0.00  0.00     0.035 A 
ATOM      7  C   UNL d   1      30.400 -17.352  -2.234  0.00  0.00     0.085 A 
ATOM      8  C   UNL d   1      29.730 -17.023  -3.510  0.00  0.00     0.178 A 
ATOM      9  O   UNL d   1      29.934 -17.766  -4.648  0.00  0.00    -0.288 OA
ATOM     10  C   UNL d   1      30.752 -18.914  -4.563  0.00  0.00     0.121 A 
ENDROOT
BRANCH   8  11
ATOM     11  N   UNL d   1      28.921 -16.029  -3.639  0.00  0.00    -0.279 N 
ATOM     12  N   UNL d   1      28.355 -15.654  -4.718  0.00  0.00    -0.299 N 
ATOM     13  H   UNL d   1      28.428 -16.183  -5.597  0.00  0.00     0.186 HD
ATOM     14  H   UNL d   1      28.708 -15.540  -2.749  0.00  0.00     0.189 HD
BRANCH  12  15
ATOM     15  C   UNL d   1      27.462 -14.578  -4.752  0.00  0.00     0.072 A 
ATOM     16  C   UNL d   1      27.770 -13.336  -5.145  0.00  0.00     0.169 A 
ATOM     17  N   UNL d   1      26.874 -12.312  -5.242  0.00  0.00    -0.157 NA
ATOM     18  N   UNL d   1      25.654 -12.425  -4.986  0.00  0.00    -0.110 NA
ATOM     19  C   UNL d   1      25.123 -13.603  -4.508  0.00  0.00     0.286 A 
ATOM     20  O   UNL d   1      23.915 -13.730  -4.269  0.00  0.00    -0.268 OA
ATOM     21  C   UNL d   1      26.042 -14.788  -4.287  0.00  0.00     0.230 A 
ATOM     22 CL   UNL d   1      26.088 -15.166  -2.538  0.00  0.00    -0.108 Cl
ENDBRANCH  12  15
ENDBRANCH   8  11
BRANCH   7  23
ATOM     23  C   UNL d   1      30.146 -16.510  -1.035  0.00  0.00     0.253 C 
ATOM     24  N   UNL d   1      30.189 -17.071   0.194  0.00  0.00    -0.366 N 
ATOM     25  H   UNL d   1      30.383 -18.043   0.395  0.00  0.00     0.159 HD
ATOM     26  H   UNL d   1      30.033 -16.485   1.006  0.00  0.00     0.159 HD
ATOM     27  O   UNL d   1      29.895 -15.316  -1.212  0.00  0.00    -0.268 OA
ENDBRANCH   7  23
BRANCH   1  28
ATOM     28  O   UNL d   1      30.410 -19.247  -6.871  0.00  0.00    -0.353 OA
ATOM     29  C   UNL d   1      30.928 -19.887  -8.034  0.00  0.00     0.210 C 
ENDBRANCH   1  28
TORSDOF 4
ENDMDL
