MODEL 1
REMARK VINA RESULT:   -10.513      0.000      0.000
REMARK INTER + INTRA:         -15.039
REMARK INTER:                 -13.496
REMARK INTRA:                  -1.544
REMARK CONF_INDEPENDENT:        2.983
REMARK UNBOUND:                -1.544
REMARK  10 active torsions:
REMARK  status: ('A' for Active; 'I' for Inactive)
REMARK    1  A    between atoms: O_2  and  C_3 
REMARK    2  A    between atoms: C_5  and  C_6 
REMARK    3  A    between atoms: C_6  and  O_8 
REMARK    4  A    between atoms: C_9  and  O_8 
REMARK    5  A    between atoms: C_9  and  C_11 
REMARK    6  A    between atoms: C_11  and  C_13 
REMARK    7  A    between atoms: C_24  and  O_25 
REMARK    8  A    between atoms: O_25  and  C_26 
REMARK    9  A    between atoms: C_26  and  C_27 
REMARK       I    between atoms: C_27  and  N_29 
REMARK   10  A    between atoms: N_29  and  C_30 
ROOT
ATOM      1  C   UNL d   1      25.464 -15.394  -2.741  0.00  0.00     0.102 A 
ATOM      2  C   UNL d   1      26.888 -15.541  -2.824  0.00  0.00     0.057 A 
ATOM      3  C   UNL d   1      27.572 -16.318  -1.892  0.00  0.00     0.042 A 
ATOM      4  C   UNL d   1      26.795 -16.782  -0.861  0.00  0.00     0.020 A 
ATOM      5  C   UNL d   1      25.450 -16.637  -0.706  0.00  0.00     0.040 A 
ATOM      6  C   UNL d   1      24.748 -15.998  -1.677  0.00  0.00     0.102 A 
ENDROOT
BRANCH   3   7
ATOM      7  C   UNL d   1      29.027 -16.704  -2.019  0.00  0.00     0.294 C 
ATOM      8  O   UNL d   1      29.635 -17.055  -1.033  0.00  0.00    -0.259 OA
BRANCH   7   9
ATOM      9  O   UNL d   1      29.677 -16.726  -3.232  0.00  0.00    -0.304 OA
BRANCH   9  10
ATOM     10  C   UNL d   1      30.116 -15.676  -4.126  0.00  0.00     0.202 C 
ATOM     11  C   UNL d   1      29.713 -14.262  -3.603  0.00  0.00     0.048 C 
BRANCH  10  12
ATOM     12  C   UNL d   1      29.798 -15.963  -5.626  0.00  0.00     0.187 C 
ATOM     13  O   UNL d   1      28.753 -15.575  -6.140  0.00  0.00    -0.290 OA
BRANCH  12  14
ATOM     14  C   UNL d   1      30.712 -16.777  -6.459  0.00  0.00     0.020 A 
ATOM     15  C   UNL d   1      30.784 -18.104  -6.299  0.00  0.00     0.002 A 
ATOM     16  C   UNL d   1      30.259 -19.031  -5.347  0.00  0.00     0.014 A 
ATOM     17  C   UNL d   1      31.535 -18.582  -7.475  0.00  0.00     0.039 A 
ATOM     18  C   UNL d   1      30.524 -20.335  -5.489  0.00  0.00     0.001 A 
ATOM     19  C   UNL d   1      31.225 -20.839  -6.655  0.00  0.00     0.002 A 
ATOM     20  C   UNL d   1      31.728 -20.044  -7.621  0.00  0.00     0.030 A 
ATOM     21  N   UNL d   1      31.884 -17.620  -8.244  0.00  0.00    -0.385 N 
ATOM     22  C   UNL d   1      31.459 -16.314  -7.662  0.00  0.00     0.163 A 
ATOM     23  H   UNL d   1      32.359 -17.776  -9.134  0.00  0.00     0.160 HD
ENDBRANCH  12  14
ENDBRANCH  10  12
ENDBRANCH   9  10
ENDBRANCH   7   9
ENDBRANCH   3   7
BRANCH   1  24
ATOM     24  O   UNL d   1      24.923 -14.830  -3.873  0.00  0.00    -0.353 OA
ATOM     25  C   UNL d   1      25.138 -13.441  -4.078  0.00  0.00     0.210 C 
ENDBRANCH   1  24
BRANCH   6  26
ATOM     26  O   UNL d   1      23.437 -16.214  -1.371  0.00  0.00    -0.339 OA
BRANCH  26  27
ATOM     27  C   UNL d   1      23.170 -17.482  -0.908  0.00  0.00     0.278 C 
BRANCH  27  28
ATOM     28  C   UNL d   1      21.780 -17.940  -0.602  0.00  0.00     0.246 C 
ATOM     29  O   UNL d   1      20.815 -17.481  -1.216  0.00  0.00    -0.271 OA
ATOM     30  N   UNL d   1      21.734 -18.950   0.366  0.00  0.00    -0.325 N 
ATOM     31  H   UNL d   1      22.523 -19.147   0.976  0.00  0.00     0.169 HD
BRANCH  30  32
ATOM     32  C   UNL d   1      20.520 -19.594   0.642  0.00  0.00     0.035 A 
ATOM     33  C   UNL d   1      19.696 -20.066  -0.379  0.00  0.00     0.032 A 
ATOM     34  C   UNL d   1      18.514 -20.734  -0.038  0.00  0.00     0.044 A 
ATOM     35  C   UNL d   1      18.194 -20.943   1.303  0.00  0.00     0.116 A 
ATOM     36  F   UNL d   1      17.100 -21.642   1.626  0.00  0.00    -0.206 F 
ATOM     37  C   UNL d   1      18.998 -20.450   2.317  0.00  0.00     0.044 A 
ATOM     38  C   UNL d   1      20.152 -19.764   1.981  0.00  0.00     0.032 A 
ENDBRANCH  30  32
ENDBRANCH  27  28
ENDBRANCH  26  27
ENDBRANCH   6  26
TORSDOF 10
ENDMDL
MODEL 2
REMARK VINA RESULT:   -10.246      4.361      7.181
REMARK INTER + INTRA:         -14.897
REMARK INTER:                 -13.229
REMARK INTRA:                  -1.668
REMARK CONF_INDEPENDENT:        2.983
REMARK UNBOUND:                -1.668
REMARK  10 active torsions:
REMARK  status: ('A' for Active; 'I' for Inactive)
REMARK    1  A    between atoms: O_2  and  C_3 
REMARK    2  A    between atoms: C_5  and  C_6 
REMARK    3  A    between atoms: C_6  and  O_8 
REMARK    4  A    between atoms: C_9  and  O_8 
REMARK    5  A    between atoms: C_9  and  C_11 
REMARK    6  A    between atoms: C_11  and  C_13 
REMARK    7  A    between atoms: C_24  and  O_25 
REMARK    8  A    between atoms: O_25  and  C_26 
REMARK    9  A    between atoms: C_26  and  C_27 
REMARK       I    between atoms: C_27  and  N_29 
REMARK   10  A    between atoms: N_29  and  C_30 
ROOT
ATOM      1  C   UNL d   1      25.944 -15.736  -2.454  0.00  0.00     0.102 A 
ATOM      2  C   UNL d   1      27.209 -15.305  -1.933  0.00  0.00     0.057 A 
ATOM      3  C   UNL d   1      27.644 -15.745  -0.685  0.00  0.00     0.042 A 
ATOM      4  C   UNL d   1      26.716 -16.477   0.013  0.00  0.00     0.020 A 
ATOM      5  C   UNL d   1      25.487 -16.878  -0.412  0.00  0.00     0.040 A 
ATOM      6  C   UNL d   1      25.103 -16.573  -1.678  0.00  0.00     0.102 A 
ENDROOT
BRANCH   3   7
ATOM      7  C   UNL d   1      29.038 -15.521  -0.149  0.00  0.00     0.294 C 
ATOM      8  O   UNL d   1      29.947 -16.208  -0.558  0.00  0.00    -0.259 OA
BRANCH   7   9
ATOM      9  O   UNL d   1      29.326 -14.519   0.749  0.00  0.00    -0.304 OA
BRANCH   9  10
ATOM     10  C   UNL d   1      28.899 -13.139   0.846  0.00  0.00     0.202 C 
ATOM     11  C   UNL d   1      30.035 -12.216   1.384  0.00  0.00     0.048 C 
BRANCH  10  12
ATOM     12  C   UNL d   1      27.504 -12.967   1.521  0.00  0.00     0.187 C 
ATOM     13  O   UNL d   1      26.468 -13.232   0.917  0.00  0.00    -0.290 OA
BRANCH  12  14
ATOM     14  C   UNL d   1      27.377 -12.405   2.885  0.00  0.00     0.020 A 
ATOM     15  C   UNL d   1      27.773 -13.108   3.954  0.00  0.00     0.002 A 
ATOM     16  C   UNL d   1      28.209 -14.452   4.166  0.00  0.00     0.014 A 
ATOM     17  C   UNL d   1      27.782 -12.132   5.060  0.00  0.00     0.039 A 
ATOM     18  C   UNL d   1      28.550 -14.840   5.401  0.00  0.00     0.001 A 
ATOM     19  C   UNL d   1      28.608 -13.896   6.500  0.00  0.00     0.002 A 
ATOM     20  C   UNL d   1      28.248 -12.601   6.386  0.00  0.00     0.030 A 
ATOM     21  N   UNL d   1      27.410 -10.970   4.676  0.00  0.00    -0.385 N 
ATOM     22  C   UNL d   1      27.032 -10.998   3.233  0.00  0.00     0.163 A 
ATOM     23  H   UNL d   1      27.415 -10.161   5.298  0.00  0.00     0.160 HD
ENDBRANCH  12  14
ENDBRANCH  10  12
ENDBRANCH   9  10
ENDBRANCH   7   9
ENDBRANCH   3   7
BRANCH   1  24
ATOM     24  O   UNL d   1      25.790 -15.436  -3.788  0.00  0.00    -0.353 OA
ATOM     25  C   UNL d   1      25.408 -14.109  -4.119  0.00  0.00     0.210 C 
ENDBRANCH   1  24
BRANCH   6  26
ATOM     26  O   UNL d   1      23.964 -17.291  -1.890  0.00  0.00    -0.339 OA
BRANCH  26  27
ATOM     27  C   UNL d   1      23.473 -17.912  -0.764  0.00  0.00     0.278 C 
BRANCH  27  28
ATOM     28  C   UNL d   1      22.181 -18.663  -0.768  0.00  0.00     0.246 C 
ATOM     29  O   UNL d   1      21.840 -19.325  -1.750  0.00  0.00    -0.271 OA
ATOM     30  N   UNL d   1      21.489 -18.575   0.445  0.00  0.00    -0.325 N 
ATOM     31  H   UNL d   1      21.708 -17.866   1.139  0.00  0.00     0.169 HD
BRANCH  30  32
ATOM     32  C   UNL d   1      20.342 -19.356   0.650  0.00  0.00     0.035 A 
ATOM     33  C   UNL d   1      19.514 -19.727  -0.409  0.00  0.00     0.032 A 
ATOM     34  C   UNL d   1      18.404 -20.539  -0.145  0.00  0.00     0.044 A 
ATOM     35  C   UNL d   1      18.161 -20.984   1.154  0.00  0.00     0.116 A 
ATOM     36  F   UNL d   1      17.141 -21.816   1.392  0.00  0.00    -0.206 F 
ATOM     37  C   UNL d   1      18.968 -20.593   2.209  0.00  0.00     0.044 A 
ATOM     38  C   UNL d   1      20.048 -19.767   1.954  0.00  0.00     0.032 A 
ENDBRANCH  30  32
ENDBRANCH  27  28
ENDBRANCH  26  27
ENDBRANCH   6  26
TORSDOF 10
ENDMDL
MODEL 3
REMARK VINA RESULT:    -9.876      2.069      3.675
REMARK INTER + INTRA:         -14.692
REMARK INTER:                 -12.859
REMARK INTRA:                  -1.833
REMARK CONF_INDEPENDENT:        2.983
REMARK UNBOUND:                -1.833
REMARK  10 active torsions:
REMARK  status: ('A' for Active; 'I' for Inactive)
REMARK    1  A    between atoms: O_2  and  C_3 
REMARK    2  A    between atoms: C_5  and  C_6 
REMARK    3  A    between atoms: C_6  and  O_8 
REMARK    4  A    between atoms: C_9  and  O_8 
REMARK    5  A    between atoms: C_9  and  C_11 
REMARK    6  A    between atoms: C_11  and  C_13 
REMARK    7  A    between atoms: C_24  and  O_25 
REMARK    8  A    between atoms: O_25  and  C_26 
REMARK    9  A    between atoms: C_26  and  C_27 
REMARK       I    between atoms: C_27  and  N_29 
REMARK   10  A    between atoms: N_29  and  C_30 
ROOT
ATOM      1  C   UNL d   1      26.750 -16.215  -1.070  0.00  0.00     0.102 A 
ATOM      2  C   UNL d   1      27.120 -14.848  -1.300  0.00  0.00     0.057 A 
ATOM      3  C   UNL d   1      26.246 -13.983  -1.956  0.00  0.00     0.042 A 
ATOM      4  C   UNL d   1      25.120 -14.586  -2.456  0.00  0.00     0.020 A 
ATOM      5  C   UNL d   1      24.739 -15.884  -2.307  0.00  0.00     0.040 A 
ATOM      6  C   UNL d   1      25.513 -16.708  -1.555  0.00  0.00     0.102 A 
ENDROOT
BRANCH   3   7
ATOM      7  C   UNL d   1      26.453 -12.490  -2.055  0.00  0.00     0.294 C 
ATOM      8  O   UNL d   1      27.019 -11.909  -1.157  0.00  0.00    -0.259 OA
BRANCH   7   9
ATOM      9  O   UNL d   1      26.071 -11.768  -3.164  0.00  0.00    -0.304 OA
BRANCH   9  10
ATOM     10  C   UNL d   1      26.579 -11.716  -4.519  0.00  0.00     0.202 C 
ATOM     11  C   UNL d   1      25.832 -10.648  -5.377  0.00  0.00     0.048 C 
BRANCH  10  12
ATOM     12  C   UNL d   1      26.748 -13.120  -5.174  0.00  0.00     0.187 C 
ATOM     13  O   UNL d   1      25.902 -13.999  -5.023  0.00  0.00    -0.290 OA
BRANCH  12  14
ATOM     14  C   UNL d   1      27.968 -13.467  -5.937  0.00  0.00     0.020 A 
ATOM     15  C   UNL d   1      28.649 -14.588  -5.666  0.00  0.00     0.002 A 
ATOM     16  C   UNL d   1      28.584 -15.579  -4.638  0.00  0.00     0.014 A 
ATOM     17  C   UNL d   1      29.582 -14.742  -6.798  0.00  0.00     0.039 A 
ATOM     18  C   UNL d   1      29.436 -16.610  -4.671  0.00  0.00     0.001 A 
ATOM     19  C   UNL d   1      30.336 -16.810  -5.790  0.00  0.00     0.002 A 
ATOM     20  C   UNL d   1      30.443 -15.946  -6.820  0.00  0.00     0.030 A 
ATOM     21  N   UNL d   1      29.468 -13.789  -7.645  0.00  0.00    -0.385 N 
ATOM     22  C   UNL d   1      28.457 -12.798  -7.175  0.00  0.00     0.163 A 
ATOM     23  H   UNL d   1      29.994 -13.769  -8.519  0.00  0.00     0.160 HD
ENDBRANCH  12  14
ENDBRANCH  10  12
ENDBRANCH   9  10
ENDBRANCH   7   9
ENDBRANCH   3   7
BRANCH   1  24
ATOM     24  O   UNL d   1      27.593 -16.850  -0.187  0.00  0.00    -0.353 OA
ATOM     25  C   UNL d   1      27.033 -17.862   0.638  0.00  0.00     0.210 C 
ENDBRANCH   1  24
BRANCH   6  26
ATOM     26  O   UNL d   1      24.775 -17.843  -1.393  0.00  0.00    -0.339 OA
BRANCH  26  27
ATOM     27  C   UNL d   1      23.785 -17.739  -0.443  0.00  0.00     0.278 C 
BRANCH  27  28
ATOM     28  C   UNL d   1      22.547 -18.575  -0.489  0.00  0.00     0.246 C 
ATOM     29  O   UNL d   1      22.325 -19.320  -1.446  0.00  0.00    -0.271 OA
ATOM     30  N   UNL d   1      21.760 -18.459   0.663  0.00  0.00    -0.325 N 
ATOM     31  H   UNL d   1      21.881 -17.694   1.321  0.00  0.00     0.169 HD
BRANCH  30  32
ATOM     32  C   UNL d   1      20.654 -19.301   0.837  0.00  0.00     0.035 A 
ATOM     33  C   UNL d   1      20.278 -19.760   2.100  0.00  0.00     0.032 A 
ATOM     34  C   UNL d   1      19.141 -20.568   2.213  0.00  0.00     0.044 A 
ATOM     35  C   UNL d   1      18.390 -20.877   1.079  0.00  0.00     0.116 A 
ATOM     36  F   UNL d   1      17.266 -21.591   1.200  0.00  0.00    -0.206 F 
ATOM     37  C   UNL d   1      18.779 -20.444  -0.178  0.00  0.00     0.044 A 
ATOM     38  C   UNL d   1      19.918 -19.669  -0.295  0.00  0.00     0.032 A 
ENDBRANCH  30  32
ENDBRANCH  27  28
ENDBRANCH  26  27
ENDBRANCH   6  26
TORSDOF 10
ENDMDL
MODEL 4
REMARK VINA RESULT:    -9.843      4.012      6.256
REMARK INTER + INTRA:         -15.099
REMARK INTER:                 -12.826
REMARK INTRA:                  -2.273
REMARK CONF_INDEPENDENT:        2.983
REMARK UNBOUND:                -2.273
REMARK  10 active torsions:
REMARK  status: ('A' for Active; 'I' for Inactive)
REMARK    1  A    between atoms: O_2  and  C_3 
REMARK    2  A    between atoms: C_5  and  C_6 
REMARK    3  A    between atoms: C_6  and  O_8 
REMARK    4  A    between atoms: C_9  and  O_8 
REMARK    5  A    between atoms: C_9  and  C_11 
REMARK    6  A    between atoms: C_11  and  C_13 
REMARK    7  A    between atoms: C_24  and  O_25 
REMARK    8  A    between atoms: O_25  and  C_26 
REMARK    9  A    between atoms: C_26  and  C_27 
REMARK       I    between atoms: C_27  and  N_29 
REMARK   10  A    between atoms: N_29  and  C_30 
ROOT
ATOM      1  C   UNL d   1      25.821 -16.276  -1.270  0.00  0.00     0.102 A 
ATOM      2  C   UNL d   1      27.208 -15.931  -1.383  0.00  0.00     0.057 A 
ATOM      3  C   UNL d   1      28.181 -16.700  -0.748  0.00  0.00     0.042 A 
ATOM      4  C   UNL d   1      27.682 -17.681   0.071  0.00  0.00     0.020 A 
ATOM      5  C   UNL d   1      26.377 -18.026   0.252  0.00  0.00     0.040 A 
ATOM      6  C   UNL d   1      25.426 -17.375  -0.466  0.00  0.00     0.102 A 
ENDROOT
BRANCH   3   7
ATOM      7  C   UNL d   1      29.665 -16.544  -0.980  0.00  0.00     0.294 C 
ATOM      8  O   UNL d   1      30.281 -17.447  -1.498  0.00  0.00    -0.259 OA
BRANCH   7   9
ATOM      9  O   UNL d   1      30.337 -15.382  -0.675  0.00  0.00    -0.304 OA
BRANCH   9  10
ATOM     10  C   UNL d   1      29.952 -13.987  -0.727  0.00  0.00     0.202 C 
ATOM     11  C   UNL d   1      31.112 -13.084  -1.248  0.00  0.00     0.048 C 
BRANCH  10  12
ATOM     12  C   UNL d   1      29.232 -13.493   0.564  0.00  0.00     0.187 C 
ATOM     13  O   UNL d   1      28.190 -12.846   0.504  0.00  0.00    -0.290 OA
BRANCH  12  14
ATOM     14  C   UNL d   1      29.819 -13.721   1.904  0.00  0.00     0.020 A 
ATOM     15  C   UNL d   1      29.034 -13.907   2.973  0.00  0.00     0.002 A 
ATOM     16  C   UNL d   1      27.631 -13.801   3.219  0.00  0.00     0.014 A 
ATOM     17  C   UNL d   1      29.945 -14.398   4.025  0.00  0.00     0.039 A 
ATOM     18  C   UNL d   1      27.159 -14.075   4.441  0.00  0.00     0.001 A 
ATOM     19  C   UNL d   1      28.022 -14.598   5.483  0.00  0.00     0.002 A 
ATOM     20  C   UNL d   1      29.352 -14.763   5.332  0.00  0.00     0.030 A 
ATOM     21  N   UNL d   1      31.154 -14.476   3.613  0.00  0.00    -0.385 N 
ATOM     22  C   UNL d   1      31.254 -13.987   2.207  0.00  0.00     0.163 A 
ATOM     23  H   UNL d   1      31.906 -14.854   4.191  0.00  0.00     0.160 HD
ENDBRANCH  12  14
ENDBRANCH  10  12
ENDBRANCH   9  10
ENDBRANCH   7   9
ENDBRANCH   3   7
BRANCH   1  24
ATOM     24  O   UNL d   1      25.029 -15.592  -2.163  0.00  0.00    -0.353 OA
ATOM     25  C   UNL d   1      25.551 -15.373  -3.465  0.00  0.00     0.210 C 
ENDBRANCH   1  24
BRANCH   6  26
ATOM     26  O   UNL d   1      24.276 -18.079  -0.258  0.00  0.00    -0.339 OA
BRANCH  26  27
ATOM     27  C   UNL d   1      23.204 -17.634  -0.997  0.00  0.00     0.278 C 
BRANCH  27  28
ATOM     28  C   UNL d   1      21.799 -18.036  -0.682  0.00  0.00     0.246 C 
ATOM     29  O   UNL d   1      20.848 -17.514  -1.266  0.00  0.00    -0.271 OA
ATOM     30  N   UNL d   1      21.720 -19.070   0.257  0.00  0.00    -0.325 N 
ATOM     31  H   UNL d   1      22.508 -19.322   0.848  0.00  0.00     0.169 HD
BRANCH  30  32
ATOM     32  C   UNL d   1      20.481 -19.664   0.535  0.00  0.00     0.035 A 
ATOM     33  C   UNL d   1      19.611 -20.049  -0.485  0.00  0.00     0.032 A 
ATOM     34  C   UNL d   1      18.404 -20.671  -0.145  0.00  0.00     0.044 A 
ATOM     35  C   UNL d   1      18.105 -20.922   1.194  0.00  0.00     0.116 A 
ATOM     36  F   UNL d   1      16.984 -21.579   1.513  0.00  0.00    -0.206 F 
ATOM     37  C   UNL d   1      18.955 -20.516   2.208  0.00  0.00     0.044 A 
ATOM     38  C   UNL d   1      20.134 -19.875   1.874  0.00  0.00     0.032 A 
ENDBRANCH  30  32
ENDBRANCH  27  28
ENDBRANCH  26  27
ENDBRANCH   6  26
TORSDOF 10
ENDMDL
MODEL 5
REMARK VINA RESULT:    -9.837      1.560      2.694
REMARK INTER + INTRA:         -14.723
REMARK INTER:                 -12.820
REMARK INTRA:                  -1.904
REMARK CONF_INDEPENDENT:        2.983
REMARK UNBOUND:                -1.904
REMARK  10 active torsions:
REMARK  status: ('A' for Active; 'I' for Inactive)
REMARK    1  A    between atoms: O_2  and  C_3 
REMARK    2  A    between atoms: C_5  and  C_6 
REMARK    3  A    between atoms: C_6  and  O_8 
REMARK    4  A    between atoms: C_9  and  O_8 
REMARK    5  A    between atoms: C_9  and  C_11 
REMARK    6  A    between atoms: C_11  and  C_13 
REMARK    7  A    between atoms: C_24  and  O_25 
REMARK    8  A    between atoms: O_25  and  C_26 
REMARK    9  A    between atoms: C_26  and  C_27 
REMARK       I    between atoms: C_27  and  N_29 
REMARK   10  A    between atoms: N_29  and  C_30 
ROOT
ATOM      1  C   UNL d   1      25.662 -15.777  -2.156  0.00  0.00     0.102 A 
ATOM      2  C   UNL d   1      27.077 -15.946  -2.319  0.00  0.00     0.057 A 
ATOM      3  C   UNL d   1      27.810 -16.692  -1.399  0.00  0.00     0.042 A 
ATOM      4  C   UNL d   1      27.093 -17.102  -0.303  0.00  0.00     0.020 A 
ATOM      5  C   UNL d   1      25.762 -16.933  -0.072  0.00  0.00     0.040 A 
ATOM      6  C   UNL d   1      25.008 -16.327  -1.025  0.00  0.00     0.102 A 
ENDROOT
BRANCH   3   7
ATOM      7  C   UNL d   1      29.250 -17.101  -1.599  0.00  0.00     0.294 C 
ATOM      8  O   UNL d   1      29.697 -18.028  -0.961  0.00  0.00    -0.259 OA
BRANCH   7   9
ATOM      9  O   UNL d   1      30.064 -16.493  -2.528  0.00  0.00    -0.304 OA
BRANCH   9  10
ATOM     10  C   UNL d   1      31.026 -17.014  -3.476  0.00  0.00     0.202 C 
ATOM     11  C   UNL d   1      32.295 -16.112  -3.569  0.00  0.00     0.048 C 
BRANCH  10  12
ATOM     12  C   UNL d   1      30.393 -17.441  -4.834  0.00  0.00     0.187 C 
ATOM     13  O   UNL d   1      30.033 -18.599  -5.033  0.00  0.00    -0.290 OA
BRANCH  12  14
ATOM     14  C   UNL d   1      30.272 -16.484  -5.958  0.00  0.00     0.020 A 
ATOM     15  C   UNL d   1      29.334 -15.529  -5.946  0.00  0.00     0.002 A 
ATOM     16  C   UNL d   1      28.210 -15.236  -5.113  0.00  0.00     0.014 A 
ATOM     17  C   UNL d   1      29.717 -14.615  -7.038  0.00  0.00     0.039 A 
ATOM     18  C   UNL d   1      27.458 -14.163  -5.385  0.00  0.00     0.001 A 
ATOM     19  C   UNL d   1      27.832 -13.224  -6.426  0.00  0.00     0.002 A 
ATOM     20  C   UNL d   1      28.894 -13.400  -7.238  0.00  0.00     0.030 A 
ATOM     21  N   UNL d   1      30.774 -15.008  -7.643  0.00  0.00    -0.385 N 
ATOM     22  C   UNL d   1      31.243 -16.305  -7.074  0.00  0.00     0.163 A 
ATOM     23  H   UNL d   1      31.214 -14.463  -8.385  0.00  0.00     0.160 HD
ENDBRANCH  12  14
ENDBRANCH  10  12
ENDBRANCH   9  10
ENDBRANCH   7   9
ENDBRANCH   3   7
BRANCH   1  24
ATOM     24  O   UNL d   1      25.058 -15.254  -3.275  0.00  0.00    -0.353 OA
ATOM     25  C   UNL d   1      24.854 -13.849  -3.312  0.00  0.00     0.210 C 
ENDBRANCH   1  24
BRANCH   6  26
ATOM     26  O   UNL d   1      23.716 -16.513  -0.630  0.00  0.00    -0.339 OA
BRANCH  26  27
ATOM     27  C   UNL d   1      23.191 -17.734  -0.984  0.00  0.00     0.278 C 
BRANCH  27  28
ATOM     28  C   UNL d   1      21.784 -18.121  -0.657  0.00  0.00     0.246 C 
ATOM     29  O   UNL d   1      20.836 -17.618  -1.263  0.00  0.00    -0.271 OA
ATOM     30  N   UNL d   1      21.700 -19.120   0.319  0.00  0.00    -0.325 N 
ATOM     31  H   UNL d   1      22.486 -19.352   0.920  0.00  0.00     0.169 HD
BRANCH  30  32
ATOM     32  C   UNL d   1      20.459 -19.700   0.615  0.00  0.00     0.035 A 
ATOM     33  C   UNL d   1      19.571 -20.078  -0.392  0.00  0.00     0.032 A 
ATOM     34  C   UNL d   1      18.363 -20.687  -0.034  0.00  0.00     0.044 A 
ATOM     35  C   UNL d   1      18.078 -20.931   1.310  0.00  0.00     0.116 A 
ATOM     36  F   UNL d   1      16.955 -21.576   1.646  0.00  0.00    -0.206 F 
ATOM     37  C   UNL d   1      18.947 -20.531   2.311  0.00  0.00     0.044 A 
ATOM     38  C   UNL d   1      20.128 -19.904   1.959  0.00  0.00     0.032 A 
ENDBRANCH  30  32
ENDBRANCH  27  28
ENDBRANCH  26  27
ENDBRANCH   6  26
TORSDOF 10
ENDMDL
MODEL 6
REMARK VINA RESULT:    -9.813      2.426      3.995
REMARK INTER + INTRA:         -14.716
REMARK INTER:                 -12.796
REMARK INTRA:                  -1.920
REMARK CONF_INDEPENDENT:        2.983
REMARK UNBOUND:                -1.920
REMARK  10 active torsions:
REMARK  status: ('A' for Active; 'I' for Inactive)
REMARK    1  A    between atoms: O_2  and  C_3 
REMARK    2  A    between atoms: C_5  and  C_6 
REMARK    3  A    between atoms: C_6  and  O_8 
REMARK    4  A    between atoms: C_9  and  O_8 
REMARK    5  A    between atoms: C_9  and  C_11 
REMARK    6  A    between atoms: C_11  and  C_13 
REMARK    7  A    between atoms: C_24  and  O_25 
REMARK    8  A    between atoms: O_25  and  C_26 
REMARK    9  A    between atoms: C_26  and  C_27 
REMARK       I    between atoms: C_27  and  N_29 
REMARK   10  A    between atoms: N_29  and  C_30 
ROOT
ATOM      1  C   UNL d   1      25.145 -14.971  -2.454  0.00  0.00     0.102 A 
ATOM      2  C   UNL d   1      26.556 -14.861  -2.688  0.00  0.00     0.057 A 
ATOM      3  C   UNL d   1      27.437 -15.785  -2.129  0.00  0.00     0.042 A 
ATOM      4  C   UNL d   1      26.852 -16.672  -1.261  0.00  0.00     0.020 A 
ATOM      5  C   UNL d   1      25.529 -16.795  -0.966  0.00  0.00     0.040 A 
ATOM      6  C   UNL d   1      24.642 -15.991  -1.608  0.00  0.00     0.102 A 
ENDROOT
BRANCH   3   7
ATOM      7  C   UNL d   1      28.901 -15.879  -2.487  0.00  0.00     0.294 C 
ATOM      8  O   UNL d   1      29.724 -15.383  -1.751  0.00  0.00    -0.259 OA
BRANCH   7   9
ATOM      9  O   UNL d   1      29.342 -16.563  -3.598  0.00  0.00    -0.304 OA
BRANCH   9  10
ATOM     10  C   UNL d   1      29.284 -16.270  -5.014  0.00  0.00     0.202 C 
ATOM     11  C   UNL d   1      30.706 -16.065  -5.623  0.00  0.00     0.048 C 
BRANCH  10  12
ATOM     12  C   UNL d   1      28.224 -15.188  -5.382  0.00  0.00     0.187 C 
ATOM     13  O   UNL d   1      27.100 -15.503  -5.765  0.00  0.00    -0.290 OA
BRANCH  12  14
ATOM     14  C   UNL d   1      28.559 -13.746  -5.354  0.00  0.00     0.020 A 
ATOM     15  C   UNL d   1      28.607 -13.033  -6.487  0.00  0.00     0.002 A 
ATOM     16  C   UNL d   1      28.545 -13.353  -7.878  0.00  0.00     0.014 A 
ATOM     17  C   UNL d   1      28.658 -11.627  -6.042  0.00  0.00     0.039 A 
ATOM     18  C   UNL d   1      28.617 -12.365  -8.779  0.00  0.00     0.001 A 
ATOM     19  C   UNL d   1      28.628 -10.973  -8.373  0.00  0.00     0.002 A 
ATOM     20  C   UNL d   1      28.653 -10.576  -7.084  0.00  0.00     0.030 A 
ATOM     21  N   UNL d   1      28.657 -11.529  -4.766  0.00  0.00    -0.385 N 
ATOM     22  C   UNL d   1      28.660 -12.885  -4.143  0.00  0.00     0.163 A 
ATOM     23  H   UNL d   1      28.629 -10.629  -4.287  0.00  0.00     0.160 HD
ENDBRANCH  12  14
ENDBRANCH  10  12
ENDBRANCH   9  10
ENDBRANCH   7   9
ENDBRANCH   3   7
BRANCH   1  24
ATOM     24  O   UNL d   1      24.406 -14.160  -3.283  0.00  0.00    -0.353 OA
ATOM     25  C   UNL d   1      25.090 -13.518  -4.349  0.00  0.00     0.210 C 
ENDBRANCH   1  24
BRANCH   6  26
ATOM     26  O   UNL d   1      23.413 -16.494  -1.296  0.00  0.00    -0.339 OA
BRANCH  26  27
ATOM     27  C   UNL d   1      23.417 -17.835  -0.987  0.00  0.00     0.278 C 
BRANCH  27  28
ATOM     28  C   UNL d   1      22.157 -18.634  -0.897  0.00  0.00     0.246 C 
ATOM     29  O   UNL d   1      21.780 -19.325  -1.846  0.00  0.00    -0.271 OA
ATOM     30  N   UNL d   1      21.541 -18.552   0.357  0.00  0.00    -0.325 N 
ATOM     31  H   UNL d   1      21.777 -17.823   1.025  0.00  0.00     0.169 HD
BRANCH  30  32
ATOM     32  C   UNL d   1      20.441 -19.371   0.647  0.00  0.00     0.035 A 
ATOM     33  C   UNL d   1      20.207 -19.848   1.936  0.00  0.00     0.032 A 
ATOM     34  C   UNL d   1      19.070 -20.631   2.170  0.00  0.00     0.044 A 
ATOM     35  C   UNL d   1      18.182 -20.897   1.128  0.00  0.00     0.116 A 
ATOM     36  F   UNL d   1      17.062 -21.587   1.368  0.00  0.00    -0.206 F 
ATOM     37  C   UNL d   1      18.430 -20.447  -0.158  0.00  0.00     0.044 A 
ATOM     38  C   UNL d   1      19.567 -19.697  -0.396  0.00  0.00     0.032 A 
ENDBRANCH  30  32
ENDBRANCH  27  28
ENDBRANCH  26  27
ENDBRANCH   6  26
TORSDOF 10
ENDMDL
MODEL 7
REMARK VINA RESULT:    -9.779      2.001      2.996
REMARK INTER + INTRA:         -14.718
REMARK INTER:                 -12.762
REMARK INTRA:                  -1.956
REMARK CONF_INDEPENDENT:        2.983
REMARK UNBOUND:                -1.956
REMARK  10 active torsions:
REMARK  status: ('A' for Active; 'I' for Inactive)
REMARK    1  A    between atoms: O_2  and  C_3 
REMARK    2  A    between atoms: C_5  and  C_6 
REMARK    3  A    between atoms: C_6  and  O_8 
REMARK    4  A    between atoms: C_9  and  O_8 
REMARK    5  A    between atoms: C_9  and  C_11 
REMARK    6  A    between atoms: C_11  and  C_13 
REMARK    7  A    between atoms: C_24  and  O_25 
REMARK    8  A    between atoms: O_25  and  C_26 
REMARK    9  A    between atoms: C_26  and  C_27 
REMARK       I    between atoms: C_27  and  N_29 
REMARK   10  A    between atoms: N_29  and  C_30 
ROOT
ATOM      1  C   UNL d   1      25.889 -16.619  -1.642  0.00  0.00     0.102 A 
ATOM      2  C   UNL d   1      27.283 -16.292  -1.725  0.00  0.00     0.057 A 
ATOM      3  C   UNL d   1      28.195 -16.862  -0.839  0.00  0.00     0.042 A 
ATOM      4  C   UNL d   1      27.624 -17.613   0.157  0.00  0.00     0.020 A 
ATOM      5  C   UNL d   1      26.307 -17.921   0.312  0.00  0.00     0.040 A 
ATOM      6  C   UNL d   1      25.422 -17.486  -0.622  0.00  0.00     0.102 A 
ENDROOT
BRANCH   3   7
ATOM      7  C   UNL d   1      29.695 -16.748  -0.981  0.00  0.00     0.294 C 
ATOM      8  O   UNL d   1      30.253 -15.752  -0.578  0.00  0.00    -0.259 OA
BRANCH   7   9
ATOM      9  O   UNL d   1      30.462 -17.765  -1.501  0.00  0.00    -0.304 OA
BRANCH   9  10
ATOM     10  C   UNL d   1      31.345 -18.735  -0.888  0.00  0.00     0.202 C 
ATOM     11  C   UNL d   1      32.189 -18.106   0.263  0.00  0.00     0.048 C 
BRANCH  10  12
ATOM     12  C   UNL d   1      32.136 -19.596  -1.920  0.00  0.00     0.187 C 
ATOM     13  O   UNL d   1      33.362 -19.657  -1.891  0.00  0.00    -0.290 OA
BRANCH  12  14
ATOM     14  C   UNL d   1      31.440 -20.307  -3.017  0.00  0.00     0.020 A 
ATOM     15  C   UNL d   1      31.150 -19.680  -4.164  0.00  0.00     0.002 A 
ATOM     16  C   UNL d   1      31.221 -18.325  -4.613  0.00  0.00     0.014 A 
ATOM     17  C   UNL d   1      30.759 -20.758  -5.092  0.00  0.00     0.039 A 
ATOM     18  C   UNL d   1      30.849 -18.032  -5.865  0.00  0.00     0.001 A 
ATOM     19  C   UNL d   1      30.499 -19.074  -6.812  0.00  0.00     0.002 A 
ATOM     20  C   UNL d   1      30.438 -20.381  -6.487  0.00  0.00     0.030 A 
ATOM     21  N   UNL d   1      30.801 -21.909  -4.533  0.00  0.00    -0.385 N 
ATOM     22  C   UNL d   1      31.182 -21.772  -3.097  0.00  0.00     0.163 A 
ATOM     23  H   UNL d   1      30.620 -22.772  -5.045  0.00  0.00     0.160 HD
ENDBRANCH  12  14
ENDBRANCH  10  12
ENDBRANCH   9  10
ENDBRANCH   7   9
ENDBRANCH   3   7
BRANCH   1  24
ATOM     24  O   UNL d   1      25.178 -16.193  -2.739  0.00  0.00    -0.353 OA
ATOM     25  C   UNL d   1      25.357 -14.845  -3.151  0.00  0.00     0.210 C 
ENDBRANCH   1  24
BRANCH   6  26
ATOM     26  O   UNL d   1      24.256 -18.132  -0.338  0.00  0.00    -0.339 OA
BRANCH  26  27
ATOM     27  C   UNL d   1      23.162 -17.637  -1.010  0.00  0.00     0.278 C 
BRANCH  27  28
ATOM     28  C   UNL d   1      21.765 -18.048  -0.669  0.00  0.00     0.246 C 
ATOM     29  O   UNL d   1      20.802 -17.568  -1.270  0.00  0.00    -0.271 OA
ATOM     30  N   UNL d   1      21.709 -19.042   0.315  0.00  0.00    -0.325 N 
ATOM     31  H   UNL d   1      22.504 -19.254   0.912  0.00  0.00     0.169 HD
BRANCH  30  32
ATOM     32  C   UNL d   1      20.482 -19.644   0.626  0.00  0.00     0.035 A 
ATOM     33  C   UNL d   1      19.612 -20.085  -0.372  0.00  0.00     0.032 A 
ATOM     34  C   UNL d   1      18.418 -20.712   0.002  0.00  0.00     0.044 A 
ATOM     35  C   UNL d   1      18.131 -20.913   1.352  0.00  0.00     0.116 A 
ATOM     36  F   UNL d   1      17.023 -21.575   1.706  0.00  0.00    -0.206 F 
ATOM     37  C   UNL d   1      18.981 -20.451   2.343  0.00  0.00     0.044 A 
ATOM     38  C   UNL d   1      20.147 -19.805   1.975  0.00  0.00     0.032 A 
ENDBRANCH  30  32
ENDBRANCH  27  28
ENDBRANCH  26  27
ENDBRANCH   6  26
TORSDOF 10
ENDMDL
MODEL 8
REMARK VINA RESULT:    -9.666      1.955      3.218
REMARK INTER + INTRA:         -14.632
REMARK INTER:                 -12.649
REMARK INTRA:                  -1.983
REMARK CONF_INDEPENDENT:        2.983
REMARK UNBOUND:                -1.983
REMARK  10 active torsions:
REMARK  status: ('A' for Active; 'I' for Inactive)
REMARK    1  A    between atoms: O_2  and  C_3 
REMARK    2  A    between atoms: C_5  and  C_6 
REMARK    3  A    between atoms: C_6  and  O_8 
REMARK    4  A    between atoms: C_9  and  O_8 
REMARK    5  A    between atoms: C_9  and  C_11 
REMARK    6  A    between atoms: C_11  and  C_13 
REMARK    7  A    between atoms: C_24  and  O_25 
REMARK    8  A    between atoms: O_25  and  C_26 
REMARK    9  A    between atoms: C_26  and  C_27 
REMARK       I    between atoms: C_27  and  N_29 
REMARK   10  A    between atoms: N_29  and  C_30 
ROOT
ATOM      1  C   UNL d   1      26.095 -15.347  -0.577  0.00  0.00     0.102 A 
ATOM      2  C   UNL d   1      26.579 -14.356  -1.495  0.00  0.00     0.057 A 
ATOM      3  C   UNL d   1      25.832 -14.012  -2.619  0.00  0.00     0.042 A 
ATOM      4  C   UNL d   1      24.716 -14.786  -2.817  0.00  0.00     0.020 A 
ATOM      5  C   UNL d   1      24.233 -15.767  -2.006  0.00  0.00     0.040 A 
ATOM      6  C   UNL d   1      24.876 -16.021  -0.837  0.00  0.00     0.102 A 
ENDROOT
BRANCH   3   7
ATOM      7  C   UNL d   1      26.151 -12.842  -3.520  0.00  0.00     0.294 C 
ATOM      8  O   UNL d   1      25.284 -12.038  -3.775  0.00  0.00    -0.259 OA
BRANCH   7   9
ATOM      9  O   UNL d   1      27.416 -12.622  -4.016  0.00  0.00    -0.304 OA
BRANCH   9  10
ATOM     10  C   UNL d   1      28.168 -13.243  -5.086  0.00  0.00     0.202 C 
ATOM     11  C   UNL d   1      28.083 -12.420  -6.409  0.00  0.00     0.048 C 
BRANCH  10  12
ATOM     12  C   UNL d   1      27.911 -14.775  -5.219  0.00  0.00     0.187 C 
ATOM     13  O   UNL d   1      26.972 -15.207  -5.883  0.00  0.00    -0.290 OA
BRANCH  12  14
ATOM     14  C   UNL d   1      28.743 -15.757  -4.488  0.00  0.00     0.020 A 
ATOM     15  C   UNL d   1      29.676 -16.475  -5.128  0.00  0.00     0.002 A 
ATOM     16  C   UNL d   1      30.032 -16.664  -6.499  0.00  0.00     0.014 A 
ATOM     17  C   UNL d   1      30.480 -17.087  -4.053  0.00  0.00     0.039 A 
ATOM     18  C   UNL d   1      31.056 -17.470  -6.802  0.00  0.00     0.001 A 
ATOM     19  C   UNL d   1      31.889 -18.054  -5.768  0.00  0.00     0.002 A 
ATOM     20  C   UNL d   1      31.650 -17.903  -4.450  0.00  0.00     0.030 A 
ATOM     21  N   UNL d   1      30.046 -16.769  -2.891  0.00  0.00    -0.385 N 
ATOM     22  C   UNL d   1      28.825 -15.921  -3.010  0.00  0.00     0.163 A 
ATOM     23  H   UNL d   1      30.520 -17.056  -2.034  0.00  0.00     0.160 HD
ENDBRANCH  12  14
ENDBRANCH  10  12
ENDBRANCH   9  10
ENDBRANCH   7   9
ENDBRANCH   3   7
BRANCH   1  24
ATOM     24  O   UNL d   1      26.807 -15.372   0.600  0.00  0.00    -0.353 OA
ATOM     25  C   UNL d   1      27.403 -16.605   0.977  0.00  0.00     0.210 C 
ENDBRANCH   1  24
BRANCH   6  26
ATOM     26  O   UNL d   1      24.048 -16.858  -0.149  0.00  0.00    -0.339 OA
BRANCH  26  27
ATOM     27  C   UNL d   1      23.826 -18.065  -0.771  0.00  0.00     0.278 C 
BRANCH  27  28
ATOM     28  C   UNL d   1      22.484 -18.724  -0.774  0.00  0.00     0.246 C 
ATOM     29  O   UNL d   1      22.079 -19.324  -1.771  0.00  0.00    -0.271 OA
ATOM     30  N   UNL d   1      21.823 -18.633   0.457  0.00  0.00    -0.325 N 
ATOM     31  H   UNL d   1      22.106 -17.966   1.171  0.00  0.00     0.169 HD
BRANCH  30  32
ATOM     32  C   UNL d   1      20.629 -19.338   0.659  0.00  0.00     0.035 A 
ATOM     33  C   UNL d   1      19.806 -19.700  -0.407  0.00  0.00     0.032 A 
ATOM     34  C   UNL d   1      18.646 -20.437  -0.144  0.00  0.00     0.044 A 
ATOM     35  C   UNL d   1      18.346 -20.820   1.163  0.00  0.00     0.116 A 
ATOM     36  F   UNL d   1      17.273 -21.583   1.403  0.00  0.00    -0.206 F 
ATOM     37  C   UNL d   1      19.148 -20.437   2.224  0.00  0.00     0.044 A 
ATOM     38  C   UNL d   1      20.280 -19.684   1.969  0.00  0.00     0.032 A 
ENDBRANCH  30  32
ENDBRANCH  27  28
ENDBRANCH  26  27
ENDBRANCH   6  26
TORSDOF 10
ENDMDL
MODEL 9
REMARK VINA RESULT:    -8.764      2.062      3.683
REMARK INTER + INTRA:         -14.613
REMARK INTER:                 -11.747
REMARK INTRA:                  -2.865
REMARK CONF_INDEPENDENT:        2.983
REMARK UNBOUND:                -2.865
REMARK  10 active torsions:
REMARK  status: ('A' for Active; 'I' for Inactive)
REMARK    1  A    between atoms: O_2  and  C_3 
REMARK    2  A    between atoms: C_5  and  C_6 
REMARK    3  A    between atoms: C_6  and  O_8 
REMARK    4  A    between atoms: C_9  and  O_8 
REMARK    5  A    between atoms: C_9  and  C_11 
REMARK    6  A    between atoms: C_11  and  C_13 
REMARK    7  A    between atoms: C_24  and  O_25 
REMARK    8  A    between atoms: O_25  and  C_26 
REMARK    9  A    between atoms: C_26  and  C_27 
REMARK       I    between atoms: C_27  and  N_29 
REMARK   10  A    between atoms: N_29  and  C_30 
ROOT
ATOM      1  C   UNL d   1      25.878 -16.437  -1.767  0.00  0.00     0.102 A 
ATOM      2  C   UNL d   1      27.259 -16.051  -1.806  0.00  0.00     0.057 A 
ATOM      3  C   UNL d   1      28.192 -16.688  -0.990  0.00  0.00     0.042 A 
ATOM      4  C   UNL d   1      27.650 -17.572  -0.092  0.00  0.00     0.020 A 
ATOM      5  C   UNL d   1      26.345 -17.943   0.021  0.00  0.00     0.040 A 
ATOM      6  C   UNL d   1      25.444 -17.434  -0.858  0.00  0.00     0.102 A 
ENDROOT
BRANCH   3   7
ATOM      7  C   UNL d   1      29.687 -16.503  -1.112  0.00  0.00     0.294 C 
ATOM      8  O   UNL d   1      30.277 -15.875  -0.262  0.00  0.00    -0.259 OA
BRANCH   7   9
ATOM      9  O   UNL d   1      30.416 -17.075  -2.130  0.00  0.00    -0.304 OA
BRANCH   9  10
ATOM     10  C   UNL d   1      30.035 -17.651  -3.402  0.00  0.00     0.202 C 
ATOM     11  C   UNL d   1      30.914 -18.888  -3.765  0.00  0.00     0.048 C 
BRANCH  10  12
ATOM     12  C   UNL d   1      29.846 -16.594  -4.532  0.00  0.00     0.187 C 
ATOM     13  O   UNL d   1      29.880 -16.915  -5.716  0.00  0.00    -0.290 OA
BRANCH  12  14
ATOM     14  C   UNL d   1      29.695 -15.155  -4.216  0.00  0.00     0.020 A 
ATOM     15  C   UNL d   1      28.525 -14.532  -4.404  0.00  0.00     0.002 A 
ATOM     16  C   UNL d   1      27.285 -14.889  -5.018  0.00  0.00     0.014 A 
ATOM     17  C   UNL d   1      28.673 -13.240  -3.707  0.00  0.00     0.039 A 
ATOM     18  C   UNL d   1      26.282 -14.003  -5.025  0.00  0.00     0.001 A 
ATOM     19  C   UNL d   1      26.383 -12.743  -4.315  0.00  0.00     0.002 A 
ATOM     20  C   UNL d   1      27.500 -12.336  -3.679  0.00  0.00     0.030 A 
ATOM     21  N   UNL d   1      29.830 -13.113  -3.175  0.00  0.00    -0.385 N 
ATOM     22  C   UNL d   1      30.675 -14.303  -3.485  0.00  0.00     0.163 A 
ATOM     23  H   UNL d   1      30.083 -12.307  -2.603  0.00  0.00     0.160 HD
ENDBRANCH  12  14
ENDBRANCH  10  12
ENDBRANCH   9  10
ENDBRANCH   7   9
ENDBRANCH   3   7
BRANCH   1  24
ATOM     24  O   UNL d   1      25.152 -15.910  -2.809  0.00  0.00    -0.353 OA
ATOM     25  C   UNL d   1      24.394 -14.737  -2.551  0.00  0.00     0.210 C 
ENDBRANCH   1  24
BRANCH   6  26
ATOM     26  O   UNL d   1      24.302 -18.152  -0.656  0.00  0.00    -0.339 OA
BRANCH  26  27
ATOM     27  C   UNL d   1      23.177 -17.583  -1.208  0.00  0.00     0.278 C 
BRANCH  27  28
ATOM     28  C   UNL d   1      21.798 -17.983  -0.792  0.00  0.00     0.246 C 
ATOM     29  O   UNL d   1      20.809 -17.423  -1.269  0.00  0.00    -0.271 OA
ATOM     30  N   UNL d   1      21.783 -19.059   0.103  0.00  0.00    -0.325 N 
ATOM     31  H   UNL d   1      22.615 -19.346   0.612  0.00  0.00     0.169 HD
BRANCH  30  32
ATOM     32  C   UNL d   1      20.563 -19.651   0.459  0.00  0.00     0.035 A 
ATOM     33  C   UNL d   1      19.650 -20.076  -0.506  0.00  0.00     0.032 A 
ATOM     34  C   UNL d   1      18.466 -20.694  -0.088  0.00  0.00     0.044 A 
ATOM     35  C   UNL d   1      18.231 -20.901   1.271  0.00  0.00     0.116 A 
ATOM     36  F   UNL d   1      17.131 -21.553   1.664  0.00  0.00    -0.206 F 
ATOM     37  C   UNL d   1      19.124 -20.454   2.229  0.00  0.00     0.044 A 
ATOM     38  C   UNL d   1      20.281 -19.817   1.819  0.00  0.00     0.032 A 
ENDBRANCH  30  32
ENDBRANCH  27  28
ENDBRANCH  26  27
ENDBRANCH   6  26
TORSDOF 10
ENDMDL
