MODEL 1
REMARK VINA RESULT:   -31.683      0.000      0.000
REMARK INTER + INTRA:         -33.701
REMARK INTER:                 -33.175
REMARK INTRA:                  -0.527
REMARK CONF_INDEPENDENT:        1.492
REMARK UNBOUND:                -0.527
REMARK  5 active torsions:
REMARK  status: ('A' for Active; 'I' for Inactive)
REMARK       I    between atoms: C_2  and  N_3 
REMARK    1  A    between atoms: C_2  and  C_24 
REMARK    2  A    between atoms: N_3  and  C_4 
REMARK    3  A    between atoms: C_7  and  N_8 
REMARK    4  A    between atoms: N_8  and  S_9 
REMARK    5  A    between atoms: S_9  and  C_12 
ROOT
ATOM      1  C   UNL d   1      25.267 -17.887  -0.071  0.00  0.00     0.035 A 
ATOM      2  C   UNL d   1      25.381 -16.521  -0.354  0.00  0.00     0.032 A 
ATOM      3  C   UNL d   1      26.652 -15.893  -0.358  0.00  0.00     0.032 A 
ATOM      4  C   UNL d   1      27.814 -16.619  -0.053  0.00  0.00     0.042 A 
ATOM      5  C   UNL d   1      27.681 -17.983   0.191  0.00  0.00     0.032 A 
ATOM      6  C   UNL d   1      26.430 -18.604   0.197  0.00  0.00     0.032 A 
ENDROOT
BRANCH   4   7
ATOM      7  N   UNL d   1      29.099 -15.974  -0.078  0.00  0.00    -0.281 N 
ATOM      8  H   UNL d   1      29.325 -15.303   0.654  0.00  0.00     0.179 HD
BRANCH   7   9
ATOM      9  S   UNL d   1      30.409 -16.677  -0.920  0.00  0.00     0.263 S 
ATOM     10  O   UNL d   1      31.569 -15.790  -0.718  0.00  0.00    -0.200 OA
ATOM     11  O   UNL d   1      30.483 -18.062  -0.620  0.00  0.00    -0.200 OA
BRANCH   9  12
ATOM     12  C   UNL d   1      29.928 -16.445  -2.613  0.00  0.00     0.082 C 
ATOM     13  C   UNL d   1      30.667 -16.046  -3.739  0.00  0.00     0.028 C 
ATOM     14  C   UNL d   1      29.961 -15.606  -4.975  0.00  0.00     0.041 C 
ATOM     15  C   UNL d   1      28.534 -15.539  -5.001  0.00  0.00     0.102 C 
ATOM     16  C   UNL d   1      28.033 -15.782  -3.767  0.00  0.00     0.103 C 
ATOM     17  O   UNL d   1      27.487 -15.177  -5.876  0.00  0.00    -0.346 OA
ATOM     18  C   UNL d   1      28.582 -16.393  -2.694  0.00  0.00     0.065 C 
ATOM     19  O   UNL d   1      27.082 -14.908  -3.324  0.00  0.00    -0.346 OA
ATOM     20  C   UNL d   1      25.930 -15.543  -3.763  0.00  0.00     0.202 C 
ATOM     21  C   UNL d   1      25.982 -15.209  -5.251  0.00  0.00     0.202 C 
ENDBRANCH   9  12
ENDBRANCH   7   9
ENDBRANCH   4   7
BRANCH   1  22
ATOM     22  N   UNL d   1      24.013 -18.552  -0.084  0.00  0.00    -0.322 N 
ATOM     23  C   UNL d   1      22.810 -17.838  -0.095  0.00  0.00     0.265 C 
ATOM     24  O   UNL d   1      22.771 -16.610  -0.144  0.00  0.00    -0.267 OA
ATOM     25  H   UNL d   1      23.998 -19.537  -0.318  0.00  0.00     0.169 HD
BRANCH  23  26
ATOM     26  C   UNL d   1      21.584 -18.586  -0.185  0.00  0.00     0.106 A 
ATOM     27  C   UNL d   1      20.731 -18.672  -1.272  0.00  0.00     0.160 A 
ATOM     28  N   UNL d   1      19.533 -19.325  -1.044  0.00  0.00    -0.181 NA
ATOM     29  N   UNL d   1      19.437 -19.722   0.215  0.00  0.00    -0.037 NA
ATOM     30  S   UNL d   1      20.793 -19.330   1.129  0.00  0.00     0.009 SA
ENDBRANCH  23  26
ENDBRANCH   1  22
TORSDOF 5
ENDMDL
MODEL 2
REMARK VINA RESULT:   -31.598      3.191      5.347
REMARK INTER + INTRA:         -34.072
REMARK INTER:                 -33.090
REMARK INTRA:                  -0.982
REMARK CONF_INDEPENDENT:        1.492
REMARK UNBOUND:                -0.982
REMARK  5 active torsions:
REMARK  status: ('A' for Active; 'I' for Inactive)
REMARK       I    between atoms: C_2  and  N_3 
REMARK    1  A    between atoms: C_2  and  C_24 
REMARK    2  A    between atoms: N_3  and  C_4 
REMARK    3  A    between atoms: C_7  and  N_8 
REMARK    4  A    between atoms: N_8  and  S_9 
REMARK    5  A    between atoms: S_9  and  C_12 
ROOT
ATOM      1  C   UNL d   1      24.931 -17.415  -1.164  0.00  0.00     0.035 A 
ATOM      2  C   UNL d   1      25.932 -18.006  -0.386  0.00  0.00     0.032 A 
ATOM      3  C   UNL d   1      27.219 -17.417  -0.306  0.00  0.00     0.032 A 
ATOM      4  C   UNL d   1      27.523 -16.250  -1.023  0.00  0.00     0.042 A 
ATOM      5  C   UNL d   1      26.501 -15.660  -1.762  0.00  0.00     0.032 A 
ATOM      6  C   UNL d   1      25.232 -16.238  -1.843  0.00  0.00     0.032 A 
ENDROOT
BRANCH   4   7
ATOM      7  N   UNL d   1      28.826 -15.653  -0.918  0.00  0.00    -0.281 N 
ATOM      8  H   UNL d   1      29.609 -16.101  -1.392  0.00  0.00     0.179 HD
BRANCH   7   9
ATOM      9  S   UNL d   1      28.997 -13.999  -0.525  0.00  0.00     0.263 S 
ATOM     10  O   UNL d   1      30.414 -13.790  -0.174  0.00  0.00    -0.200 OA
ATOM     11  O   UNL d   1      28.361 -13.203  -1.513  0.00  0.00    -0.200 OA
BRANCH   9  12
ATOM     12  C   UNL d   1      28.110 -13.890   1.009  0.00  0.00     0.082 C 
ATOM     13  C   UNL d   1      27.002 -13.112   1.384  0.00  0.00     0.028 C 
ATOM     14  C   UNL d   1      26.655 -12.958   2.825  0.00  0.00     0.041 C 
ATOM     15  C   UNL d   1      27.478 -13.554   3.829  0.00  0.00     0.102 C 
ATOM     16  C   UNL d   1      28.585 -14.092   3.266  0.00  0.00     0.103 C 
ATOM     17  O   UNL d   1      27.563 -13.652   5.235  0.00  0.00    -0.346 OA
ATOM     18  C   UNL d   1      28.840 -14.459   1.991  0.00  0.00     0.065 C 
ATOM     19  O   UNL d   1      29.772 -13.791   3.873  0.00  0.00    -0.346 OA
ATOM     20  C   UNL d   1      29.879 -14.851   4.760  0.00  0.00     0.202 C 
ATOM     21  C   UNL d   1      28.874 -14.422   5.825  0.00  0.00     0.202 C 
ENDBRANCH   9  12
ENDBRANCH   7   9
ENDBRANCH   4   7
BRANCH   1  22
ATOM     22  N   UNL d   1      23.624 -17.964  -1.245  0.00  0.00    -0.322 N 
ATOM     23  C   UNL d   1      23.000 -18.526  -0.127  0.00  0.00     0.265 C 
ATOM     24  O   UNL d   1      23.520 -18.532   0.987  0.00  0.00    -0.267 OA
ATOM     25  H   UNL d   1      23.061 -17.739  -2.056  0.00  0.00     0.169 HD
BRANCH  23  26
ATOM     26  C   UNL d   1      21.646 -18.993  -0.274  0.00  0.00     0.106 A 
ATOM     27  C   UNL d   1      20.870 -18.966  -1.420  0.00  0.00     0.160 A 
ATOM     28  N   UNL d   1      19.544 -19.325  -1.255  0.00  0.00    -0.181 NA
ATOM     29  N   UNL d   1      19.278 -19.602   0.012  0.00  0.00    -0.037 NA
ATOM     30  S   UNL d   1      20.624 -19.453   1.009  0.00  0.00     0.009 SA
ENDBRANCH  23  26
ENDBRANCH   1  22
TORSDOF 5
ENDMDL
MODEL 3
REMARK VINA RESULT:   -31.528      2.039      2.669
REMARK INTER + INTRA:         -33.786
REMARK INTER:                 -33.020
REMARK INTRA:                  -0.766
REMARK CONF_INDEPENDENT:        1.492
REMARK UNBOUND:                -0.766
REMARK  5 active torsions:
REMARK  status: ('A' for Active; 'I' for Inactive)
REMARK       I    between atoms: C_2  and  N_3 
REMARK    1  A    between atoms: C_2  and  C_24 
REMARK    2  A    between atoms: N_3  and  C_4 
REMARK    3  A    between atoms: C_7  and  N_8 
REMARK    4  A    between atoms: N_8  and  S_9 
REMARK    5  A    between atoms: S_9  and  C_12 
ROOT
ATOM      1  C   UNL d   1      24.870 -17.289  -1.216  0.00  0.00     0.035 A 
ATOM      2  C   UNL d   1      25.245 -16.223  -2.040  0.00  0.00     0.032 A 
ATOM      3  C   UNL d   1      26.568 -15.715  -1.998  0.00  0.00     0.032 A 
ATOM      4  C   UNL d   1      27.516 -16.250  -1.113  0.00  0.00     0.042 A 
ATOM      5  C   UNL d   1      27.130 -17.333  -0.327  0.00  0.00     0.032 A 
ATOM      6  C   UNL d   1      25.828 -17.835  -0.366  0.00  0.00     0.032 A 
ENDROOT
BRANCH   4   7
ATOM      7  N   UNL d   1      28.860 -15.738  -1.092  0.00  0.00    -0.281 N 
ATOM      8  H   UNL d   1      29.047 -14.876  -0.583  0.00  0.00     0.179 HD
BRANCH   7   9
ATOM      9  S   UNL d   1      30.189 -16.768  -1.395  0.00  0.00     0.263 S 
ATOM     10  O   UNL d   1      31.381 -16.093  -0.851  0.00  0.00    -0.200 OA
ATOM     11  O   UNL d   1      29.861 -18.097  -1.017  0.00  0.00    -0.200 OA
BRANCH   9  12
ATOM     12  C   UNL d   1      30.348 -16.658  -3.159  0.00  0.00     0.082 C 
ATOM     13  C   UNL d   1      29.847 -15.720  -4.077  0.00  0.00     0.028 C 
ATOM     14  C   UNL d   1      29.840 -16.034  -5.534  0.00  0.00     0.041 C 
ATOM     15  C   UNL d   1      30.292 -17.309  -5.995  0.00  0.00     0.102 C 
ATOM     16  C   UNL d   1      30.551 -18.121  -4.943  0.00  0.00     0.103 C 
ATOM     17  O   UNL d   1      30.438 -18.030  -7.199  0.00  0.00    -0.346 OA
ATOM     18  C   UNL d   1      30.792 -17.836  -3.644  0.00  0.00     0.065 C 
ATOM     19  O   UNL d   1      30.030 -19.381  -5.018  0.00  0.00    -0.346 OA
ATOM     20  C   UNL d   1      31.083 -20.056  -5.617  0.00  0.00     0.202 C 
ATOM     21  C   UNL d   1      30.933 -19.576  -7.058  0.00  0.00     0.202 C 
ENDBRANCH   9  12
ENDBRANCH   7   9
ENDBRANCH   4   7
BRANCH   1  22
ATOM     22  N   UNL d   1      23.561 -17.839  -1.253  0.00  0.00    -0.322 N 
ATOM     23  C   UNL d   1      23.012 -18.488  -0.142  0.00  0.00     0.265 C 
ATOM     24  O   UNL d   1      23.604 -18.574   0.932  0.00  0.00    -0.267 OA
ATOM     25  H   UNL d   1      22.947 -17.557  -2.007  0.00  0.00     0.169 HD
BRANCH  23  26
ATOM     26  C   UNL d   1      21.653 -18.952  -0.237  0.00  0.00     0.106 A 
ATOM     27  C   UNL d   1      20.855 -18.987  -1.367  0.00  0.00     0.160 A 
ATOM     28  N   UNL d   1      19.531 -19.324  -1.156  0.00  0.00    -0.181 NA
ATOM     29  N   UNL d   1      19.286 -19.523   0.129  0.00  0.00    -0.037 NA
ATOM     30  S   UNL d   1      20.652 -19.325   1.091  0.00  0.00     0.009 SA
ENDBRANCH  23  26
ENDBRANCH   1  22
TORSDOF 5
ENDMDL
MODEL 4
REMARK VINA RESULT:   -31.370      1.352      2.269
REMARK INTER + INTRA:         -33.653
REMARK INTER:                 -32.862
REMARK INTRA:                  -0.791
REMARK CONF_INDEPENDENT:        1.492
REMARK UNBOUND:                -0.791
REMARK  5 active torsions:
REMARK  status: ('A' for Active; 'I' for Inactive)
REMARK       I    between atoms: C_2  and  N_3 
REMARK    1  A    between atoms: C_2  and  C_24 
REMARK    2  A    between atoms: N_3  and  C_4 
REMARK    3  A    between atoms: C_7  and  N_8 
REMARK    4  A    between atoms: N_8  and  S_9 
REMARK    5  A    between atoms: S_9  and  C_12 
ROOT
ATOM      1  C   UNL d   1      24.903 -17.247  -0.040  0.00  0.00     0.035 A 
ATOM      2  C   UNL d   1      25.877 -18.201   0.274  0.00  0.00     0.032 A 
ATOM      3  C   UNL d   1      27.236 -17.821   0.409  0.00  0.00     0.032 A 
ATOM      4  C   UNL d   1      27.635 -16.491   0.203  0.00  0.00     0.042 A 
ATOM      5  C   UNL d   1      26.644 -15.554  -0.074  0.00  0.00     0.032 A 
ATOM      6  C   UNL d   1      25.305 -15.926  -0.208  0.00  0.00     0.032 A 
ENDROOT
BRANCH   4   7
ATOM      7  N   UNL d   1      29.014 -16.115   0.360  0.00  0.00    -0.281 N 
ATOM      8  H   UNL d   1      29.336 -15.805   1.275  0.00  0.00     0.179 HD
BRANCH   7   9
ATOM      9  S   UNL d   1      30.200 -16.683  -0.731  0.00  0.00     0.263 S 
ATOM     10  O   UNL d   1      31.462 -16.009  -0.375  0.00  0.00    -0.200 OA
ATOM     11  O   UNL d   1      30.125 -18.097  -0.827  0.00  0.00    -0.200 OA
BRANCH   9  12
ATOM     12  C   UNL d   1      29.683 -15.940  -2.258  0.00  0.00     0.082 C 
ATOM     13  C   UNL d   1      28.494 -15.280  -2.611  0.00  0.00     0.028 C 
ATOM     14  C   UNL d   1      28.173 -15.043  -4.047  0.00  0.00     0.041 C 
ATOM     15  C   UNL d   1      29.045 -15.531  -5.068  0.00  0.00     0.102 C 
ATOM     16  C   UNL d   1      30.022 -16.293  -4.522  0.00  0.00     0.103 C 
ATOM     17  O   UNL d   1      29.140 -15.574  -6.475  0.00  0.00    -0.346 OA
ATOM     18  C   UNL d   1      30.491 -16.356  -3.256  0.00  0.00     0.065 C 
ATOM     19  O   UNL d   1      30.252 -17.496  -5.126  0.00  0.00    -0.346 OA
ATOM     20  C   UNL d   1      31.234 -17.138  -6.038  0.00  0.00     0.202 C 
ATOM     21  C   UNL d   1      30.388 -16.424  -7.088  0.00  0.00     0.202 C 
ENDBRANCH   9  12
ENDBRANCH   7   9
ENDBRANCH   4   7
BRANCH   1  22
ATOM     22  N   UNL d   1      23.530 -17.590  -0.156  0.00  0.00    -0.322 N 
ATOM     23  C   UNL d   1      23.125 -18.906  -0.400  0.00  0.00     0.265 C 
ATOM     24  O   UNL d   1      23.923 -19.838  -0.477  0.00  0.00    -0.267 OA
ATOM     25  H   UNL d   1      22.842 -16.920   0.167  0.00  0.00     0.169 HD
BRANCH  23  26
ATOM     26  C   UNL d   1      21.713 -19.183  -0.429  0.00  0.00     0.106 A 
ATOM     27  C   UNL d   1      20.881 -19.182  -1.535  0.00  0.00     0.160 A 
ATOM     28  N   UNL d   1      19.530 -19.318  -1.269  0.00  0.00    -0.181 NA
ATOM     29  N   UNL d   1      19.305 -19.397   0.033  0.00  0.00    -0.037 NA
ATOM     30  S   UNL d   1      20.716 -19.327   0.945  0.00  0.00     0.009 SA
ENDBRANCH  23  26
ENDBRANCH   1  22
TORSDOF 5
ENDMDL
MODEL 5
REMARK VINA RESULT:   -31.296      1.649      1.892
REMARK INTER + INTRA:         -33.899
REMARK INTER:                 -32.787
REMARK INTRA:                  -1.112
REMARK CONF_INDEPENDENT:        1.492
REMARK UNBOUND:                -1.112
REMARK  5 active torsions:
REMARK  status: ('A' for Active; 'I' for Inactive)
REMARK       I    between atoms: C_2  and  N_3 
REMARK    1  A    between atoms: C_2  and  C_24 
REMARK    2  A    between atoms: N_3  and  C_4 
REMARK    3  A    between atoms: C_7  and  N_8 
REMARK    4  A    between atoms: N_8  and  S_9 
REMARK    5  A    between atoms: S_9  and  C_12 
ROOT
ATOM      1  C   UNL d   1      24.907 -17.246  -0.059  0.00  0.00     0.035 A 
ATOM      2  C   UNL d   1      25.349 -15.925  -0.188  0.00  0.00     0.032 A 
ATOM      3  C   UNL d   1      26.730 -15.619  -0.102  0.00  0.00     0.032 A 
ATOM      4  C   UNL d   1      27.677 -16.626   0.142  0.00  0.00     0.042 A 
ATOM      5  C   UNL d   1      27.218 -17.937   0.233  0.00  0.00     0.032 A 
ATOM      6  C   UNL d   1      25.858 -18.241   0.148  0.00  0.00     0.032 A 
ENDROOT
BRANCH   4   7
ATOM      7  N   UNL d   1      29.076 -16.304   0.210  0.00  0.00    -0.281 N 
ATOM      8  H   UNL d   1      29.599 -16.564   1.044  0.00  0.00     0.179 HD
BRANCH   7   9
ATOM      9  S   UNL d   1      29.975 -16.027  -1.217  0.00  0.00     0.263 S 
ATOM     10  O   UNL d   1      31.286 -15.499  -0.796  0.00  0.00    -0.200 OA
ATOM     11  O   UNL d   1      29.879 -17.156  -2.071  0.00  0.00    -0.200 OA
BRANCH   9  12
ATOM     12  C   UNL d   1      29.119 -14.647  -1.932  0.00  0.00     0.082 C 
ATOM     13  C   UNL d   1      29.023 -13.305  -1.526  0.00  0.00     0.028 C 
ATOM     14  C   UNL d   1      27.974 -12.423  -2.111  0.00  0.00     0.041 C 
ATOM     15  C   UNL d   1      27.031 -12.952  -3.044  0.00  0.00     0.102 C 
ATOM     16  C   UNL d   1      27.182 -14.293  -3.151  0.00  0.00     0.103 C 
ATOM     17  O   UNL d   1      25.911 -12.539  -3.797  0.00  0.00    -0.346 OA
ATOM     18  C   UNL d   1      28.225 -15.094  -2.838  0.00  0.00     0.065 C 
ATOM     19  O   UNL d   1      26.035 -15.032  -3.079  0.00  0.00    -0.346 OA
ATOM     20  C   UNL d   1      25.696 -15.105  -4.421  0.00  0.00     0.202 C 
ATOM     21  C   UNL d   1      25.141 -13.701  -4.641  0.00  0.00     0.202 C 
ENDBRANCH   9  12
ENDBRANCH   7   9
ENDBRANCH   4   7
BRANCH   1  22
ATOM     22  N   UNL d   1      23.534 -17.591  -0.167  0.00  0.00    -0.322 N 
ATOM     23  C   UNL d   1      23.131 -18.905  -0.422  0.00  0.00     0.265 C 
ATOM     24  O   UNL d   1      23.930 -19.835  -0.514  0.00  0.00    -0.267 OA
ATOM     25  H   UNL d   1      22.848 -16.925   0.167  0.00  0.00     0.169 HD
BRANCH  23  26
ATOM     26  C   UNL d   1      21.719 -19.185  -0.443  0.00  0.00     0.106 A 
ATOM     27  C   UNL d   1      20.880 -19.184  -1.544  0.00  0.00     0.160 A 
ATOM     28  N   UNL d   1      19.531 -19.324  -1.270  0.00  0.00    -0.181 NA
ATOM     29  N   UNL d   1      19.314 -19.404   0.033  0.00  0.00    -0.037 NA
ATOM     30  S   UNL d   1      20.730 -19.332   0.937  0.00  0.00     0.009 SA
ENDBRANCH  23  26
ENDBRANCH   1  22
TORSDOF 5
ENDMDL
MODEL 6
REMARK VINA RESULT:   -31.088      1.404      1.693
REMARK INTER + INTRA:         -33.383
REMARK INTER:                 -32.580
REMARK INTRA:                  -0.803
REMARK CONF_INDEPENDENT:        1.492
REMARK UNBOUND:                -0.803
REMARK  5 active torsions:
REMARK  status: ('A' for Active; 'I' for Inactive)
REMARK       I    between atoms: C_2  and  N_3 
REMARK    1  A    between atoms: C_2  and  C_24 
REMARK    2  A    between atoms: N_3  and  C_4 
REMARK    3  A    between atoms: C_7  and  N_8 
REMARK    4  A    between atoms: N_8  and  S_9 
REMARK    5  A    between atoms: S_9  and  C_12 
ROOT
ATOM      1  C   UNL d   1      24.999 -17.635  -1.195  0.00  0.00     0.035 A 
ATOM      2  C   UNL d   1      25.461 -16.653  -2.078  0.00  0.00     0.032 A 
ATOM      3  C   UNL d   1      26.792 -16.175  -1.987  0.00  0.00     0.032 A 
ATOM      4  C   UNL d   1      27.663 -16.655  -0.995  0.00  0.00     0.042 A 
ATOM      5  C   UNL d   1      27.193 -17.656  -0.151  0.00  0.00     0.032 A 
ATOM      6  C   UNL d   1      25.881 -18.129  -0.238  0.00  0.00     0.032 A 
ENDROOT
BRANCH   4   7
ATOM      7  N   UNL d   1      29.016 -16.175  -0.924  0.00  0.00    -0.281 N 
ATOM      8  H   UNL d   1      29.231 -15.408  -0.290  0.00  0.00     0.179 HD
BRANCH   7   9
ATOM      9  S   UNL d   1      30.318 -17.166  -1.416  0.00  0.00     0.263 S 
ATOM     10  O   UNL d   1      31.552 -16.392  -1.187  0.00  0.00    -0.200 OA
ATOM     11  O   UNL d   1      30.158 -18.469  -0.877  0.00  0.00    -0.200 OA
BRANCH   9  12
ATOM     12  C   UNL d   1      30.107 -17.206  -3.178  0.00  0.00     0.082 C 
ATOM     13  C   UNL d   1      30.726 -17.990  -4.167  0.00  0.00     0.028 C 
ATOM     14  C   UNL d   1      30.617 -17.600  -5.602  0.00  0.00     0.041 C 
ATOM     15  C   UNL d   1      29.930 -16.402  -5.970  0.00  0.00     0.102 C 
ATOM     16  C   UNL d   1      29.578 -15.707  -4.862  0.00  0.00     0.103 C 
ATOM     17  O   UNL d   1      29.611 -15.653  -7.122  0.00  0.00    -0.346 OA
ATOM     18  C   UNL d   1      29.444 -16.101  -3.576  0.00  0.00     0.065 C 
ATOM     19  O   UNL d   1      29.866 -14.372  -4.876  0.00  0.00    -0.346 OA
ATOM     20  C   UNL d   1      28.687 -13.864  -5.400  0.00  0.00     0.202 C 
ATOM     21  C   UNL d   1      28.859 -14.229  -6.871  0.00  0.00     0.202 C 
ENDBRANCH   9  12
ENDBRANCH   7   9
ENDBRANCH   4   7
BRANCH   1  22
ATOM     22  N   UNL d   1      23.680 -18.155  -1.277  0.00  0.00    -0.322 N 
ATOM     23  C   UNL d   1      23.013 -18.628  -0.143  0.00  0.00     0.265 C 
ATOM     24  O   UNL d   1      23.504 -18.575   0.983  0.00  0.00    -0.267 OA
ATOM     25  H   UNL d   1      23.146 -17.968  -2.116  0.00  0.00     0.169 HD
BRANCH  23  26
ATOM     26  C   UNL d   1      21.651 -19.069  -0.298  0.00  0.00     0.106 A 
ATOM     27  C   UNL d   1      20.864 -18.977  -1.432  0.00  0.00     0.160 A 
ATOM     28  N   UNL d   1      19.535 -19.325  -1.270  0.00  0.00    -0.181 NA
ATOM     29  N   UNL d   1      19.278 -19.660  -0.016  0.00  0.00    -0.037 NA
ATOM     30  S   UNL d   1      20.636 -19.577   0.973  0.00  0.00     0.009 SA
ENDBRANCH  23  26
ENDBRANCH   1  22
TORSDOF 5
ENDMDL
MODEL 7
REMARK VINA RESULT:   -30.902      1.731      2.528
REMARK INTER + INTRA:         -33.533
REMARK INTER:                 -32.393
REMARK INTRA:                  -1.140
REMARK CONF_INDEPENDENT:        1.492
REMARK UNBOUND:                -1.140
REMARK  5 active torsions:
REMARK  status: ('A' for Active; 'I' for Inactive)
REMARK       I    between atoms: C_2  and  N_3 
REMARK    1  A    between atoms: C_2  and  C_24 
REMARK    2  A    between atoms: N_3  and  C_4 
REMARK    3  A    between atoms: C_7  and  N_8 
REMARK    4  A    between atoms: N_8  and  S_9 
REMARK    5  A    between atoms: S_9  and  C_12 
ROOT
ATOM      1  C   UNL d   1      25.280 -17.727  -0.424  0.00  0.00     0.035 A 
ATOM      2  C   UNL d   1      26.224 -17.780   0.607  0.00  0.00     0.032 A 
ATOM      3  C   UNL d   1      27.432 -17.045   0.512  0.00  0.00     0.032 A 
ATOM      4  C   UNL d   1      27.718 -16.273  -0.625  0.00  0.00     0.042 A 
ATOM      5  C   UNL d   1      26.749 -16.208  -1.623  0.00  0.00     0.032 A 
ATOM      6  C   UNL d   1      25.558 -16.932  -1.532  0.00  0.00     0.032 A 
ENDROOT
BRANCH   4   7
ATOM      7  N   UNL d   1      28.939 -15.518  -0.701  0.00  0.00    -0.281 N 
ATOM      8  H   UNL d   1      29.809 -16.012  -0.890  0.00  0.00     0.179 HD
BRANCH   7   9
ATOM      9  S   UNL d   1      28.906 -13.842  -1.034  0.00  0.00     0.263 S 
ATOM     10  O   UNL d   1      27.689 -13.307  -0.396  0.00  0.00    -0.200 OA
ATOM     11  O   UNL d   1      30.181 -13.277  -0.774  0.00  0.00    -0.200 OA
BRANCH   9  12
ATOM     12  C   UNL d   1      28.573 -13.819  -2.778  0.00  0.00     0.082 C 
ATOM     13  C   UNL d   1      27.416 -13.469  -3.495  0.00  0.00     0.028 C 
ATOM     14  C   UNL d   1      27.285 -13.853  -4.929  0.00  0.00     0.041 C 
ATOM     15  C   UNL d   1      28.309 -14.621  -5.563  0.00  0.00     0.102 C 
ATOM     16  C   UNL d   1      29.234 -15.007  -4.652  0.00  0.00     0.103 C 
ATOM     17  O   UNL d   1      28.599 -15.209  -6.812  0.00  0.00    -0.346 OA
ATOM     18  C   UNL d   1      29.527 -14.518  -3.427  0.00  0.00     0.065 C 
ATOM     19  O   UNL d   1      29.596 -16.324  -4.688  0.00  0.00    -0.346 OA
ATOM     20  C   UNL d   1      30.678 -16.266  -5.554  0.00  0.00     0.202 C 
ATOM     21  C   UNL d   1      29.954 -16.111  -6.888  0.00  0.00     0.202 C 
ENDBRANCH   9  12
ENDBRANCH   7   9
ENDBRANCH   4   7
BRANCH   1  22
ATOM     22  N   UNL d   1      24.048 -18.430  -0.349  0.00  0.00    -0.322 N 
ATOM     23  C   UNL d   1      22.829 -17.753  -0.246  0.00  0.00     0.265 C 
ATOM     24  O   UNL d   1      22.750 -16.526  -0.267  0.00  0.00    -0.267 OA
ATOM     25  H   UNL d   1      24.043 -19.411  -0.600  0.00  0.00     0.169 HD
BRANCH  23  26
ATOM     26  C   UNL d   1      21.621 -18.536  -0.250  0.00  0.00     0.106 A 
ATOM     27  C   UNL d   1      20.686 -18.631  -1.266  0.00  0.00     0.160 A 
ATOM     28  N   UNL d   1      19.530 -19.323  -0.954  0.00  0.00    -0.181 NA
ATOM     29  N   UNL d   1      19.547 -19.743   0.301  0.00  0.00    -0.037 NA
ATOM     30  S   UNL d   1      20.962 -19.324   1.109  0.00  0.00     0.009 SA
ENDBRANCH  23  26
ENDBRANCH   1  22
TORSDOF 5
ENDMDL
MODEL 8
REMARK VINA RESULT:   -30.789      3.316      5.240
REMARK INTER + INTRA:         -33.320
REMARK INTER:                 -32.281
REMARK INTRA:                  -1.040
REMARK CONF_INDEPENDENT:        1.492
REMARK UNBOUND:                -1.040
REMARK  5 active torsions:
REMARK  status: ('A' for Active; 'I' for Inactive)
REMARK       I    between atoms: C_2  and  N_3 
REMARK    1  A    between atoms: C_2  and  C_24 
REMARK    2  A    between atoms: N_3  and  C_4 
REMARK    3  A    between atoms: C_7  and  N_8 
REMARK    4  A    between atoms: N_8  and  S_9 
REMARK    5  A    between atoms: S_9  and  C_12 
ROOT
ATOM      1  C   UNL d   1      25.339 -17.626  -0.558  0.00  0.00     0.035 A 
ATOM      2  C   UNL d   1      26.424 -17.908   0.279  0.00  0.00     0.032 A 
ATOM      3  C   UNL d   1      27.618 -17.152   0.185  0.00  0.00     0.032 A 
ATOM      4  C   UNL d   1      27.748 -16.126  -0.765  0.00  0.00     0.042 A 
ATOM      5  C   UNL d   1      26.644 -15.840  -1.563  0.00  0.00     0.032 A 
ATOM      6  C   UNL d   1      25.466 -16.584  -1.473  0.00  0.00     0.032 A 
ENDROOT
BRANCH   4   7
ATOM      7  N   UNL d   1      28.959 -15.355  -0.838  0.00  0.00    -0.281 N 
ATOM      8  H   UNL d   1      29.698 -15.663  -1.467  0.00  0.00     0.179 HD
BRANCH   7   9
ATOM      9  S   UNL d   1      28.975 -13.713  -0.362  0.00  0.00     0.263 S 
ATOM     10  O   UNL d   1      29.986 -13.040  -1.198  0.00  0.00    -0.200 OA
ATOM     11  O   UNL d   1      27.645 -13.225  -0.283  0.00  0.00    -0.200 OA
BRANCH   9  12
ATOM     12  C   UNL d   1      29.689 -13.806   1.260  0.00  0.00     0.082 C 
ATOM     13  C   UNL d   1      30.943 -14.266   1.695  0.00  0.00     0.028 C 
ATOM     14  C   UNL d   1      31.173 -14.548   3.140  0.00  0.00     0.041 C 
ATOM     15  C   UNL d   1      30.105 -14.402   4.078  0.00  0.00     0.102 C 
ATOM     16  C   UNL d   1      28.947 -14.136   3.429  0.00  0.00     0.103 C 
ATOM     17  O   UNL d   1      29.849 -14.570   5.456  0.00  0.00    -0.346 OA
ATOM     18  C   UNL d   1      28.720 -13.654   2.187  0.00  0.00     0.065 C 
ATOM     19  O   UNL d   1      27.863 -14.876   3.808  0.00  0.00    -0.346 OA
ATOM     20  C   UNL d   1      27.333 -14.061   4.797  0.00  0.00     0.202 C 
ATOM     21  C   UNL d   1      28.309 -14.340   5.936  0.00  0.00     0.202 C 
ENDBRANCH   9  12
ENDBRANCH   7   9
ENDBRANCH   4   7
BRANCH   1  22
ATOM     22  N   UNL d   1      24.119 -18.347  -0.471  0.00  0.00    -0.322 N 
ATOM     23  C   UNL d   1      22.903 -17.696  -0.236  0.00  0.00     0.265 C 
ATOM     24  O   UNL d   1      22.816 -16.473  -0.144  0.00  0.00    -0.267 OA
ATOM     25  H   UNL d   1      24.104 -19.302  -0.807  0.00  0.00     0.169 HD
BRANCH  23  26
ATOM     26  C   UNL d   1      21.703 -18.489  -0.236  0.00  0.00     0.106 A 
ATOM     27  C   UNL d   1      20.794 -18.635  -1.270  0.00  0.00     0.160 A 
ATOM     28  N   UNL d   1      19.636 -19.325  -0.958  0.00  0.00    -0.181 NA
ATOM     29  N   UNL d   1      19.625 -19.690   0.314  0.00  0.00    -0.037 NA
ATOM     30  S   UNL d   1      21.016 -19.225   1.139  0.00  0.00     0.009 SA
ENDBRANCH  23  26
ENDBRANCH   1  22
TORSDOF 5
ENDMDL
MODEL 9
REMARK VINA RESULT:   -30.290      1.912      2.387
REMARK INTER + INTRA:         -32.819
REMARK INTER:                 -31.782
REMARK INTRA:                  -1.037
REMARK CONF_INDEPENDENT:        1.492
REMARK UNBOUND:                -1.037
REMARK  5 active torsions:
REMARK  status: ('A' for Active; 'I' for Inactive)
REMARK       I    between atoms: C_2  and  N_3 
REMARK    1  A    between atoms: C_2  and  C_24 
REMARK    2  A    between atoms: N_3  and  C_4 
REMARK    3  A    between atoms: C_7  and  N_8 
REMARK    4  A    between atoms: N_8  and  S_9 
REMARK    5  A    between atoms: S_9  and  C_12 
ROOT
ATOM      1  C   UNL d   1      25.263 -17.529   0.111  0.00  0.00     0.035 A 
ATOM      2  C   UNL d   1      26.444 -18.229   0.380  0.00  0.00     0.032 A 
ATOM      3  C   UNL d   1      27.703 -17.592   0.240  0.00  0.00     0.032 A 
ATOM      4  C   UNL d   1      27.791 -16.260  -0.194  0.00  0.00     0.042 A 
ATOM      5  C   UNL d   1      26.602 -15.574  -0.421  0.00  0.00     0.032 A 
ATOM      6  C   UNL d   1      25.361 -16.199  -0.285  0.00  0.00     0.032 A 
ENDROOT
BRANCH   4   7
ATOM      7  N   UNL d   1      29.073 -15.620  -0.315  0.00  0.00    -0.281 N 
ATOM      8  H   UNL d   1      29.730 -15.691   0.460  0.00  0.00     0.179 HD
BRANCH   7   9
ATOM      9  S   UNL d   1      29.718 -15.249  -1.852  0.00  0.00     0.263 S 
ATOM     10  O   UNL d   1      30.440 -13.970  -1.712  0.00  0.00    -0.200 OA
ATOM     11  O   UNL d   1      30.355 -16.395  -2.395  0.00  0.00    -0.200 OA
BRANCH   9  12
ATOM     12  C   UNL d   1      28.257 -14.865  -2.784  0.00  0.00     0.082 C 
ATOM     13  C   UNL d   1      27.593 -15.575  -3.799  0.00  0.00     0.028 C 
ATOM     14  C   UNL d   1      26.582 -14.885  -4.650  0.00  0.00     0.041 C 
ATOM     15  C   UNL d   1      26.324 -13.492  -4.471  0.00  0.00     0.102 C 
ATOM     16  C   UNL d   1      27.196 -12.966  -3.579  0.00  0.00     0.103 C 
ATOM     17  O   UNL d   1      25.528 -12.464  -5.020  0.00  0.00    -0.346 OA
ATOM     18  C   UNL d   1      27.958 -13.558  -2.633  0.00  0.00     0.065 C 
ATOM     19  O   UNL d   1      27.800 -11.798  -3.949  0.00  0.00    -0.346 OA
ATOM     20  C   UNL d   1      26.914 -10.875  -3.415  0.00  0.00     0.202 C 
ATOM     21  C   UNL d   1      25.777 -10.966  -4.428  0.00  0.00     0.202 C 
ENDBRANCH   9  12
ENDBRANCH   7   9
ENDBRANCH   4   7
BRANCH   1  22
ATOM     22  N   UNL d   1      23.985 -18.129   0.267  0.00  0.00    -0.322 N 
ATOM     23  C   UNL d   1      22.923 -17.811  -0.584  0.00  0.00     0.265 C 
ATOM     24  O   UNL d   1      23.046 -17.043  -1.536  0.00  0.00    -0.267 OA
ATOM     25  H   UNL d   1      23.914 -18.954   0.851  0.00  0.00     0.169 HD
BRANCH  23  26
ATOM     26  C   UNL d   1      21.682 -18.519  -0.406  0.00  0.00     0.106 A 
ATOM     27  C   UNL d   1      20.713 -18.766  -1.363  0.00  0.00     0.160 A 
ATOM     28  N   UNL d   1      19.537 -19.325  -0.895  0.00  0.00    -0.181 NA
ATOM     29  N   UNL d   1      19.574 -19.487   0.418  0.00  0.00    -0.037 NA
ATOM     30  S   UNL d   1      21.029 -18.987   1.096  0.00  0.00     0.009 SA
ENDBRANCH  23  26
ENDBRANCH   1  22
TORSDOF 5
ENDMDL
