MODEL 1
REMARK VINA RESULT:    -7.225      0.000      0.000
REMARK INTER + INTRA:         -12.090
REMARK INTER:                  -9.313
REMARK INTRA:                  -2.777
REMARK CONF_INDEPENDENT:        2.088
REMARK UNBOUND:                -2.777
REMARK  7 active torsions:
REMARK  status: ('A' for Active; 'I' for Inactive)
REMARK       I    between atoms: C_2  and  N_4 
REMARK    1  A    between atoms: C_5  and  N_4 
REMARK    2  A    between atoms: C_6  and  O_7 
REMARK    3  A    between atoms: O_7  and  C_8 
REMARK    4  A    between atoms: C_28  and  C_29 
REMARK    5  A    between atoms: C_29  and  O_30 
REMARK    6  A    between atoms: C_31  and  O_32 
REMARK    7  A    between atoms: C_33  and  O_34 
ROOT
ATOM      1  C   UNL d   1      27.785 -12.201   0.814  0.00  0.00     0.072 C 
ATOM      2  C   UNL d   1      27.660 -11.013   1.521  0.00  0.00     0.037 C 
ATOM      3  C   UNL d   1      27.573 -11.069   2.919  0.00  0.00     0.011 C 
ATOM      4  C   UNL d   1      27.606 -12.296   3.628  0.00  0.00    -0.047 C 
ATOM      5  C   UNL d   1      27.567 -13.493   2.894  0.00  0.00    -0.049 C 
ATOM      6  C   UNL d   1      27.638 -13.424   1.482  0.00  0.00     0.044 C 
ATOM      7  C   UNL d   1      27.780 -14.828   3.580  0.00  0.00     0.039 C 
ATOM      8  C   UNL d   1      27.796 -14.860   5.116  0.00  0.00     0.010 C 
ATOM      9  C   UNL d   1      28.578 -13.634   5.641  0.00  0.00    -0.000 C 
ATOM     10  C   UNL d   1      27.778 -12.351   5.148  0.00  0.00     0.024 C 
ATOM     11  C   UNL d   1      28.313 -11.026   5.714  0.00  0.00     0.011 C 
ATOM     12  C   UNL d   1      28.388 -11.091   7.220  0.00  0.00     0.018 C 
ATOM     13  C   UNL d   1      29.232 -12.230   7.641  0.00  0.00     0.021 C 
ATOM     14  C   UNL d   1      29.245 -12.397   9.213  0.00  0.00     0.024 C 
ATOM     15  C   UNL d   1      30.600 -11.999   6.959  0.00  0.00     0.135 C 
ATOM     16  O   UNL d   1      30.927 -11.745   5.816  0.00  0.00    -0.297 OA
ATOM     17  C   UNL d   1      31.567 -12.597   7.811  0.00  0.00     0.079 C 
ATOM     18  C   UNL d   1      30.646 -14.010   7.496  0.00  0.00     0.013 C 
ATOM     19  C   UNL d   1      29.046 -13.626   7.129  0.00  0.00     0.006 C 
ENDROOT
BRANCH   1  20
ATOM     20  O   UNL d   1      28.212 -12.269  -0.494  0.00  0.00    -0.318 OA
BRANCH  20  21
ATOM     21  C   UNL d   1      27.168 -12.571  -1.461  0.00  0.00     0.292 C 
ATOM     22  C   UNL d   1      26.941 -11.526  -2.575  0.00  0.00     0.171 C 
ATOM     23  C   UNL d   1      25.750 -11.909  -3.445  0.00  0.00     0.177 C 
ATOM     24  C   UNL d   1      25.969 -13.273  -4.058  0.00  0.00     0.180 C 
ATOM     25  C   UNL d   1      26.450 -14.276  -2.995  0.00  0.00     0.179 C 
ATOM     26  O   UNL d   1      27.522 -13.783  -2.172  0.00  0.00    -0.349 OA
BRANCH  22  27
ATOM     27  N   UNL d   1      26.657 -10.217  -2.113  0.00  0.00    -0.349 N 
ATOM     28  C   UNL d   1      27.601  -9.297  -1.822  0.00  0.00     0.214 C 
ATOM     29  C   UNL d   1      29.038  -9.741  -1.592  0.00  0.00     0.117 C 
ATOM     30  O   UNL d   1      27.224  -8.177  -1.725  0.00  0.00    -0.274 OA
ATOM     31  H   UNL d   1      25.724  -9.815  -2.165  0.00  0.00     0.163 HD
ENDBRANCH  22  27
BRANCH  23  32
ATOM     32  O   UNL d   1      25.496 -10.941  -4.477  0.00  0.00    -0.391 OA
ATOM     33  H   UNL d   1      24.944 -11.345  -5.166  0.00  0.00     0.210 HD
ENDBRANCH  23  32
BRANCH  24  34
ATOM     34  O   UNL d   1      24.733 -13.696  -4.642  0.00  0.00    -0.390 OA
ATOM     35  H   UNL d   1      24.295 -12.921  -5.034  0.00  0.00     0.210 HD
ENDBRANCH  24  34
BRANCH  25  36
ATOM     36  C   UNL d   1      26.907 -15.565  -3.693  0.00  0.00     0.198 C 
BRANCH  36  37
ATOM     37  O   UNL d   1      26.644 -15.575  -5.089  0.00  0.00    -0.398 OA
ATOM     38  H   UNL d   1      25.722 -15.301  -5.234  0.00  0.00     0.209 HD
ENDBRANCH  36  37
ENDBRANCH  25  36
ENDBRANCH  20  21
ENDBRANCH   1  20
TORSDOF 7
ENDMDL
MODEL 2
REMARK VINA RESULT:    -7.022      4.543      7.372
REMARK INTER + INTRA:         -12.537
REMARK INTER:                  -9.110
REMARK INTRA:                  -3.427
REMARK CONF_INDEPENDENT:        2.088
REMARK UNBOUND:                -3.427
REMARK  7 active torsions:
REMARK  status: ('A' for Active; 'I' for Inactive)
REMARK       I    between atoms: C_2  and  N_4 
REMARK    1  A    between atoms: C_5  and  N_4 
REMARK    2  A    between atoms: C_6  and  O_7 
REMARK    3  A    between atoms: O_7  and  C_8 
REMARK    4  A    between atoms: C_28  and  C_29 
REMARK    5  A    between atoms: C_29  and  O_30 
REMARK    6  A    between atoms: C_31  and  O_32 
REMARK    7  A    between atoms: C_33  and  O_34 
ROOT
ATOM      1  C   UNL d   1      26.500 -12.280  -5.631  0.00  0.00     0.072 C 
ATOM      2  C   UNL d   1      25.305 -12.637  -5.020  0.00  0.00     0.037 C 
ATOM      3  C   UNL d   1      25.271 -13.800  -4.240  0.00  0.00     0.011 C 
ATOM      4  C   UNL d   1      26.412 -14.620  -4.056  0.00  0.00    -0.047 C 
ATOM      5  C   UNL d   1      27.565 -14.339  -4.808  0.00  0.00    -0.049 C 
ATOM      6  C   UNL d   1      27.583 -13.171  -5.608  0.00  0.00     0.044 C 
ATOM      7  C   UNL d   1      28.867 -15.062  -4.527  0.00  0.00     0.039 C 
ATOM      8  C   UNL d   1      28.836 -16.269  -3.578  0.00  0.00     0.010 C 
ATOM      9  C   UNL d   1      27.902 -15.955  -2.386  0.00  0.00    -0.000 C 
ATOM     10  C   UNL d   1      26.453 -15.731  -3.003  0.00  0.00     0.024 C 
ATOM     11  C   UNL d   1      25.345 -15.566  -1.951  0.00  0.00     0.011 C 
ATOM     12  C   UNL d   1      25.366 -16.724  -0.983  0.00  0.00     0.018 C 
ATOM     13  C   UNL d   1      26.695 -16.834  -0.345  0.00  0.00     0.021 C 
ATOM     14  C   UNL d   1      26.789 -18.101   0.594  0.00  0.00     0.024 C 
ATOM     15  C   UNL d   1      26.942 -15.460   0.321  0.00  0.00     0.135 C 
ATOM     16  O   UNL d   1      26.856 -14.314  -0.078  0.00  0.00    -0.297 OA
ATOM     17  C   UNL d   1      27.780 -15.714   1.440  0.00  0.00     0.079 C 
ATOM     18  C   UNL d   1      28.838 -16.316   0.231  0.00  0.00     0.013 C 
ATOM     19  C   UNL d   1      27.979 -16.856  -1.116  0.00  0.00     0.006 C 
ENDROOT
BRANCH   1  20
ATOM     20  O   UNL d   1      26.757 -11.022  -6.128  0.00  0.00    -0.318 OA
BRANCH  20  21
ATOM     21  C   UNL d   1      25.905  -9.970  -5.595  0.00  0.00     0.292 C 
ATOM     22  C   UNL d   1      26.187  -9.528  -4.143  0.00  0.00     0.171 C 
ATOM     23  C   UNL d   1      25.155  -8.509  -3.675  0.00  0.00     0.177 C 
ATOM     24  C   UNL d   1      25.159  -7.305  -4.588  0.00  0.00     0.180 C 
ATOM     25  C   UNL d   1      25.138  -7.741  -6.064  0.00  0.00     0.179 C 
ATOM     26  O   UNL d   1      26.095  -8.768  -6.380  0.00  0.00    -0.349 OA
BRANCH  22  27
ATOM     27  N   UNL d   1      26.141 -10.570  -3.185  0.00  0.00    -0.349 N 
ATOM     28  C   UNL d   1      27.231 -11.102  -2.592  0.00  0.00     0.214 C 
ATOM     29  C   UNL d   1      28.603 -10.886  -3.213  0.00  0.00     0.117 C 
ATOM     30  O   UNL d   1      27.031 -11.751  -1.621  0.00  0.00    -0.274 OA
ATOM     31  H   UNL d   1      25.275 -10.846  -2.727  0.00  0.00     0.163 HD
ENDBRANCH  22  27
BRANCH  23  32
ATOM     32  O   UNL d   1      25.375  -8.097  -2.316  0.00  0.00    -0.391 OA
ATOM     33  H   UNL d   1      24.781  -7.357  -2.105  0.00  0.00     0.210 HD
ENDBRANCH  23  32
BRANCH  24  34
ATOM     34  O   UNL d   1      24.013  -6.509  -4.271  0.00  0.00    -0.390 OA
ATOM     35  H   UNL d   1      23.846  -6.574  -3.316  0.00  0.00     0.210 HD
ENDBRANCH  24  34
BRANCH  25  36
ATOM     36  C   UNL d   1      25.404  -6.517  -6.952  0.00  0.00     0.198 C 
BRANCH  36  37
ATOM     37  O   UNL d   1      26.554  -6.657  -7.775  0.00  0.00    -0.398 OA
ATOM     38  H   UNL d   1      27.000  -7.490  -7.548  0.00  0.00     0.209 HD
ENDBRANCH  36  37
ENDBRANCH  25  36
ENDBRANCH  20  21
ENDBRANCH   1  20
TORSDOF 7
ENDMDL
MODEL 3
REMARK VINA RESULT:    -7.014      5.210      9.615
REMARK INTER + INTRA:         -11.844
REMARK INTER:                  -9.102
REMARK INTRA:                  -2.742
REMARK CONF_INDEPENDENT:        2.088
REMARK UNBOUND:                -2.742
REMARK  7 active torsions:
REMARK  status: ('A' for Active; 'I' for Inactive)
REMARK       I    between atoms: C_2  and  N_4 
REMARK    1  A    between atoms: C_5  and  N_4 
REMARK    2  A    between atoms: C_6  and  O_7 
REMARK    3  A    between atoms: O_7  and  C_8 
REMARK    4  A    between atoms: C_28  and  C_29 
REMARK    5  A    between atoms: C_29  and  O_30 
REMARK    6  A    between atoms: C_31  and  O_32 
REMARK    7  A    between atoms: C_33  and  O_34 
ROOT
ATOM      1  C   UNL d   1      25.112 -14.588  -3.369  0.00  0.00     0.072 C 
ATOM      2  C   UNL d   1      25.715 -15.577  -4.135  0.00  0.00     0.037 C 
ATOM      3  C   UNL d   1      26.665 -15.198  -5.094  0.00  0.00     0.011 C 
ATOM      4  C   UNL d   1      27.024 -13.843  -5.305  0.00  0.00    -0.047 C 
ATOM      5  C   UNL d   1      26.290 -12.846  -4.642  0.00  0.00    -0.049 C 
ATOM      6  C   UNL d   1      25.321 -13.240  -3.689  0.00  0.00     0.044 C 
ATOM      7  C   UNL d   1      26.739 -11.398  -4.686  0.00  0.00     0.039 C 
ATOM      8  C   UNL d   1      27.861 -11.015  -5.662  0.00  0.00     0.010 C 
ATOM      9  C   UNL d   1      28.946 -12.117  -5.646  0.00  0.00    -0.000 C 
ATOM     10  C   UNL d   1      28.237 -13.448  -6.152  0.00  0.00     0.024 C 
ATOM     11  C   UNL d   1      29.200 -14.627  -6.361  0.00  0.00     0.011 C 
ATOM     12  C   UNL d   1      30.336 -14.221  -7.269  0.00  0.00     0.018 C 
ATOM     13  C   UNL d   1      31.042 -13.049  -6.711  0.00  0.00     0.021 C 
ATOM     14  C   UNL d   1      32.169 -12.527  -7.687  0.00  0.00     0.024 C 
ATOM     15  C   UNL d   1      31.498 -13.482  -5.298  0.00  0.00     0.135 C 
ATOM     16  O   UNL d   1      30.923 -14.003  -4.362  0.00  0.00    -0.297 OA
ATOM     17  C   UNL d   1      32.680 -12.742  -5.024  0.00  0.00     0.079 C 
ATOM     18  C   UNL d   1      31.627 -11.405  -5.246  0.00  0.00     0.013 C 
ATOM     19  C   UNL d   1      30.342 -11.802  -6.264  0.00  0.00     0.006 C 
ENDROOT
BRANCH   1  20
ATOM     20  O   UNL d   1      24.438 -14.838  -2.194  0.00  0.00    -0.318 OA
BRANCH  20  21
ATOM     21  C   UNL d   1      24.400 -16.238  -1.799  0.00  0.00     0.292 C 
ATOM     22  C   UNL d   1      25.346 -16.653  -0.652  0.00  0.00     0.171 C 
ATOM     23  C   UNL d   1      25.289 -18.158  -0.419  0.00  0.00     0.177 C 
ATOM     24  C   UNL d   1      23.875 -18.584  -0.098  0.00  0.00     0.180 C 
ATOM     25  C   UNL d   1      22.880 -17.961  -1.092  0.00  0.00     0.179 C 
ATOM     26  O   UNL d   1      23.075 -16.551  -1.304  0.00  0.00    -0.349 OA
BRANCH  22  27
ATOM     27  N   UNL d   1      26.714 -16.364  -0.876  0.00  0.00    -0.349 N 
ATOM     28  C   UNL d   1      27.391 -15.380  -0.247  0.00  0.00     0.214 C 
ATOM     29  C   UNL d   1      26.623 -14.265   0.448  0.00  0.00     0.117 C 
ATOM     30  O   UNL d   1      28.573 -15.435  -0.316  0.00  0.00    -0.274 OA
ATOM     31  H   UNL d   1      27.329 -17.006  -1.370  0.00  0.00     0.163 HD
ENDBRANCH  22  27
BRANCH  23  32
ATOM     32  O   UNL d   1      26.180 -18.581   0.627  0.00  0.00    -0.391 OA
ATOM     33  H   UNL d   1      26.441 -19.504   0.472  0.00  0.00     0.210 HD
ENDBRANCH  23  32
BRANCH  24  34
ATOM     34  O   UNL d   1      23.824 -20.013  -0.147  0.00  0.00    -0.390 OA
ATOM     35  H   UNL d   1      22.996 -20.307   0.270  0.00  0.00     0.210 HD
ENDBRANCH  24  34
BRANCH  25  36
ATOM     36  C   UNL d   1      21.450 -18.198  -0.586  0.00  0.00     0.198 C 
BRANCH  36  37
ATOM     37  O   UNL d   1      21.223 -19.528  -0.141  0.00  0.00    -0.398 OA
ATOM     38  H   UNL d   1      21.811 -19.709   0.612  0.00  0.00     0.209 HD
ENDBRANCH  36  37
ENDBRANCH  25  36
ENDBRANCH  20  21
ENDBRANCH   1  20
TORSDOF 7
ENDMDL
MODEL 4
REMARK VINA RESULT:    -6.966      3.597      9.589
REMARK INTER + INTRA:         -11.945
REMARK INTER:                  -9.054
REMARK INTRA:                  -2.891
REMARK CONF_INDEPENDENT:        2.088
REMARK UNBOUND:                -2.891
REMARK  7 active torsions:
REMARK  status: ('A' for Active; 'I' for Inactive)
REMARK       I    between atoms: C_2  and  N_4 
REMARK    1  A    between atoms: C_5  and  N_4 
REMARK    2  A    between atoms: C_6  and  O_7 
REMARK    3  A    between atoms: O_7  and  C_8 
REMARK    4  A    between atoms: C_28  and  C_29 
REMARK    5  A    between atoms: C_29  and  O_30 
REMARK    6  A    between atoms: C_31  and  O_32 
REMARK    7  A    between atoms: C_33  and  O_34 
ROOT
ATOM      1  C   UNL d   1      29.005 -14.237   5.374  0.00  0.00     0.072 C 
ATOM      2  C   UNL d   1      27.812 -13.630   5.005  0.00  0.00     0.037 C 
ATOM      3  C   UNL d   1      27.567 -13.403   3.644  0.00  0.00     0.011 C 
ATOM      4  C   UNL d   1      28.495 -13.773   2.638  0.00  0.00    -0.047 C 
ATOM      5  C   UNL d   1      29.761 -14.235   3.035  0.00  0.00    -0.049 C 
ATOM      6  C   UNL d   1      30.005 -14.443   4.414  0.00  0.00     0.044 C 
ATOM      7  C   UNL d   1      30.727 -14.812   2.018  0.00  0.00     0.039 C 
ATOM      8  C   UNL d   1      30.390 -14.657   0.528  0.00  0.00     0.010 C 
ATOM      9  C   UNL d   1      28.877 -14.902   0.321  0.00  0.00    -0.000 C 
ATOM     10  C   UNL d   1      28.125 -13.773   1.152  0.00  0.00     0.024 C 
ATOM     11  C   UNL d   1      26.604 -13.750   0.940  0.00  0.00     0.011 C 
ATOM     12  C   UNL d   1      26.282 -13.665  -0.532  0.00  0.00     0.018 C 
ATOM     13  C   UNL d   1      26.904 -14.793  -1.258  0.00  0.00     0.021 C 
ATOM     14  C   UNL d   1      26.681 -14.678  -2.818  0.00  0.00     0.024 C 
ATOM     15  C   UNL d   1      26.360 -16.069  -0.574  0.00  0.00     0.135 C 
ATOM     16  O   UNL d   1      26.281 -16.420   0.587  0.00  0.00    -0.297 OA
ATOM     17  C   UNL d   1      26.349 -17.075  -1.577  0.00  0.00     0.079 C 
ATOM     18  C   UNL d   1      28.031 -16.740  -1.619  0.00  0.00     0.013 C 
ATOM     19  C   UNL d   1      28.351 -15.160  -1.124  0.00  0.00     0.006 C 
ENDROOT
BRANCH   1  20
ATOM     20  O   UNL d   1      29.218 -14.812   6.607  0.00  0.00    -0.318 OA
BRANCH  20  21
ATOM     21  C   UNL d   1      29.614 -13.882   7.654  0.00  0.00     0.292 C 
ATOM     22  C   UNL d   1      29.884 -12.427   7.213  0.00  0.00     0.171 C 
ATOM     23  C   UNL d   1      30.398 -11.592   8.380  0.00  0.00     0.177 C 
ATOM     24  C   UNL d   1      29.399 -11.608   9.513  0.00  0.00     0.180 C 
ATOM     25  C   UNL d   1      28.920 -13.043   9.797  0.00  0.00     0.179 C 
ATOM     26  O   UNL d   1      28.537 -13.772   8.617  0.00  0.00    -0.349 OA
BRANCH  22  27
ATOM     27  N   UNL d   1      30.860 -12.286   6.197  0.00  0.00    -0.349 N 
ATOM     28  C   UNL d   1      30.819 -11.339   5.235  0.00  0.00     0.214 C 
ATOM     29  C   UNL d   1      29.511 -10.616   4.949  0.00  0.00     0.117 C 
ATOM     30  O   UNL d   1      31.827 -11.160   4.638  0.00  0.00    -0.274 OA
ATOM     31  H   UNL d   1      31.762 -12.755   6.243  0.00  0.00     0.163 HD
ENDBRANCH  22  27
BRANCH  23  32
ATOM     32  O   UNL d   1      30.684 -10.238   7.995  0.00  0.00    -0.391 OA
ATOM     33  H   UNL d   1      30.903  -9.719   8.786  0.00  0.00     0.210 HD
ENDBRANCH  23  32
BRANCH  24  34
ATOM     34  O   UNL d   1      30.031 -11.040  10.665  0.00  0.00    -0.390 OA
ATOM     35  H   UNL d   1      29.351 -10.879  11.342  0.00  0.00     0.210 HD
ENDBRANCH  24  34
BRANCH  25  36
ATOM     36  C   UNL d   1      27.728 -12.992  10.763  0.00  0.00     0.198 C 
BRANCH  36  37
ATOM     37  O   UNL d   1      28.035 -12.377  12.006  0.00  0.00    -0.398 OA
ATOM     38  H   UNL d   1      28.279 -11.450  11.843  0.00  0.00     0.209 HD
ENDBRANCH  36  37
ENDBRANCH  25  36
ENDBRANCH  20  21
ENDBRANCH   1  20
TORSDOF 7
ENDMDL
MODEL 5
REMARK VINA RESULT:    -6.903      6.319      9.775
REMARK INTER + INTRA:         -11.838
REMARK INTER:                  -8.991
REMARK INTRA:                  -2.847
REMARK CONF_INDEPENDENT:        2.088
REMARK UNBOUND:                -2.847
REMARK  7 active torsions:
REMARK  status: ('A' for Active; 'I' for Inactive)
REMARK       I    between atoms: C_2  and  N_4 
REMARK    1  A    between atoms: C_5  and  N_4 
REMARK    2  A    between atoms: C_6  and  O_7 
REMARK    3  A    between atoms: O_7  and  C_8 
REMARK    4  A    between atoms: C_28  and  C_29 
REMARK    5  A    between atoms: C_29  and  O_30 
REMARK    6  A    between atoms: C_31  and  O_32 
REMARK    7  A    between atoms: C_33  and  O_34 
ROOT
ATOM      1  C   UNL d   1      25.514 -14.541  -3.976  0.00  0.00     0.072 C 
ATOM      2  C   UNL d   1      25.888 -15.465  -4.943  0.00  0.00     0.037 C 
ATOM      3  C   UNL d   1      27.020 -15.199  -5.725  0.00  0.00     0.011 C 
ATOM      4  C   UNL d   1      27.790 -14.021  -5.560  0.00  0.00    -0.047 C 
ATOM      5  C   UNL d   1      27.310 -13.023  -4.697  0.00  0.00    -0.049 C 
ATOM      6  C   UNL d   1      26.155 -13.295  -3.925  0.00  0.00     0.044 C 
ATOM      7  C   UNL d   1      28.170 -11.826  -4.342  0.00  0.00     0.039 C 
ATOM      8  C   UNL d   1      29.469 -11.608  -5.131  0.00  0.00     0.010 C 
ATOM      9  C   UNL d   1      30.166 -12.971  -5.350  0.00  0.00    -0.000 C 
ATOM     10  C   UNL d   1      29.163 -13.849  -6.217  0.00  0.00     0.024 C 
ATOM     11  C   UNL d   1      29.749 -15.193  -6.680  0.00  0.00     0.011 C 
ATOM     12  C   UNL d   1      31.059 -14.973  -7.397  0.00  0.00     0.018 C 
ATOM     13  C   UNL d   1      32.007 -14.252  -6.521  0.00  0.00     0.021 C 
ATOM     14  C   UNL d   1      33.352 -13.907  -7.274  0.00  0.00     0.024 C 
ATOM     15  C   UNL d   1      32.131 -15.122  -5.248  0.00  0.00     0.135 C 
ATOM     16  O   UNL d   1      31.313 -15.634  -4.508  0.00  0.00    -0.297 OA
ATOM     17  C   UNL d   1      33.434 -14.883  -4.737  0.00  0.00     0.079 C 
ATOM     18  C   UNL d   1      32.865 -13.267  -4.654  0.00  0.00     0.013 C 
ATOM     19  C   UNL d   1      31.659 -12.986  -5.799  0.00  0.00     0.006 C 
ENDROOT
BRANCH   1  20
ATOM     20  O   UNL d   1      24.654 -14.827  -2.940  0.00  0.00    -0.318 OA
BRANCH  20  21
ATOM     21  C   UNL d   1      25.274 -15.475  -1.794  0.00  0.00     0.292 C 
ATOM     22  C   UNL d   1      24.656 -16.817  -1.347  0.00  0.00     0.171 C 
ATOM     23  C   UNL d   1      25.324 -17.326  -0.075  0.00  0.00     0.177 C 
ATOM     24  C   UNL d   1      26.809 -17.492  -0.294  0.00  0.00     0.180 C 
ATOM     25  C   UNL d   1      27.400 -16.248  -0.982  0.00  0.00     0.179 C 
ATOM     26  O   UNL d   1      26.646 -15.801  -2.124  0.00  0.00    -0.349 OA
BRANCH  22  27
ATOM     27  N   UNL d   1      23.274 -16.765  -1.046  0.00  0.00    -0.349 N 
ATOM     28  C   UNL d   1      22.464 -17.844  -1.021  0.00  0.00     0.214 C 
ATOM     29  C   UNL d   1      22.904 -19.130  -1.705  0.00  0.00     0.117 C 
ATOM     30  O   UNL d   1      21.417 -17.697  -0.484  0.00  0.00    -0.274 OA
ATOM     31  H   UNL d   1      22.841 -15.943  -0.628  0.00  0.00     0.163 HD
ENDBRANCH  22  27
BRANCH  23  32
ATOM     32  O   UNL d   1      24.752 -18.563   0.382  0.00  0.00    -0.391 OA
ATOM     33  H   UNL d   1      25.218 -18.855   1.183  0.00  0.00     0.210 HD
ENDBRANCH  23  32
BRANCH  24  34
ATOM     34  O   UNL d   1      27.421 -17.713   0.981  0.00  0.00    -0.390 OA
ATOM     35  H   UNL d   1      28.145 -18.351   0.868  0.00  0.00     0.210 HD
ENDBRANCH  24  34
BRANCH  25  36
ATOM     36  C   UNL d   1      28.839 -16.554  -1.421  0.00  0.00     0.198 C 
BRANCH  36  37
ATOM     37  O   UNL d   1      29.449 -17.594  -0.670  0.00  0.00    -0.398 OA
ATOM     38  H   UNL d   1      29.187 -17.501   0.262  0.00  0.00     0.209 HD
ENDBRANCH  36  37
ENDBRANCH  25  36
ENDBRANCH  20  21
ENDBRANCH   1  20
TORSDOF 7
ENDMDL
MODEL 6
REMARK VINA RESULT:    -6.646      2.771      4.987
REMARK INTER + INTRA:         -12.232
REMARK INTER:                  -8.734
REMARK INTRA:                  -3.498
REMARK CONF_INDEPENDENT:        2.088
REMARK UNBOUND:                -3.498
REMARK  7 active torsions:
REMARK  status: ('A' for Active; 'I' for Inactive)
REMARK       I    between atoms: C_2  and  N_4 
REMARK    1  A    between atoms: C_5  and  N_4 
REMARK    2  A    between atoms: C_6  and  O_7 
REMARK    3  A    between atoms: O_7  and  C_8 
REMARK    4  A    between atoms: C_28  and  C_29 
REMARK    5  A    between atoms: C_29  and  O_30 
REMARK    6  A    between atoms: C_31  and  O_32 
REMARK    7  A    between atoms: C_33  and  O_34 
ROOT
ATOM      1  C   UNL d   1      25.871 -15.592  -3.250  0.00  0.00     0.072 C 
ATOM      2  C   UNL d   1      25.000 -15.294  -2.211  0.00  0.00     0.037 C 
ATOM      3  C   UNL d   1      25.531 -15.062  -0.934  0.00  0.00     0.011 C 
ATOM      4  C   UNL d   1      26.923 -15.123  -0.674  0.00  0.00    -0.047 C 
ATOM      5  C   UNL d   1      27.774 -15.585  -1.692  0.00  0.00    -0.049 C 
ATOM      6  C   UNL d   1      27.224 -15.834  -2.972  0.00  0.00     0.044 C 
ATOM      7  C   UNL d   1      29.280 -15.504  -1.537  0.00  0.00     0.039 C 
ATOM      8  C   UNL d   1      29.849 -15.137  -0.159  0.00  0.00     0.010 C 
ATOM      9  C   UNL d   1      28.988 -14.012   0.463  0.00  0.00    -0.000 C 
ATOM     10  C   UNL d   1      27.527 -14.616   0.639  0.00  0.00     0.024 C 
ATOM     11  C   UNL d   1      26.558 -13.696   1.398  0.00  0.00     0.011 C 
ATOM     12  C   UNL d   1      27.155 -13.286   2.722  0.00  0.00     0.018 C 
ATOM     13  C   UNL d   1      28.462 -12.628   2.513  0.00  0.00     0.021 C 
ATOM     14  C   UNL d   1      29.168 -12.283   3.884  0.00  0.00     0.024 C 
ATOM     15  C   UNL d   1      28.174 -11.440   1.566  0.00  0.00     0.135 C 
ATOM     16  O   UNL d   1      27.577 -11.344   0.510  0.00  0.00    -0.297 OA
ATOM     17  C   UNL d   1      29.144 -10.449   1.875  0.00  0.00     0.079 C 
ATOM     18  C   UNL d   1      30.235 -11.696   1.428  0.00  0.00     0.013 C 
ATOM     19  C   UNL d   1      29.557 -13.219   1.678  0.00  0.00     0.006 C 
ENDROOT
BRANCH   1  20
ATOM     20  O   UNL d   1      25.528 -15.507  -4.581  0.00  0.00    -0.318 OA
BRANCH  20  21
ATOM     21  C   UNL d   1      26.437 -14.714  -5.395  0.00  0.00     0.292 C 
ATOM     22  C   UNL d   1      26.918 -13.380  -4.785  0.00  0.00     0.171 C 
ATOM     23  C   UNL d   1      27.766 -12.601  -5.783  0.00  0.00     0.177 C 
ATOM     24  C   UNL d   1      28.956 -13.427  -6.215  0.00  0.00     0.180 C 
ATOM     25  C   UNL d   1      28.520 -14.856  -6.585  0.00  0.00     0.179 C 
ATOM     26  O   UNL d   1      27.653 -15.470  -5.614  0.00  0.00    -0.349 OA
BRANCH  22  27
ATOM     27  N   UNL d   1      25.882 -12.492  -4.405  0.00  0.00    -0.349 N 
ATOM     28  C   UNL d   1      25.963 -11.638  -3.363  0.00  0.00     0.214 C 
ATOM     29  C   UNL d   1      27.019 -11.860  -2.290  0.00  0.00     0.117 C 
ATOM     30  O   UNL d   1      25.156 -10.771  -3.337  0.00  0.00    -0.274 OA
ATOM     31  H   UNL d   1      25.091 -12.292  -5.013  0.00  0.00     0.163 HD
ENDBRANCH  22  27
BRANCH  23  32
ATOM     32  O   UNL d   1      28.209 -11.340  -5.254  0.00  0.00    -0.391 OA
ATOM     33  H   UNL d   1      29.047 -11.091  -5.677  0.00  0.00     0.210 HD
ENDBRANCH  23  32
BRANCH  24  34
ATOM     34  O   UNL d   1      29.566 -12.771  -7.331  0.00  0.00    -0.390 OA
ATOM     35  H   UNL d   1      29.595 -13.394  -8.077  0.00  0.00     0.210 HD
ENDBRANCH  24  34
BRANCH  25  36
ATOM     36  C   UNL d   1      29.770 -15.730  -6.764  0.00  0.00     0.198 C 
BRANCH  36  37
ATOM     37  O   UNL d   1      30.731 -15.167  -7.645  0.00  0.00    -0.398 OA
ATOM     38  H   UNL d   1      30.273 -14.582  -8.273  0.00  0.00     0.209 HD
ENDBRANCH  36  37
ENDBRANCH  25  36
ENDBRANCH  20  21
ENDBRANCH   1  20
TORSDOF 7
ENDMDL
MODEL 7
REMARK VINA RESULT:    -6.492      4.770      7.425
REMARK INTER + INTRA:         -11.742
REMARK INTER:                  -8.580
REMARK INTRA:                  -3.162
REMARK CONF_INDEPENDENT:        2.088
REMARK UNBOUND:                -3.162
REMARK  7 active torsions:
REMARK  status: ('A' for Active; 'I' for Inactive)
REMARK       I    between atoms: C_2  and  N_4 
REMARK    1  A    between atoms: C_5  and  N_4 
REMARK    2  A    between atoms: C_6  and  O_7 
REMARK    3  A    between atoms: O_7  and  C_8 
REMARK    4  A    between atoms: C_28  and  C_29 
REMARK    5  A    between atoms: C_29  and  O_30 
REMARK    6  A    between atoms: C_31  and  O_32 
REMARK    7  A    between atoms: C_33  and  O_34 
ROOT
ATOM      1  C   UNL d   1      26.777 -11.812  -5.595  0.00  0.00     0.072 C 
ATOM      2  C   UNL d   1      25.530 -12.202  -5.125  0.00  0.00     0.037 C 
ATOM      3  C   UNL d   1      25.415 -13.434  -4.465  0.00  0.00     0.011 C 
ATOM      4  C   UNL d   1      26.528 -14.288  -4.265  0.00  0.00    -0.047 C 
ATOM      5  C   UNL d   1      27.744 -13.958  -4.886  0.00  0.00    -0.049 C 
ATOM      6  C   UNL d   1      27.844 -12.720  -5.565  0.00  0.00     0.044 C 
ATOM      7  C   UNL d   1      29.010 -14.729  -4.566  0.00  0.00     0.039 C 
ATOM      8  C   UNL d   1      28.885 -16.020  -3.743  0.00  0.00     0.010 C 
ATOM      9  C   UNL d   1      27.855 -15.802  -2.611  0.00  0.00    -0.000 C 
ATOM     10  C   UNL d   1      26.467 -15.494  -3.324  0.00  0.00     0.024 C 
ATOM     11  C   UNL d   1      25.274 -15.409  -2.359  0.00  0.00     0.011 C 
ATOM     12  C   UNL d   1      25.199 -16.654  -1.509  0.00  0.00     0.018 C 
ATOM     13  C   UNL d   1      26.466 -16.848  -0.773  0.00  0.00     0.021 C 
ATOM     14  C   UNL d   1      26.466 -18.200   0.044  0.00  0.00     0.024 C 
ATOM     15  C   UNL d   1      26.670 -15.549   0.040  0.00  0.00     0.135 C 
ATOM     16  O   UNL d   1      26.630 -14.369  -0.253  0.00  0.00    -0.297 OA
ATOM     17  C   UNL d   1      27.405 -15.923   1.197  0.00  0.00     0.079 C 
ATOM     18  C   UNL d   1      28.557 -16.428   0.030  0.00  0.00     0.013 C 
ATOM     19  C   UNL d   1      27.812 -16.821  -1.431  0.00  0.00     0.006 C 
ENDROOT
BRANCH   1  20
ATOM     20  O   UNL d   1      27.088 -10.517  -5.945  0.00  0.00    -0.318 OA
BRANCH  20  21
ATOM     21  C   UNL d   1      27.063  -9.565  -4.845  0.00  0.00     0.292 C 
ATOM     22  C   UNL d   1      25.789  -8.704  -4.712  0.00  0.00     0.171 C 
ATOM     23  C   UNL d   1      25.942  -7.676  -3.597  0.00  0.00     0.177 C 
ATOM     24  C   UNL d   1      26.233  -8.367  -2.286  0.00  0.00     0.180 C 
ATOM     25  C   UNL d   1      27.338  -9.424  -2.461  0.00  0.00     0.179 C 
ATOM     26  O   UNL d   1      27.140 -10.290  -3.593  0.00  0.00    -0.349 OA
BRANCH  22  27
ATOM     27  N   UNL d   1      25.456  -7.953  -5.866  0.00  0.00    -0.349 N 
ATOM     28  C   UNL d   1      24.218  -7.485  -6.132  0.00  0.00     0.214 C 
ATOM     29  C   UNL d   1      23.019  -8.075  -5.405  0.00  0.00     0.117 C 
ATOM     30  O   UNL d   1      24.147  -6.647  -6.967  0.00  0.00    -0.274 OA
ATOM     31  H   UNL d   1      26.166  -7.541  -6.468  0.00  0.00     0.163 HD
ENDBRANCH  22  27
BRANCH  23  32
ATOM     32  O   UNL d   1      24.780  -6.840  -3.465  0.00  0.00    -0.391 OA
ATOM     33  H   UNL d   1      24.545  -6.763  -2.526  0.00  0.00     0.210 HD
ENDBRANCH  23  32
BRANCH  24  34
ATOM     34  O   UNL d   1      26.624  -7.368  -1.339  0.00  0.00    -0.390 OA
ATOM     35  H   UNL d   1      26.116  -6.558  -1.517  0.00  0.00     0.210 HD
ENDBRANCH  24  34
BRANCH  25  36
ATOM     36  C   UNL d   1      27.423 -10.277  -1.187  0.00  0.00     0.198 C 
BRANCH  36  37
ATOM     37  O   UNL d   1      27.164 -11.655  -1.413  0.00  0.00    -0.398 OA
ATOM     38  H   UNL d   1      26.963 -11.784  -2.355  0.00  0.00     0.209 HD
ENDBRANCH  36  37
ENDBRANCH  25  36
ENDBRANCH  20  21
ENDBRANCH   1  20
TORSDOF 7
ENDMDL
MODEL 8
REMARK VINA RESULT:    -6.402      6.053      9.986
REMARK INTER + INTRA:         -11.857
REMARK INTER:                  -8.490
REMARK INTRA:                  -3.366
REMARK CONF_INDEPENDENT:        2.088
REMARK UNBOUND:                -3.366
REMARK  7 active torsions:
REMARK  status: ('A' for Active; 'I' for Inactive)
REMARK       I    between atoms: C_2  and  N_4 
REMARK    1  A    between atoms: C_5  and  N_4 
REMARK    2  A    between atoms: C_6  and  O_7 
REMARK    3  A    between atoms: O_7  and  C_8 
REMARK    4  A    between atoms: C_28  and  C_29 
REMARK    5  A    between atoms: C_29  and  O_30 
REMARK    6  A    between atoms: C_31  and  O_32 
REMARK    7  A    between atoms: C_33  and  O_34 
ROOT
ATOM      1  C   UNL d   1      25.545 -14.482  -2.805  0.00  0.00     0.072 C 
ATOM      2  C   UNL d   1      25.893 -15.273  -3.892  0.00  0.00     0.037 C 
ATOM      3  C   UNL d   1      26.407 -14.651  -5.038  0.00  0.00     0.011 C 
ATOM      4  C   UNL d   1      26.579 -13.247  -5.121  0.00  0.00    -0.047 C 
ATOM      5  C   UNL d   1      26.072 -12.448  -4.082  0.00  0.00    -0.049 C 
ATOM      6  C   UNL d   1      25.539 -13.087  -2.937  0.00  0.00     0.044 C 
ATOM      7  C   UNL d   1      26.382 -10.965  -4.025  0.00  0.00     0.039 C 
ATOM      8  C   UNL d   1      27.050 -10.316  -5.246  0.00  0.00     0.010 C 
ATOM      9  C   UNL d   1      28.136 -11.270  -5.798  0.00  0.00    -0.000 C 
ATOM     10  C   UNL d   1      27.378 -12.592  -6.252  0.00  0.00     0.024 C 
ATOM     11  C   UNL d   1      28.273 -13.605  -6.983  0.00  0.00     0.011 C 
ATOM     12  C   UNL d   1      28.977 -12.941  -8.141  0.00  0.00     0.018 C 
ATOM     13  C   UNL d   1      29.762 -11.782  -7.666  0.00  0.00     0.021 C 
ATOM     14  C   UNL d   1      30.426 -10.995  -8.865  0.00  0.00     0.024 C 
ATOM     15  C   UNL d   1      30.723 -12.350  -6.596  0.00  0.00     0.135 C 
ATOM     16  O   UNL d   1      30.558 -13.063  -5.625  0.00  0.00    -0.297 OA
ATOM     17  C   UNL d   1      31.874 -11.517  -6.623  0.00  0.00     0.079 C 
ATOM     18  C   UNL d   1      30.730 -10.300  -6.231  0.00  0.00     0.013 C 
ATOM     19  C   UNL d   1      29.193 -10.704  -6.795  0.00  0.00     0.006 C 
ENDROOT
BRANCH   1  20
ATOM     20  O   UNL d   1      25.357 -14.974  -1.533  0.00  0.00    -0.318 OA
BRANCH  20  21
ATOM     21  C   UNL d   1      26.543 -15.557  -0.923  0.00  0.00     0.292 C 
ATOM     22  C   UNL d   1      26.533 -17.089  -0.732  0.00  0.00     0.171 C 
ATOM     23  C   UNL d   1      27.778 -17.551   0.017  0.00  0.00     0.177 C 
ATOM     24  C   UNL d   1      29.022 -17.135  -0.732  0.00  0.00     0.180 C 
ATOM     25  C   UNL d   1      28.932 -15.659  -1.160  0.00  0.00     0.179 C 
ATOM     26  O   UNL d   1      27.683 -15.309  -1.782  0.00  0.00    -0.349 OA
BRANCH  22  27
ATOM     27  N   UNL d   1      25.441 -17.587   0.020  0.00  0.00    -0.349 N 
ATOM     28  C   UNL d   1      24.322 -18.108  -0.526  0.00  0.00     0.214 C 
ATOM     29  C   UNL d   1      23.997 -17.826  -1.985  0.00  0.00     0.117 C 
ATOM     30  O   UNL d   1      23.630 -18.736   0.204  0.00  0.00    -0.274 OA
ATOM     31  H   UNL d   1      25.512 -17.775   1.018  0.00  0.00     0.163 HD
ENDBRANCH  22  27
BRANCH  23  32
ATOM     32  O   UNL d   1      27.786 -18.971   0.235  0.00  0.00    -0.391 OA
ATOM     33  H   UNL d   1      28.689 -19.258   0.450  0.00  0.00     0.210 HD
ENDBRANCH  23  32
BRANCH  24  34
ATOM     34  O   UNL d   1      30.146 -17.354   0.127  0.00  0.00    -0.390 OA
ATOM     35  H   UNL d   1      30.017 -18.195   0.597  0.00  0.00     0.210 HD
ENDBRANCH  24  34
BRANCH  25  36
ATOM     36  C   UNL d   1      30.080 -15.348  -2.131  0.00  0.00     0.198 C 
BRANCH  36  37
ATOM     37  O   UNL d   1      29.700 -14.488  -3.196  0.00  0.00    -0.398 OA
ATOM     38  H   UNL d   1      28.939 -13.955  -2.909  0.00  0.00     0.209 HD
ENDBRANCH  36  37
ENDBRANCH  25  36
ENDBRANCH  20  21
ENDBRANCH   1  20
TORSDOF 7
ENDMDL
MODEL 9
REMARK VINA RESULT:    -6.123      2.793      9.287
REMARK INTER + INTRA:         -11.753
REMARK INTER:                  -8.211
REMARK INTRA:                  -3.541
REMARK CONF_INDEPENDENT:        2.088
REMARK UNBOUND:                -3.541
REMARK  7 active torsions:
REMARK  status: ('A' for Active; 'I' for Inactive)
REMARK       I    between atoms: C_2  and  N_4 
REMARK    1  A    between atoms: C_5  and  N_4 
REMARK    2  A    between atoms: C_6  and  O_7 
REMARK    3  A    between atoms: O_7  and  C_8 
REMARK    4  A    between atoms: C_28  and  C_29 
REMARK    5  A    between atoms: C_29  and  O_30 
REMARK    6  A    between atoms: C_31  and  O_32 
REMARK    7  A    between atoms: C_33  and  O_34 
ROOT
ATOM      1  C   UNL d   1      27.019 -15.746  -0.023  0.00  0.00     0.072 C 
ATOM      2  C   UNL d   1      28.018 -16.427  -0.705  0.00  0.00     0.037 C 
ATOM      3  C   UNL d   1      28.103 -16.279  -2.097  0.00  0.00     0.011 C 
ATOM      4  C   UNL d   1      27.203 -15.461  -2.824  0.00  0.00    -0.047 C 
ATOM      5  C   UNL d   1      26.102 -14.912  -2.147  0.00  0.00    -0.049 C 
ATOM      6  C   UNL d   1      26.017 -15.082  -0.744  0.00  0.00     0.044 C 
ATOM      7  C   UNL d   1      25.210 -13.889  -2.823  0.00  0.00     0.039 C 
ATOM      8  C   UNL d   1      25.389 -13.652  -4.329  0.00  0.00     0.010 C 
ATOM      9  C   UNL d   1      26.899 -13.643  -4.666  0.00  0.00    -0.000 C 
ATOM     10  C   UNL d   1      27.448 -15.087  -4.289  0.00  0.00     0.024 C 
ATOM     11  C   UNL d   1      28.907 -15.328  -4.706  0.00  0.00     0.011 C 
ATOM     12  C   UNL d   1      29.089 -15.029  -6.174  0.00  0.00     0.018 C 
ATOM     13  C   UNL d   1      28.673 -13.641  -6.469  0.00  0.00     0.021 C 
ATOM     14  C   UNL d   1      28.745 -13.326  -8.015  0.00  0.00     0.024 C 
ATOM     15  C   UNL d   1      29.532 -12.752  -5.541  0.00  0.00     0.135 C 
ATOM     16  O   UNL d   1      29.776 -12.783  -4.350  0.00  0.00    -0.297 OA
ATOM     17  C   UNL d   1      29.685 -11.513  -6.219  0.00  0.00     0.079 C 
ATOM     18  C   UNL d   1      27.972 -11.501  -6.121  0.00  0.00     0.013 C 
ATOM     19  C   UNL d   1      27.356 -13.069  -6.041  0.00  0.00     0.006 C 
ENDROOT
BRANCH   1  20
ATOM     20  O   UNL d   1      27.031 -15.536   1.338  0.00  0.00    -0.318 OA
BRANCH  20  21
ATOM     21  C   UNL d   1      28.265 -14.963   1.855  0.00  0.00     0.292 C 
ATOM     22  C   UNL d   1      28.635 -13.554   1.342  0.00  0.00     0.171 C 
ATOM     23  C   UNL d   1      29.999 -13.125   1.871  0.00  0.00     0.177 C 
ATOM     24  C   UNL d   1      30.002 -13.138   3.381  0.00  0.00     0.180 C 
ATOM     25  C   UNL d   1      29.390 -14.446   3.915  0.00  0.00     0.179 C 
ATOM     26  O   UNL d   1      28.144 -14.803   3.290  0.00  0.00    -0.349 OA
BRANCH  22  27
ATOM     27  N   UNL d   1      28.730 -13.440  -0.066  0.00  0.00    -0.349 N 
ATOM     28  C   UNL d   1      28.340 -12.353  -0.765  0.00  0.00     0.214 C 
ATOM     29  C   UNL d   1      27.405 -11.341  -0.119  0.00  0.00     0.117 C 
ATOM     30  O   UNL d   1      28.734 -12.281  -1.880  0.00  0.00    -0.274 OA
ATOM     31  H   UNL d   1      29.286 -14.083  -0.625  0.00  0.00     0.163 HD
ENDBRANCH  22  27
BRANCH  23  32
ATOM     32  O   UNL d   1      30.385 -11.827   1.389  0.00  0.00    -0.391 OA
ATOM     33  H   UNL d   1      31.021 -11.432   2.008  0.00  0.00     0.210 HD
ENDBRANCH  23  32
BRANCH  24  34
ATOM     34  O   UNL d   1      31.355 -12.988   3.821  0.00  0.00    -0.390 OA
ATOM     35  H   UNL d   1      31.595 -13.765   4.354  0.00  0.00     0.210 HD
ENDBRANCH  24  34
BRANCH  25  36
ATOM     36  C   UNL d   1      29.171 -14.316   5.429  0.00  0.00     0.198 C 
BRANCH  36  37
ATOM     37  O   UNL d   1      30.348 -13.963   6.141  0.00  0.00    -0.398 OA
ATOM     38  H   UNL d   1      31.105 -14.007   5.533  0.00  0.00     0.209 HD
ENDBRANCH  36  37
ENDBRANCH  25  36
ENDBRANCH  20  21
ENDBRANCH   1  20
TORSDOF 7
ENDMDL
