MODEL 1
REMARK VINA RESULT:   -27.039      0.000      0.000
REMARK INTER + INTRA:         -28.429
REMARK INTER:                 -27.934
REMARK INTRA:                  -0.496
REMARK CONF_INDEPENDENT:        0.895
REMARK UNBOUND:                -0.496
REMARK  3 active torsions:
REMARK  status: ('A' for Active; 'I' for Inactive)
REMARK    1  A    between atoms: C_7  and  C_8 
REMARK       I    between atoms: C_8  and  N_10 
REMARK    2  A    between atoms: N_10  and  N_11 
REMARK    3  A    between atoms: N_11  and  C_12 
ROOT
ATOM      1  C   UNL d   1      25.078 -17.228   0.148  0.00  0.00     0.270 C 
ATOM      2  O   UNL d   1      25.937 -17.978   0.617  0.00  0.00    -0.266 OA
ATOM      3  N   UNL d   1      25.327 -15.877  -0.118  0.00  0.00    -0.265 N 
ATOM      4  H   UNL d   1      24.709 -15.311  -0.685  0.00  0.00     0.190 HD
ENDROOT
BRANCH   1   5
ATOM      5  C   UNL d   1      23.701 -17.767  -0.156  0.00  0.00     0.036 A 
ATOM      6  C   UNL d   1      23.093 -17.612  -1.402  0.00  0.00     0.019 A 
ATOM      7  C   UNL d   1      21.829 -18.166  -1.644  0.00  0.00     0.035 A 
ATOM      8  C   UNL d   1      21.119 -18.834  -0.659  0.00  0.00     0.086 A 
ATOM      9  N   UNL d   1      19.901 -19.325  -0.955  0.00  0.00    -0.250 NA
ATOM     10  C   UNL d   1      21.686 -18.956   0.629  0.00  0.00     0.086 A 
ATOM     11  C   UNL d   1      19.204 -19.909   0.049  0.00  0.00     0.055 A 
ATOM     12  C   UNL d   1      17.846 -20.451  -0.290  0.00  0.00     0.072 C 
ATOM     13  C   UNL d   1      19.727 -19.988   1.339  0.00  0.00     0.055 A 
ATOM     14  N   UNL d   1      20.980 -19.534   1.626  0.00  0.00    -0.249 NA
ATOM     15  C   UNL d   1      18.914 -20.546   2.471  0.00  0.00     0.072 C 
ATOM     16  C   UNL d   1      22.977 -18.450   0.845  0.00  0.00     0.051 A 
ENDBRANCH   1   5
BRANCH   3  17
ATOM     17  N   UNL d   1      26.654 -15.432  -0.083  0.00  0.00    -0.298 N 
ATOM     18  H   UNL d   1      26.918 -14.788   0.666  0.00  0.00     0.187 HD
BRANCH  17  19
ATOM     19  C   UNL d   1      27.479 -15.593  -1.207  0.00  0.00     0.049 A 
ATOM     20  C   UNL d   1      28.842 -15.919  -1.128  0.00  0.00     0.031 A 
ATOM     21  C   UNL d   1      29.640 -16.008  -2.279  0.00  0.00     0.004 A 
ATOM     22  C   UNL d   1      29.098 -15.733  -3.532  0.00  0.00     0.024 A 
ATOM     23  C   UNL d   1      27.754 -15.388  -3.626  0.00  0.00     0.036 A 
ATOM     24 CL   UNL d   1      27.088 -15.008  -5.169  0.00  0.00    -0.084 Cl
ATOM     25  C   UNL d   1      26.948 -15.335  -2.481  0.00  0.00     0.054 A 
ENDBRANCH  17  19
ENDBRANCH   3  17
TORSDOF 3
ENDMDL
MODEL 2
REMARK VINA RESULT:   -27.036      2.825      3.374
REMARK INTER + INTRA:         -28.446
REMARK INTER:                 -27.931
REMARK INTRA:                  -0.515
REMARK CONF_INDEPENDENT:        0.895
REMARK UNBOUND:                -0.515
REMARK  3 active torsions:
REMARK  status: ('A' for Active; 'I' for Inactive)
REMARK    1  A    between atoms: C_7  and  C_8 
REMARK       I    between atoms: C_8  and  N_10 
REMARK    2  A    between atoms: N_10  and  N_11 
REMARK    3  A    between atoms: N_11  and  C_12 
ROOT
ATOM      1  C   UNL d   1      25.074 -17.302   0.235  0.00  0.00     0.270 C 
ATOM      2  O   UNL d   1      25.869 -18.032   0.831  0.00  0.00    -0.266 OA
ATOM      3  N   UNL d   1      25.394 -15.993  -0.141  0.00  0.00    -0.265 N 
ATOM      4  H   UNL d   1      24.837 -15.464  -0.800  0.00  0.00     0.190 HD
ENDROOT
BRANCH   1   5
ATOM      5  C   UNL d   1      23.698 -17.821  -0.110  0.00  0.00     0.036 A 
ATOM      6  C   UNL d   1      23.116 -17.630  -1.363  0.00  0.00     0.019 A 
ATOM      7  C   UNL d   1      21.853 -18.165  -1.645  0.00  0.00     0.035 A 
ATOM      8  C   UNL d   1      21.118 -18.853  -0.691  0.00  0.00     0.086 A 
ATOM      9  N   UNL d   1      19.903 -19.325  -1.024  0.00  0.00    -0.250 NA
ATOM     10  C   UNL d   1      21.658 -19.012   0.604  0.00  0.00     0.086 A 
ATOM     11  C   UNL d   1      19.181 -19.928  -0.049  0.00  0.00     0.055 A 
ATOM     12  C   UNL d   1      17.825 -20.449  -0.429  0.00  0.00     0.072 C 
ATOM     13  C   UNL d   1      19.678 -20.044   1.249  0.00  0.00     0.055 A 
ATOM     14  N   UNL d   1      20.928 -19.609   1.573  0.00  0.00    -0.249 NA
ATOM     15  C   UNL d   1      18.837 -20.624   2.350  0.00  0.00     0.072 C 
ATOM     16  C   UNL d   1      22.949 -18.523   0.859  0.00  0.00     0.051 A 
ENDBRANCH   1   5
BRANCH   3  17
ATOM     17  N   UNL d   1      26.733 -15.592  -0.058  0.00  0.00    -0.298 N 
ATOM     18  H   UNL d   1      27.439 -16.215  -0.455  0.00  0.00     0.187 HD
BRANCH  17  19
ATOM     19  C   UNL d   1      27.104 -14.563   0.822  0.00  0.00     0.049 A 
ATOM     20  C   UNL d   1      26.939 -13.200   0.532  0.00  0.00     0.031 A 
ATOM     21  C   UNL d   1      27.383 -12.205   1.418  0.00  0.00     0.004 A 
ATOM     22  C   UNL d   1      28.038 -12.557   2.596  0.00  0.00     0.024 A 
ATOM     23  C   UNL d   1      28.226 -13.904   2.889  0.00  0.00     0.036 A 
ATOM     24 CL   UNL d   1      29.070 -14.343   4.325  0.00  0.00    -0.084 Cl
ATOM     25  C   UNL d   1      27.752 -14.897   2.022  0.00  0.00     0.054 A 
ENDBRANCH  17  19
ENDBRANCH   3  17
TORSDOF 3
ENDMDL
MODEL 3
REMARK VINA RESULT:   -26.617      1.749      2.022
REMARK INTER + INTRA:         -28.231
REMARK INTER:                 -27.512
REMARK INTRA:                  -0.720
REMARK CONF_INDEPENDENT:        0.895
REMARK UNBOUND:                -0.720
REMARK  3 active torsions:
REMARK  status: ('A' for Active; 'I' for Inactive)
REMARK    1  A    between atoms: C_7  and  C_8 
REMARK       I    between atoms: C_8  and  N_10 
REMARK    2  A    between atoms: N_10  and  N_11 
REMARK    3  A    between atoms: N_11  and  C_12 
ROOT
ATOM      1  C   UNL d   1      25.064 -17.197   0.173  0.00  0.00     0.270 C 
ATOM      2  O   UNL d   1      25.888 -17.911   0.749  0.00  0.00    -0.266 OA
ATOM      3  N   UNL d   1      25.348 -15.882  -0.210  0.00  0.00    -0.265 N 
ATOM      4  H   UNL d   1      24.765 -15.364  -0.855  0.00  0.00     0.190 HD
ENDROOT
BRANCH   1   5
ATOM      5  C   UNL d   1      23.691 -17.744  -0.140  0.00  0.00     0.036 A 
ATOM      6  C   UNL d   1      23.095 -17.604  -1.393  0.00  0.00     0.019 A 
ATOM      7  C   UNL d   1      21.835 -18.164  -1.642  0.00  0.00     0.035 A 
ATOM      8  C   UNL d   1      21.118 -18.826  -0.658  0.00  0.00     0.086 A 
ATOM      9  N   UNL d   1      19.905 -19.323  -0.961  0.00  0.00    -0.250 NA
ATOM     10  C   UNL d   1      21.672 -18.932   0.637  0.00  0.00     0.086 A 
ATOM     11  C   UNL d   1      19.200 -19.900   0.042  0.00  0.00     0.055 A 
ATOM     12  C   UNL d   1      17.847 -20.449  -0.305  0.00  0.00     0.072 C 
ATOM     13  C   UNL d   1      19.711 -19.964   1.338  0.00  0.00     0.055 A 
ATOM     14  N   UNL d   1      20.959 -19.504   1.633  0.00  0.00    -0.249 NA
ATOM     15  C   UNL d   1      18.888 -20.514   2.467  0.00  0.00     0.072 C 
ATOM     16  C   UNL d   1      22.960 -18.420   0.861  0.00  0.00     0.051 A 
ENDBRANCH   1   5
BRANCH   3  17
ATOM     17  N   UNL d   1      26.680 -15.454  -0.158  0.00  0.00    -0.298 N 
ATOM     18  H   UNL d   1      27.339 -16.020   0.381  0.00  0.00     0.187 HD
BRANCH  17  19
ATOM     19  C   UNL d   1      27.012 -14.145  -0.540  0.00  0.00     0.049 A 
ATOM     20  C   UNL d   1      27.820 -13.295   0.231  0.00  0.00     0.031 A 
ATOM     21  C   UNL d   1      28.073 -11.971  -0.164  0.00  0.00     0.004 A 
ATOM     22  C   UNL d   1      27.490 -11.460  -1.320  0.00  0.00     0.024 A 
ATOM     23  C   UNL d   1      26.670 -12.283  -2.085  0.00  0.00     0.036 A 
ATOM     24 CL   UNL d   1      25.914 -11.644  -3.494  0.00  0.00    -0.084 Cl
ATOM     25  C   UNL d   1      26.446 -13.615  -1.711  0.00  0.00     0.054 A 
ENDBRANCH  17  19
ENDBRANCH   3  17
TORSDOF 3
ENDMDL
MODEL 4
REMARK VINA RESULT:   -24.840      2.034      2.803
REMARK INTER + INTRA:         -26.235
REMARK INTER:                 -25.735
REMARK INTRA:                  -0.500
REMARK CONF_INDEPENDENT:        0.895
REMARK UNBOUND:                -0.500
REMARK  3 active torsions:
REMARK  status: ('A' for Active; 'I' for Inactive)
REMARK    1  A    between atoms: C_7  and  C_8 
REMARK       I    between atoms: C_8  and  N_10 
REMARK    2  A    between atoms: N_10  and  N_11 
REMARK    3  A    between atoms: N_11  and  C_12 
ROOT
ATOM      1  C   UNL d   1      23.622 -16.469  -1.708  0.00  0.00     0.270 C 
ATOM      2  O   UNL d   1      23.198 -15.341  -1.971  0.00  0.00    -0.266 OA
ATOM      3  N   UNL d   1      24.838 -16.948  -2.206  0.00  0.00    -0.265 N 
ATOM      4  H   UNL d   1      25.289 -17.776  -1.839  0.00  0.00     0.190 HD
ENDROOT
BRANCH   1   5
ATOM      5  C   UNL d   1      22.814 -17.382  -0.816  0.00  0.00     0.036 A 
ATOM      6  C   UNL d   1      23.240 -17.757   0.458  0.00  0.00     0.019 A 
ATOM      7  C   UNL d   1      22.434 -18.575   1.260  0.00  0.00     0.035 A 
ATOM      8  C   UNL d   1      21.224 -19.080   0.811  0.00  0.00     0.086 A 
ATOM      9  N   UNL d   1      20.509 -19.876   1.627  0.00  0.00    -0.250 NA
ATOM     10  C   UNL d   1      20.795 -18.765  -0.497  0.00  0.00     0.086 A 
ATOM     11  C   UNL d   1      19.367 -20.411   1.131  0.00  0.00     0.055 A 
ATOM     12  C   UNL d   1      18.578 -21.300   2.048  0.00  0.00     0.072 C 
ATOM     13  C   UNL d   1      18.958 -20.153  -0.176  0.00  0.00     0.055 A 
ATOM     14  N   UNL d   1      19.657 -19.309  -0.986  0.00  0.00    -0.249 NA
ATOM     15  C   UNL d   1      17.747 -20.825  -0.755  0.00  0.00     0.072 C 
ATOM     16  C   UNL d   1      21.581 -17.896  -1.272  0.00  0.00     0.051 A 
ENDBRANCH   1   5
BRANCH   3  17
ATOM     17  N   UNL d   1      25.707 -16.034  -2.815  0.00  0.00    -0.298 N 
ATOM     18  H   UNL d   1      25.597 -15.873  -3.819  0.00  0.00     0.187 HD
BRANCH  17  19
ATOM     19  C   UNL d   1      26.874 -15.626  -2.151  0.00  0.00     0.049 A 
ATOM     20  C   UNL d   1      28.161 -15.763  -2.693  0.00  0.00     0.031 A 
ATOM     21  C   UNL d   1      29.304 -15.395  -1.964  0.00  0.00     0.004 A 
ATOM     22  C   UNL d   1      29.182 -14.920  -0.661  0.00  0.00     0.024 A 
ATOM     23  C   UNL d   1      27.914 -14.796  -0.101  0.00  0.00     0.036 A 
ATOM     24 CL   UNL d   1      27.760 -14.247   1.523  0.00  0.00    -0.084 Cl
ATOM     25  C   UNL d   1      26.772 -15.129  -0.841  0.00  0.00     0.054 A 
ENDBRANCH  17  19
ENDBRANCH   3  17
TORSDOF 3
ENDMDL
