MODEL 1
REMARK VINA RESULT:    -8.981      0.000      0.000
REMARK INTER + INTRA:         -11.491
REMARK INTER:                 -10.175
REMARK INTRA:                  -1.317
REMARK CONF_INDEPENDENT:        1.193
REMARK UNBOUND:                -1.317
REMARK  4 active torsions:
REMARK  status: ('A' for Active; 'I' for Inactive)
REMARK       I    between atoms: C_2  and  N_3 
REMARK    1  A    between atoms: C_2  and  C_14 
REMARK    2  A    between atoms: N_3  and  N_4 
REMARK       I    between atoms: N_4  and  C_5 
REMARK    3  A    between atoms: C_5  and  C_7 
REMARK    4  A    between atoms: C_12  and  O_13 
ROOT
ATOM      1  O   UNL d   1      24.488 -18.226   0.977  0.00  0.00    -0.265 OA
ATOM      2  C   UNL d   1      24.200 -17.786  -0.142  0.00  0.00     0.277 C 
ATOM      3  N   UNL d   1      22.969 -18.086  -0.727  0.00  0.00    -0.263 N 
ATOM      4  H   UNL d   1      22.733 -17.833  -1.684  0.00  0.00     0.190 HD
ENDROOT
BRANCH   3   5
ATOM      5  N   UNL d   1      22.053 -18.963  -0.071  0.00  0.00    -0.263 N 
ATOM      6  C   UNL d   1      20.702 -18.901  -0.384  0.00  0.00     0.272 C 
ATOM      7  O   UNL d   1      20.265 -18.171  -1.275  0.00  0.00    -0.266 OA
ATOM      8  H   UNL d   1      22.415 -19.537   0.690  0.00  0.00     0.190 HD
BRANCH   6   9
ATOM      9  C   UNL d   1      19.753 -19.777   0.381  0.00  0.00     0.066 A 
ATOM     10  C   UNL d   1      18.740 -20.448  -0.331  0.00  0.00     0.020 A 
ATOM     11  C   UNL d   1      17.765 -21.201   0.337  0.00  0.00     0.001 A 
ATOM     12  C   UNL d   1      17.771 -21.270   1.728  0.00  0.00     0.003 A 
ATOM     13  C   UNL d   1      18.770 -20.611   2.450  0.00  0.00     0.037 A 
ATOM     14  C   UNL d   1      19.765 -19.882   1.777  0.00  0.00     0.081 A 
BRANCH  14  15
ATOM     15  O   UNL d   1      20.740 -19.248   2.495  0.00  0.00    -0.360 OA
ATOM     16  H   UNL d   1      21.405 -19.897   2.785  0.00  0.00     0.217 HD
ENDBRANCH  14  15
ENDBRANCH   6   9
ENDBRANCH   3   5
BRANCH   2  17
ATOM     17  C   UNL d   1      25.097 -16.938  -0.935  0.00  0.00     0.075 A 
ATOM     18  C   UNL d   1      24.792 -15.957  -1.861  0.00  0.00     0.037 A 
ATOM     19  C   UNL d   1      25.947 -15.357  -2.480  0.00  0.00    -0.018 A 
ATOM     20  C   UNL d   1      26.037 -14.367  -3.490  0.00  0.00     0.013 A 
ATOM     21  C   UNL d   1      27.135 -15.883  -1.965  0.00  0.00     0.016 A 
ATOM     22  C   UNL d   1      27.280 -13.943  -3.974  0.00  0.00     0.001 A 
ATOM     23  C   UNL d   1      28.447 -14.479  -3.453  0.00  0.00     0.001 A 
ATOM     24  C   UNL d   1      28.395 -15.447  -2.442  0.00  0.00     0.019 A 
ATOM     25  S   UNL d   1      26.801 -17.059  -0.741  0.00  0.00    -0.084 SA
ENDBRANCH   2  17
TORSDOF 4
ENDMDL
MODEL 2
REMARK VINA RESULT:    -8.546      1.197      1.981
REMARK INTER + INTRA:         -11.621
REMARK INTER:                  -9.740
REMARK INTRA:                  -1.882
REMARK CONF_INDEPENDENT:        1.193
REMARK UNBOUND:                -1.882
REMARK  4 active torsions:
REMARK  status: ('A' for Active; 'I' for Inactive)
REMARK       I    between atoms: C_2  and  N_3 
REMARK    1  A    between atoms: C_2  and  C_14 
REMARK    2  A    between atoms: N_3  and  N_4 
REMARK       I    between atoms: N_4  and  C_5 
REMARK    3  A    between atoms: C_5  and  C_7 
REMARK    4  A    between atoms: C_12  and  O_13 
ROOT
ATOM      1  O   UNL d   1      25.062 -18.575   0.671  0.00  0.00    -0.265 OA
ATOM      2  C   UNL d   1      24.678 -17.875  -0.275  0.00  0.00     0.277 C 
ATOM      3  N   UNL d   1      23.331 -17.848  -0.635  0.00  0.00    -0.263 N 
ATOM      4  H   UNL d   1      22.989 -17.370  -1.467  0.00  0.00     0.190 HD
ENDROOT
BRANCH   3   5
ATOM      5  N   UNL d   1      22.386 -18.682   0.037  0.00  0.00    -0.263 N 
ATOM      6  C   UNL d   1      21.047 -18.630  -0.325  0.00  0.00     0.272 C 
ATOM      7  O   UNL d   1      20.646 -17.948  -1.270  0.00  0.00    -0.266 OA
ATOM      8  H   UNL d   1      22.718 -19.214   0.841  0.00  0.00     0.190 HD
BRANCH   6   9
ATOM      9  C   UNL d   1      20.066 -19.455   0.454  0.00  0.00     0.066 A 
ATOM     10  C   UNL d   1      20.274 -19.611   1.839  0.00  0.00     0.020 A 
ATOM     11  C   UNL d   1      19.451 -20.450   2.603  0.00  0.00     0.001 A 
ATOM     12  C   UNL d   1      18.426 -21.167   1.990  0.00  0.00     0.003 A 
ATOM     13  C   UNL d   1      18.206 -21.022   0.617  0.00  0.00     0.037 A 
ATOM     14  C   UNL d   1      19.012 -20.158  -0.142  0.00  0.00     0.081 A 
BRANCH  14  15
ATOM     15  O   UNL d   1      18.780 -20.021  -1.482  0.00  0.00    -0.360 OA
ATOM     16  H   UNL d   1      18.830 -19.081  -1.727  0.00  0.00     0.217 HD
ENDBRANCH  14  15
ENDBRANCH   6   9
ENDBRANCH   3   5
BRANCH   2  17
ATOM     17  C   UNL d   1      25.575 -17.039  -1.080  0.00  0.00     0.075 A 
ATOM     18  C   UNL d   1      26.957 -17.031  -1.137  0.00  0.00     0.037 A 
ATOM     19  C   UNL d   1      27.500 -16.030  -2.020  0.00  0.00    -0.018 A 
ATOM     20  C   UNL d   1      28.846 -15.690  -2.305  0.00  0.00     0.013 A 
ATOM     21  C   UNL d   1      26.490 -15.310  -2.661  0.00  0.00     0.016 A 
ATOM     22  C   UNL d   1      29.155 -14.649  -3.187  0.00  0.00     0.001 A 
ATOM     23  C   UNL d   1      28.138 -13.944  -3.811  0.00  0.00     0.001 A 
ATOM     24  C   UNL d   1      26.797 -14.264  -3.565  0.00  0.00     0.019 A 
ATOM     25  S   UNL d   1      24.931 -15.892  -2.186  0.00  0.00    -0.084 SA
ENDBRANCH   2  17
TORSDOF 4
ENDMDL
MODEL 3
REMARK VINA RESULT:    -7.832      2.555      8.979
REMARK INTER + INTRA:         -10.144
REMARK INTER:                  -9.025
REMARK INTRA:                  -1.119
REMARK CONF_INDEPENDENT:        1.193
REMARK UNBOUND:                -1.119
REMARK  4 active torsions:
REMARK  status: ('A' for Active; 'I' for Inactive)
REMARK       I    between atoms: C_2  and  N_3 
REMARK    1  A    between atoms: C_2  and  C_14 
REMARK    2  A    between atoms: N_3  and  N_4 
REMARK       I    between atoms: N_4  and  C_5 
REMARK    3  A    between atoms: C_5  and  C_7 
REMARK    4  A    between atoms: C_12  and  O_13 
ROOT
ATOM      1  O   UNL d   1      23.511 -18.462  -2.396  0.00  0.00    -0.265 OA
ATOM      2  C   UNL d   1      23.148 -18.133  -1.260  0.00  0.00     0.277 C 
ATOM      3  N   UNL d   1      23.852 -17.164  -0.544  0.00  0.00    -0.263 N 
ATOM      4  H   UNL d   1      23.652 -16.938   0.429  0.00  0.00     0.190 HD
ENDROOT
BRANCH   3   5
ATOM      5  N   UNL d   1      25.042 -16.588  -1.084  0.00  0.00    -0.263 N 
ATOM      6  C   UNL d   1      24.946 -15.591  -2.045  0.00  0.00     0.272 C 
ATOM      7  O   UNL d   1      23.864 -15.116  -2.396  0.00  0.00    -0.266 OA
ATOM      8  H   UNL d   1      25.931 -17.011  -0.817  0.00  0.00     0.190 HD
BRANCH   6   9
ATOM      9  C   UNL d   1      26.212 -15.065  -2.653  0.00  0.00     0.066 A 
ATOM     10  C   UNL d   1      27.386 -15.081  -1.875  0.00  0.00     0.020 A 
ATOM     11  C   UNL d   1      28.576 -14.513  -2.350  0.00  0.00     0.001 A 
ATOM     12  C   UNL d   1      28.604 -13.896  -3.598  0.00  0.00     0.003 A 
ATOM     13  C   UNL d   1      27.448 -13.873  -4.384  0.00  0.00     0.037 A 
ATOM     14  C   UNL d   1      26.264 -14.469  -3.919  0.00  0.00     0.081 A 
BRANCH  14  15
ATOM     15  O   UNL d   1      25.143 -14.444  -4.702  0.00  0.00    -0.360 OA
ATOM     16  H   UNL d   1      24.404 -14.059  -4.200  0.00  0.00     0.217 HD
ENDBRANCH  14  15
ENDBRANCH   6   9
ENDBRANCH   3   5
BRANCH   2  17
ATOM     17  C   UNL d   1      21.985 -18.714  -0.581  0.00  0.00     0.075 A 
ATOM     18  C   UNL d   1      21.725 -18.837   0.771  0.00  0.00     0.037 A 
ATOM     19  C   UNL d   1      20.486 -19.509   1.071  0.00  0.00    -0.018 A 
ATOM     20  C   UNL d   1      19.907 -19.857   2.317  0.00  0.00     0.013 A 
ATOM     21  C   UNL d   1      19.796 -19.852  -0.094  0.00  0.00     0.016 A 
ATOM     22  C   UNL d   1      18.690 -20.543   2.379  0.00  0.00     0.001 A 
ATOM     23  C   UNL d   1      18.022 -20.878   1.212  0.00  0.00     0.001 A 
ATOM     24  C   UNL d   1      18.557 -20.536  -0.036  0.00  0.00     0.019 A 
ATOM     25  S   UNL d   1      20.665 -19.326  -1.495  0.00  0.00    -0.084 SA
ENDBRANCH   2  17
TORSDOF 4
ENDMDL
MODEL 4
REMARK VINA RESULT:    -7.088      5.428      9.965
REMARK INTER + INTRA:         -10.012
REMARK INTER:                  -8.281
REMARK INTRA:                  -1.731
REMARK CONF_INDEPENDENT:        1.193
REMARK UNBOUND:                -1.731
REMARK  4 active torsions:
REMARK  status: ('A' for Active; 'I' for Inactive)
REMARK       I    between atoms: C_2  and  N_3 
REMARK    1  A    between atoms: C_2  and  C_14 
REMARK    2  A    between atoms: N_3  and  N_4 
REMARK       I    between atoms: N_4  and  C_5 
REMARK    3  A    between atoms: C_5  and  C_7 
REMARK    4  A    between atoms: C_12  and  O_13 
ROOT
ATOM      1  O   UNL d   1      24.777 -14.090  -4.645  0.00  0.00    -0.265 OA
ATOM      2  C   UNL d   1      25.270 -13.913  -3.524  0.00  0.00     0.277 C 
ATOM      3  N   UNL d   1      25.579 -12.627  -3.081  0.00  0.00    -0.263 N 
ATOM      4  H   UNL d   1      26.080 -12.444  -2.213  0.00  0.00     0.190 HD
ENDROOT
BRANCH   3   5
ATOM      5  N   UNL d   1      25.396 -11.502  -3.942  0.00  0.00    -0.263 N 
ATOM      6  C   UNL d   1      25.745 -10.235  -3.497  0.00  0.00     0.272 C 
ATOM      7  O   UNL d   1      26.291 -10.046  -2.408  0.00  0.00    -0.266 OA
ATOM      8  H   UNL d   1      24.910 -11.661  -4.824  0.00  0.00     0.190 HD
BRANCH   6   9
ATOM      9  C   UNL d   1      25.464  -9.064  -4.392  0.00  0.00     0.066 A 
ATOM     10  C   UNL d   1      25.437  -7.776  -3.821  0.00  0.00     0.020 A 
ATOM     11  C   UNL d   1      25.083  -6.655  -4.585  0.00  0.00     0.001 A 
ATOM     12  C   UNL d   1      24.723  -6.808  -5.921  0.00  0.00     0.003 A 
ATOM     13  C   UNL d   1      24.746  -8.079  -6.503  0.00  0.00     0.037 A 
ATOM     14  C   UNL d   1      25.131  -9.197  -5.745  0.00  0.00     0.081 A 
BRANCH  14  15
ATOM     15  O   UNL d   1      25.156 -10.433  -6.330  0.00  0.00    -0.360 OA
ATOM     16  H   UNL d   1      24.426 -10.973  -5.980  0.00  0.00     0.217 HD
ENDBRANCH  14  15
ENDBRANCH   6   9
ENDBRANCH   3   5
BRANCH   2  17
ATOM     17  C   UNL d   1      25.569 -15.003  -2.590  0.00  0.00     0.075 A 
ATOM     18  C   UNL d   1      24.708 -15.875  -1.950  0.00  0.00     0.037 A 
ATOM     19  C   UNL d   1      25.365 -16.799  -1.059  0.00  0.00    -0.018 A 
ATOM     20  C   UNL d   1      24.825 -17.797  -0.210  0.00  0.00     0.013 A 
ATOM     21  C   UNL d   1      26.751 -16.629  -1.077  0.00  0.00     0.016 A 
ATOM     22  C   UNL d   1      25.655 -18.575   0.605  0.00  0.00     0.001 A 
ATOM     23  C   UNL d   1      27.028 -18.389   0.576  0.00  0.00     0.001 A 
ATOM     24  C   UNL d   1      27.597 -17.423  -0.264  0.00  0.00     0.019 A 
ATOM     25  S   UNL d   1      27.197 -15.377  -2.186  0.00  0.00    -0.084 SA
ENDBRANCH   2  17
TORSDOF 4
ENDMDL
MODEL 5
REMARK VINA RESULT:    -6.904      2.462      9.021
REMARK INTER + INTRA:          -9.658
REMARK INTER:                  -8.097
REMARK INTRA:                  -1.561
REMARK CONF_INDEPENDENT:        1.193
REMARK UNBOUND:                -1.561
REMARK  4 active torsions:
REMARK  status: ('A' for Active; 'I' for Inactive)
REMARK       I    between atoms: C_2  and  N_3 
REMARK    1  A    between atoms: C_2  and  C_14 
REMARK    2  A    between atoms: N_3  and  N_4 
REMARK       I    between atoms: N_4  and  C_5 
REMARK    3  A    between atoms: C_5  and  C_7 
REMARK    4  A    between atoms: C_12  and  O_13 
ROOT
ATOM      1  O   UNL d   1      23.111 -16.484  -1.509  0.00  0.00    -0.265 OA
ATOM      2  C   UNL d   1      23.234 -17.519  -0.842  0.00  0.00     0.277 C 
ATOM      3  N   UNL d   1      24.500 -18.034  -0.561  0.00  0.00    -0.263 N 
ATOM      4  H   UNL d   1      24.644 -18.934  -0.107  0.00  0.00     0.190 HD
ENDROOT
BRANCH   3   5
ATOM      5  N   UNL d   1      25.668 -17.414  -1.100  0.00  0.00    -0.263 N 
ATOM      6  C   UNL d   1      26.874 -17.520  -0.421  0.00  0.00     0.272 C 
ATOM      7  O   UNL d   1      27.000 -18.205   0.596  0.00  0.00    -0.266 OA
ATOM      8  H   UNL d   1      25.549 -16.820  -1.919  0.00  0.00     0.190 HD
BRANCH   6   9
ATOM      9  C   UNL d   1      28.065 -16.789  -0.968  0.00  0.00     0.066 A 
ATOM     10  C   UNL d   1      27.869 -15.506  -1.515  0.00  0.00     0.020 A 
ATOM     11  C   UNL d   1      28.922 -14.815  -2.130  0.00  0.00     0.001 A 
ATOM     12  C   UNL d   1      30.179 -15.407  -2.232  0.00  0.00     0.003 A 
ATOM     13  C   UNL d   1      30.390 -16.679  -1.693  0.00  0.00     0.037 A 
ATOM     14  C   UNL d   1      29.342 -17.358  -1.049  0.00  0.00     0.081 A 
BRANCH  14  15
ATOM     15  O   UNL d   1      29.565 -18.599  -0.520  0.00  0.00    -0.360 OA
ATOM     16  H   UNL d   1      28.752 -18.922  -0.093  0.00  0.00     0.217 HD
ENDBRANCH  14  15
ENDBRANCH   6   9
ENDBRANCH   3   5
BRANCH   2  17
ATOM     17  C   UNL d   1      22.099 -18.276  -0.304  0.00  0.00     0.075 A 
ATOM     18  C   UNL d   1      21.781 -18.575   1.008  0.00  0.00     0.037 A 
ATOM     19  C   UNL d   1      20.599 -19.386   1.154  0.00  0.00    -0.018 A 
ATOM     20  C   UNL d   1      19.993 -19.924   2.317  0.00  0.00     0.013 A 
ATOM     21  C   UNL d   1      20.008 -19.656  -0.081  0.00  0.00     0.016 A 
ATOM     22  C   UNL d   1      18.846 -20.720   2.228  0.00  0.00     0.001 A 
ATOM     23  C   UNL d   1      18.275 -20.980   0.992  0.00  0.00     0.001 A 
ATOM     24  C   UNL d   1      18.839 -20.451  -0.176  0.00  0.00     0.019 A 
ATOM     25  S   UNL d   1      20.893 -18.898  -1.360  0.00  0.00    -0.084 SA
ENDBRANCH   2  17
TORSDOF 4
ENDMDL
MODEL 6
REMARK VINA RESULT:    -6.353      5.317     10.387
REMARK INTER + INTRA:          -9.060
REMARK INTER:                  -7.546
REMARK INTRA:                  -1.514
REMARK CONF_INDEPENDENT:        1.193
REMARK UNBOUND:                -1.514
REMARK  4 active torsions:
REMARK  status: ('A' for Active; 'I' for Inactive)
REMARK       I    between atoms: C_2  and  N_3 
REMARK    1  A    between atoms: C_2  and  C_14 
REMARK    2  A    between atoms: N_3  and  N_4 
REMARK       I    between atoms: N_4  and  C_5 
REMARK    3  A    between atoms: C_5  and  C_7 
REMARK    4  A    between atoms: C_12  and  O_13 
ROOT
ATOM      1  O   UNL d   1      23.984 -13.829  -4.406  0.00  0.00    -0.265 OA
ATOM      2  C   UNL d   1      25.048 -13.896  -3.777  0.00  0.00     0.277 C 
ATOM      3  N   UNL d   1      26.051 -12.947  -3.978  0.00  0.00    -0.263 N 
ATOM      4  H   UNL d   1      26.977 -13.022  -3.561  0.00  0.00     0.190 HD
ENDROOT
BRANCH   3   5
ATOM      5  N   UNL d   1      25.892 -11.925  -4.962  0.00  0.00    -0.263 N 
ATOM      6  C   UNL d   1      26.977 -11.554  -5.745  0.00  0.00     0.272 C 
ATOM      7  O   UNL d   1      28.062 -12.134  -5.685  0.00  0.00    -0.266 OA
ATOM      8  H   UNL d   1      25.004 -11.425  -4.981  0.00  0.00     0.190 HD
BRANCH   6   9
ATOM      9  C   UNL d   1      26.801 -10.421  -6.713  0.00  0.00     0.066 A 
ATOM     10  C   UNL d   1      27.581 -10.416  -7.886  0.00  0.00     0.020 A 
ATOM     11  C   UNL d   1      27.534  -9.336  -8.779  0.00  0.00     0.001 A 
ATOM     12  C   UNL d   1      26.730  -8.234  -8.499  0.00  0.00     0.003 A 
ATOM     13  C   UNL d   1      25.949  -8.225  -7.340  0.00  0.00     0.037 A 
ATOM     14  C   UNL d   1      25.973  -9.320  -6.461  0.00  0.00     0.081 A 
BRANCH  14  15
ATOM     15  O   UNL d   1      25.198  -9.300  -5.335  0.00  0.00    -0.360 OA
ATOM     16  H   UNL d   1      24.585 -10.055  -5.348  0.00  0.00     0.217 HD
ENDBRANCH  14  15
ENDBRANCH   6   9
ENDBRANCH   3   5
BRANCH   2  17
ATOM     17  C   UNL d   1      25.344 -14.947  -2.798  0.00  0.00     0.075 A 
ATOM     18  C   UNL d   1      24.481 -15.687  -2.012  0.00  0.00     0.037 A 
ATOM     19  C   UNL d   1      25.143 -16.610  -1.124  0.00  0.00    -0.018 A 
ATOM     20  C   UNL d   1      24.609 -17.493  -0.153  0.00  0.00     0.013 A 
ATOM     21  C   UNL d   1      26.529 -16.577  -1.293  0.00  0.00     0.016 A 
ATOM     22  C   UNL d   1      25.447 -18.293   0.631  0.00  0.00     0.001 A 
ATOM     23  C   UNL d   1      26.820 -18.244   0.452  0.00  0.00     0.001 A 
ATOM     24  C   UNL d   1      27.381 -17.395  -0.510  0.00  0.00     0.019 A 
ATOM     25  S   UNL d   1      26.966 -15.450  -2.531  0.00  0.00    -0.084 SA
ENDBRANCH   2  17
TORSDOF 4
ENDMDL
MODEL 7
REMARK VINA RESULT:    -6.170      5.429     10.684
REMARK INTER + INTRA:          -8.969
REMARK INTER:                  -7.364
REMARK INTRA:                  -1.605
REMARK CONF_INDEPENDENT:        1.193
REMARK UNBOUND:                -1.605
REMARK  4 active torsions:
REMARK  status: ('A' for Active; 'I' for Inactive)
REMARK       I    between atoms: C_2  and  N_3 
REMARK    1  A    between atoms: C_2  and  C_14 
REMARK    2  A    between atoms: N_3  and  N_4 
REMARK       I    between atoms: N_4  and  C_5 
REMARK    3  A    between atoms: C_5  and  C_7 
REMARK    4  A    between atoms: C_12  and  O_13 
ROOT
ATOM      1  O   UNL d   1      24.720 -14.008  -4.658  0.00  0.00    -0.265 OA
ATOM      2  C   UNL d   1      25.784 -14.375  -4.145  0.00  0.00     0.277 C 
ATOM      3  N   UNL d   1      27.005 -13.914  -4.638  0.00  0.00    -0.263 N 
ATOM      4  H   UNL d   1      27.903 -14.268  -4.315  0.00  0.00     0.190 HD
ENDROOT
BRANCH   3   5
ATOM      5  N   UNL d   1      27.046 -13.067  -5.787  0.00  0.00    -0.263 N 
ATOM      6  C   UNL d   1      28.077 -13.210  -6.707  0.00  0.00     0.272 C 
ATOM      7  O   UNL d   1      28.921 -14.103  -6.616  0.00  0.00    -0.266 OA
ATOM      8  H   UNL d   1      26.367 -12.308  -5.836  0.00  0.00     0.190 HD
BRANCH   6   9
ATOM      9  C   UNL d   1      28.139 -12.252  -7.859  0.00  0.00     0.066 A 
ATOM     10  C   UNL d   1      27.014 -11.447  -8.122  0.00  0.00     0.020 A 
ATOM     11  C   UNL d   1      26.974 -10.605  -9.243  0.00  0.00     0.001 A 
ATOM     12  C   UNL d   1      28.046 -10.577 -10.131  0.00  0.00     0.003 A 
ATOM     13  C   UNL d   1      29.171 -11.368  -9.884  0.00  0.00     0.037 A 
ATOM     14  C   UNL d   1      29.222 -12.189  -8.744  0.00  0.00     0.081 A 
BRANCH  14  15
ATOM     15  O   UNL d   1      30.332 -12.952  -8.511  0.00  0.00    -0.360 OA
ATOM     16  H   UNL d   1      30.071 -13.883  -8.408  0.00  0.00     0.217 HD
ENDBRANCH  14  15
ENDBRANCH   6   9
ENDBRANCH   3   5
BRANCH   2  17
ATOM     17  C   UNL d   1      25.859 -15.300  -3.009  0.00  0.00     0.075 A 
ATOM     18  C   UNL d   1      24.840 -15.928  -2.316  0.00  0.00     0.037 A 
ATOM     19  C   UNL d   1      25.295 -16.742  -1.217  0.00  0.00    -0.018 A 
ATOM     20  C   UNL d   1      24.561 -17.492  -0.264  0.00  0.00     0.013 A 
ATOM     21  C   UNL d   1      26.688 -16.747  -1.126  0.00  0.00     0.016 A 
ATOM     22  C   UNL d   1      25.212 -18.200   0.752  0.00  0.00     0.001 A 
ATOM     23  C   UNL d   1      26.596 -18.189   0.828  0.00  0.00     0.001 A 
ATOM     24  C   UNL d   1      27.353 -17.472  -0.107  0.00  0.00     0.019 A 
ATOM     25  S   UNL d   1      27.385 -15.787  -2.386  0.00  0.00    -0.084 SA
ENDBRANCH   2  17
TORSDOF 4
ENDMDL
