MODEL 1
REMARK VINA RESULT:   -10.473      0.000      0.000
REMARK INTER + INTRA:         -15.006
REMARK INTER:                 -13.157
REMARK INTRA:                  -1.849
REMARK CONF_INDEPENDENT:        2.685
REMARK UNBOUND:                -1.849
REMARK  9 active torsions:
REMARK  status: ('A' for Active; 'I' for Inactive)
REMARK    1  A    between atoms: C_2  and  C_5 
REMARK    2  A    between atoms: C_7  and  C_8 
REMARK    3  A    between atoms: C_8  and  C_10 
REMARK    4  A    between atoms: C_10  and  N_11 
REMARK    5  A    between atoms: N_14  and  C_15 
REMARK    6  A    between atoms: C_15  and  C_16 
REMARK    7  A    between atoms: C_16  and  N_17 
REMARK    8  A    between atoms: C_30  and  C_31 
REMARK    9  A    between atoms: C_35  and  O_36 
ROOT
ATOM      1  N   UNL d   1      26.571 -14.258  -1.563  0.00  0.00    -0.174 N 
ATOM      2  C   UNL d   1      27.761 -14.009  -0.922  0.00  0.00     0.681 A 
ATOM      3  N   UNL d   1      28.434 -12.845  -1.052  0.00  0.00    -0.234 N 
ATOM      4  N   UNL d   1      28.151 -15.055  -0.114  0.00  0.00    -0.180 N 
ATOM      5  C   UNL d   1      27.115 -16.033  -0.235  0.00  0.00     0.079 A 
ATOM      6  C   UNL d   1      26.979 -17.255   0.392  0.00  0.00     0.032 A 
ATOM      7  C   UNL d   1      25.824 -17.987   0.106  0.00  0.00     0.002 A 
ATOM      8  C   UNL d   1      24.856 -17.493  -0.793  0.00  0.00     0.002 A 
ATOM      9  C   UNL d   1      25.016 -16.255  -1.425  0.00  0.00     0.032 A 
ATOM     10  C   UNL d   1      26.153 -15.542  -1.126  0.00  0.00     0.079 A 
ATOM     11  H   UNL d   1      28.163 -12.237  -1.817  0.00  0.00     0.174 HD
ATOM     12  H   UNL d   1      29.386 -12.646  -0.833  0.00  0.00     0.174 HD
ENDROOT
BRANCH   1  13
ATOM     13  C   UNL d   1      25.918 -13.401  -2.539  0.00  0.00     0.231 C 
BRANCH  13  14
ATOM     14  C   UNL d   1      25.789 -14.102  -3.876  0.00  0.00     0.178 C 
ATOM     15  O   UNL d   1      24.803 -14.809  -4.149  0.00  0.00    -0.290 OA
BRANCH  14  16
ATOM     16  C   UNL d   1      26.914 -14.083  -4.815  0.00  0.00     0.013 A 
ATOM     17  C   UNL d   1      26.968 -13.056  -5.757  0.00  0.00     0.026 A 
ATOM     18  C   UNL d   1      28.033 -12.973  -6.657  0.00  0.00    -0.016 A 
ATOM     19  C   UNL d   1      29.036 -13.959  -6.571  0.00  0.00     0.079 A 
ATOM     20  C   UNL d   1      29.012 -15.012  -5.647  0.00  0.00    -0.016 A 
ATOM     21  C   UNL d   1      27.909 -15.058  -4.774  0.00  0.00     0.026 A 
BRANCH  18  22
ATOM     22  C   UNL d   1      28.149 -11.776  -7.636  0.00  0.00    -0.021 C 
ATOM     23  C   UNL d   1      26.975 -10.827  -7.338  0.00  0.00     0.019 C 
ATOM     24  C   UNL d   1      28.089 -12.265  -9.093  0.00  0.00     0.019 C 
ATOM     25  C   UNL d   1      29.458 -10.941  -7.547  0.00  0.00     0.019 C 
ENDBRANCH  18  22
BRANCH  19  26
ATOM     26  O   UNL d   1      30.030 -13.736  -7.451  0.00  0.00    -0.360 OA
ATOM     27  H   UNL d   1      29.907 -13.726  -8.394  0.00  0.00     0.217 HD
ENDBRANCH  19  26
BRANCH  20  28
ATOM     28  C   UNL d   1      30.102 -16.082  -5.484  0.00  0.00    -0.021 C 
ATOM     29  C   UNL d   1      31.430 -15.399  -5.105  0.00  0.00     0.019 C 
ATOM     30  C   UNL d   1      29.671 -17.079  -4.392  0.00  0.00     0.019 C 
ATOM     31  C   UNL d   1      30.402 -16.921  -6.731  0.00  0.00     0.019 C 
ENDBRANCH  20  28
ENDBRANCH  14  16
ENDBRANCH  13  14
ENDBRANCH   1  13
BRANCH   4  32
ATOM     32  C   UNL d   1      29.333 -15.233   0.694  0.00  0.00     0.175 C 
BRANCH  32  33
ATOM     33  C   UNL d   1      29.563 -14.140   1.739  0.00  0.00     0.255 C 
BRANCH  33  34
ATOM     34  N   UNL d   1      29.208 -14.540   3.123  0.00  0.00    -0.070 N 
ATOM     35  C   UNL d   1      30.318 -14.145   4.088  0.00  0.00     0.235 C 
ATOM     36  C   UNL d   1      29.912 -14.495   5.501  0.00  0.00     0.028 C 
ATOM     37  C   UNL d   1      28.584 -13.829   5.821  0.00  0.00     0.003 C 
ATOM     38  C   UNL d   1      27.507 -14.430   4.929  0.00  0.00     0.028 C 
ATOM     39  C   UNL d   1      27.811 -14.077   3.498  0.00  0.00     0.235 C 
ATOM     40  H   UNL d   1      29.183 -15.572   3.138  0.00  0.00     0.279 HD
ENDBRANCH  33  34
ENDBRANCH  32  33
ENDBRANCH   4  32
TORSDOF 9
ENDMDL
MODEL 2
REMARK VINA RESULT:   -10.371      0.240      3.064
REMARK INTER + INTRA:         -14.976
REMARK INTER:                 -13.056
REMARK INTRA:                  -1.921
REMARK CONF_INDEPENDENT:        2.685
REMARK UNBOUND:                -1.921
REMARK  9 active torsions:
REMARK  status: ('A' for Active; 'I' for Inactive)
REMARK    1  A    between atoms: C_2  and  C_5 
REMARK    2  A    between atoms: C_7  and  C_8 
REMARK    3  A    between atoms: C_8  and  C_10 
REMARK    4  A    between atoms: C_10  and  N_11 
REMARK    5  A    between atoms: N_14  and  C_15 
REMARK    6  A    between atoms: C_15  and  C_16 
REMARK    7  A    between atoms: C_16  and  N_17 
REMARK    8  A    between atoms: C_30  and  C_31 
REMARK    9  A    between atoms: C_35  and  O_36 
ROOT
ATOM      1  N   UNL d   1      26.449 -14.392  -1.565  0.00  0.00    -0.174 N 
ATOM      2  C   UNL d   1      27.659 -14.181  -0.948  0.00  0.00     0.681 A 
ATOM      3  N   UNL d   1      28.356 -13.031  -1.074  0.00  0.00    -0.234 N 
ATOM      4  N   UNL d   1      28.044 -15.250  -0.168  0.00  0.00    -0.180 N 
ATOM      5  C   UNL d   1      26.983 -16.202  -0.281  0.00  0.00     0.079 A 
ATOM      6  C   UNL d   1      26.834 -17.432   0.328  0.00  0.00     0.032 A 
ATOM      7  C   UNL d   1      25.655 -18.132   0.057  0.00  0.00     0.002 A 
ATOM      8  C   UNL d   1      24.678 -17.600  -0.810  0.00  0.00     0.002 A 
ATOM      9  C   UNL d   1      24.853 -16.355  -1.425  0.00  0.00     0.032 A 
ATOM     10  C   UNL d   1      26.012 -15.673  -1.141  0.00  0.00     0.079 A 
ATOM     11  H   UNL d   1      28.081 -12.403  -1.821  0.00  0.00     0.174 HD
ATOM     12  H   UNL d   1      29.317 -12.857  -0.874  0.00  0.00     0.174 HD
ENDROOT
BRANCH   1  13
ATOM     13  C   UNL d   1      25.794 -13.503  -2.510  0.00  0.00     0.231 C 
BRANCH  13  14
ATOM     14  C   UNL d   1      25.745 -14.122  -3.892  0.00  0.00     0.178 C 
ATOM     15  O   UNL d   1      24.783 -14.817  -4.261  0.00  0.00    -0.290 OA
BRANCH  14  16
ATOM     16  C   UNL d   1      26.920 -14.038  -4.765  0.00  0.00     0.013 A 
ATOM     17  C   UNL d   1      27.928 -14.988  -4.605  0.00  0.00     0.026 A 
ATOM     18  C   UNL d   1      29.056 -14.973  -5.428  0.00  0.00    -0.016 A 
ATOM     19  C   UNL d   1      29.128 -13.969  -6.415  0.00  0.00     0.079 A 
ATOM     20  C   UNL d   1      28.141 -12.991  -6.599  0.00  0.00    -0.016 A 
ATOM     21  C   UNL d   1      27.034 -13.043  -5.732  0.00  0.00     0.026 A 
BRANCH  18  22
ATOM     22  C   UNL d   1      30.128 -16.088  -5.321  0.00  0.00    -0.021 C 
ATOM     23  C   UNL d   1      29.656 -17.073  -4.238  0.00  0.00     0.019 C 
ATOM     24  C   UNL d   1      31.493 -15.488  -4.944  0.00  0.00     0.019 C 
ATOM     25  C   UNL d   1      30.396 -16.909  -6.615  0.00  0.00     0.019 C 
ENDBRANCH  18  22
BRANCH  19  26
ATOM     26  O   UNL d   1      30.230 -14.097  -7.176  0.00  0.00    -0.360 OA
ATOM     27  H   UNL d   1      30.214 -14.391  -8.081  0.00  0.00     0.217 HD
ENDBRANCH  19  26
BRANCH  20  28
ATOM     28  C   UNL d   1      28.151 -11.907  -7.688  0.00  0.00    -0.021 C 
ATOM     29  C   UNL d   1      28.240 -12.579  -9.071  0.00  0.00     0.019 C 
ATOM     30  C   UNL d   1      26.868 -11.064  -7.573  0.00  0.00     0.019 C 
ATOM     31  C   UNL d   1      29.319 -10.915  -7.627  0.00  0.00     0.019 C 
ENDBRANCH  20  28
ENDBRANCH  14  16
ENDBRANCH  13  14
ENDBRANCH   1  13
BRANCH   4  32
ATOM     32  C   UNL d   1      29.239 -15.469   0.609  0.00  0.00     0.175 C 
BRANCH  32  33
ATOM     33  C   UNL d   1      29.591 -14.336   1.575  0.00  0.00     0.255 C 
BRANCH  33  34
ATOM     34  N   UNL d   1      29.123 -14.557   2.965  0.00  0.00    -0.070 N 
ATOM     35  C   UNL d   1      30.217 -14.185   3.957  0.00  0.00     0.235 C 
ATOM     36  C   UNL d   1      29.702 -14.349   5.368  0.00  0.00     0.028 C 
ATOM     37  C   UNL d   1      28.440 -13.520   5.540  0.00  0.00     0.003 C 
ATOM     38  C   UNL d   1      27.351 -14.092   4.643  0.00  0.00     0.028 C 
ATOM     39  C   UNL d   1      27.767 -13.917   3.207  0.00  0.00     0.235 C 
ATOM     40  H   UNL d   1      28.984 -15.575   3.075  0.00  0.00     0.279 HD
ENDBRANCH  33  34
ENDBRANCH  32  33
ENDBRANCH   4  32
TORSDOF 9
ENDMDL
MODEL 3
REMARK VINA RESULT:   -10.069      2.896      5.602
REMARK INTER + INTRA:         -15.535
REMARK INTER:                 -12.753
REMARK INTRA:                  -2.782
REMARK CONF_INDEPENDENT:        2.685
REMARK UNBOUND:                -2.782
REMARK  9 active torsions:
REMARK  status: ('A' for Active; 'I' for Inactive)
REMARK    1  A    between atoms: C_2  and  C_5 
REMARK    2  A    between atoms: C_7  and  C_8 
REMARK    3  A    between atoms: C_8  and  C_10 
REMARK    4  A    between atoms: C_10  and  N_11 
REMARK    5  A    between atoms: N_14  and  C_15 
REMARK    6  A    between atoms: C_15  and  C_16 
REMARK    7  A    between atoms: C_16  and  N_17 
REMARK    8  A    between atoms: C_30  and  C_31 
REMARK    9  A    between atoms: C_35  and  O_36 
ROOT
ATOM      1  N   UNL d   1      30.716 -15.850  -0.851  0.00  0.00    -0.174 N 
ATOM      2  C   UNL d   1      31.269 -16.171   0.365  0.00  0.00     0.681 A 
ATOM      3  N   UNL d   1      31.369 -17.442   0.812  0.00  0.00    -0.234 N 
ATOM      4  N   UNL d   1      31.737 -15.064   1.037  0.00  0.00    -0.180 N 
ATOM      5  C   UNL d   1      31.482 -13.957   0.168  0.00  0.00     0.079 A 
ATOM      6  C   UNL d   1      31.787 -12.621   0.331  0.00  0.00     0.032 A 
ATOM      7  C   UNL d   1      31.448 -11.764  -0.720  0.00  0.00     0.002 A 
ATOM      8  C   UNL d   1      30.813 -12.254  -1.880  0.00  0.00     0.002 A 
ATOM      9  C   UNL d   1      30.504 -13.611  -2.021  0.00  0.00     0.032 A 
ATOM     10  C   UNL d   1      30.852 -14.444  -0.984  0.00  0.00     0.079 A 
ATOM     11  H   UNL d   1      30.819 -18.146   0.333  0.00  0.00     0.174 HD
ATOM     12  H   UNL d   1      31.530 -17.768   1.740  0.00  0.00     0.174 HD
ENDROOT
BRANCH   1  13
ATOM     13  C   UNL d   1      30.065 -16.765  -1.776  0.00  0.00     0.231 C 
BRANCH  13  14
ATOM     14  C   UNL d   1      28.818 -17.363  -1.158  0.00  0.00     0.178 C 
ATOM     15  O   UNL d   1      28.853 -18.429  -0.520  0.00  0.00    -0.290 OA
BRANCH  14  16
ATOM     16  C   UNL d   1      27.510 -16.765  -1.444  0.00  0.00     0.013 A 
ATOM     17  C   UNL d   1      27.470 -15.619  -2.237  0.00  0.00     0.026 A 
ATOM     18  C   UNL d   1      26.249 -15.024  -2.565  0.00  0.00    -0.016 A 
ATOM     19  C   UNL d   1      25.077 -15.627  -2.067  0.00  0.00     0.079 A 
ATOM     20  C   UNL d   1      25.077 -16.772  -1.258  0.00  0.00    -0.016 A 
ATOM     21  C   UNL d   1      26.335 -17.321  -0.945  0.00  0.00     0.026 A 
BRANCH  18  22
ATOM     22  C   UNL d   1      26.194 -13.812  -3.530  0.00  0.00    -0.021 C 
ATOM     23  C   UNL d   1      27.565 -13.717  -4.222  0.00  0.00     0.019 C 
ATOM     24  C   UNL d   1      25.893 -12.520  -2.753  0.00  0.00     0.019 C 
ATOM     25  C   UNL d   1      25.111 -13.871  -4.645  0.00  0.00     0.019 C 
ENDBRANCH  18  22
BRANCH  19  26
ATOM     26  O   UNL d   1      23.970 -14.996  -2.498  0.00  0.00    -0.360 OA
ATOM     27  H   UNL d   1      23.766 -14.090  -2.292  0.00  0.00     0.217 HD
ENDBRANCH  19  26
BRANCH  20  28
ATOM     28  C   UNL d   1      23.827 -17.492  -0.729  0.00  0.00    -0.021 C 
ATOM     29  C   UNL d   1      24.172 -18.200   0.595  0.00  0.00     0.019 C 
ATOM     30  C   UNL d   1      22.703 -16.461  -0.519  0.00  0.00     0.019 C 
ATOM     31  C   UNL d   1      23.247 -18.575  -1.646  0.00  0.00     0.019 C 
ENDBRANCH  20  28
ENDBRANCH  14  16
ENDBRANCH  13  14
ENDBRANCH   1  13
BRANCH   4  32
ATOM     32  C   UNL d   1      32.343 -14.938   2.341  0.00  0.00     0.175 C 
BRANCH  32  33
ATOM     33  C   UNL d   1      31.563 -14.065   3.326  0.00  0.00     0.255 C 
BRANCH  33  34
ATOM     34  N   UNL d   1      30.199 -14.563   3.629  0.00  0.00    -0.070 N 
ATOM     35  C   UNL d   1      29.917 -14.457   5.121  0.00  0.00     0.235 C 
ATOM     36  C   UNL d   1      28.501 -14.902   5.404  0.00  0.00     0.028 C 
ATOM     37  C   UNL d   1      27.539 -14.082   4.560  0.00  0.00     0.003 C 
ATOM     38  C   UNL d   1      27.780 -14.404   3.091  0.00  0.00     0.028 C 
ATOM     39  C   UNL d   1      29.160 -13.939   2.714  0.00  0.00     0.235 C 
ATOM     40  H   UNL d   1      30.197 -15.575   3.418  0.00  0.00     0.279 HD
ENDBRANCH  33  34
ENDBRANCH  32  33
ENDBRANCH   4  32
TORSDOF 9
ENDMDL
MODEL 4
REMARK VINA RESULT:    -9.936      2.848      6.015
REMARK INTER + INTRA:         -14.903
REMARK INTER:                 -12.621
REMARK INTRA:                  -2.282
REMARK CONF_INDEPENDENT:        2.685
REMARK UNBOUND:                -2.282
REMARK  9 active torsions:
REMARK  status: ('A' for Active; 'I' for Inactive)
REMARK    1  A    between atoms: C_2  and  C_5 
REMARK    2  A    between atoms: C_7  and  C_8 
REMARK    3  A    between atoms: C_8  and  C_10 
REMARK    4  A    between atoms: C_10  and  N_11 
REMARK    5  A    between atoms: N_14  and  C_15 
REMARK    6  A    between atoms: C_15  and  C_16 
REMARK    7  A    between atoms: C_16  and  N_17 
REMARK    8  A    between atoms: C_30  and  C_31 
REMARK    9  A    between atoms: C_35  and  O_36 
ROOT
ATOM      1  N   UNL d   1      25.532 -15.361  -1.766  0.00  0.00    -0.174 N 
ATOM      2  C   UNL d   1      24.180 -15.603  -1.720  0.00  0.00     0.681 A 
ATOM      3  N   UNL d   1      23.278 -14.856  -2.394  0.00  0.00    -0.234 N 
ATOM      4  N   UNL d   1      23.870 -16.703  -0.951  0.00  0.00    -0.180 N 
ATOM      5  C   UNL d   1      25.125 -17.212  -0.495  0.00  0.00     0.079 A 
ATOM      6  C   UNL d   1      25.398 -18.326   0.275  0.00  0.00     0.032 A 
ATOM      7  C   UNL d   1      26.743 -18.602   0.531  0.00  0.00     0.002 A 
ATOM      8  C   UNL d   1      27.764 -17.767   0.031  0.00  0.00     0.002 A 
ATOM      9  C   UNL d   1      27.466 -16.638  -0.740  0.00  0.00     0.032 A 
ATOM     10  C   UNL d   1      26.139 -16.384  -0.993  0.00  0.00     0.079 A 
ATOM     11  H   UNL d   1      23.596 -13.965  -2.758  0.00  0.00     0.174 HD
ATOM     12  H   UNL d   1      22.293 -14.791  -2.257  0.00  0.00     0.174 HD
ENDROOT
BRANCH   1  13
ATOM     13  C   UNL d   1      26.190 -14.242  -2.422  0.00  0.00     0.231 C 
BRANCH  13  14
ATOM     14  C   UNL d   1      25.958 -14.279  -3.919  0.00  0.00     0.178 C 
ATOM     15  O   UNL d   1      24.838 -14.526  -4.399  0.00  0.00    -0.290 OA
BRANCH  14  16
ATOM     16  C   UNL d   1      27.101 -14.179  -4.832  0.00  0.00     0.013 A 
ATOM     17  C   UNL d   1      28.099 -15.149  -4.746  0.00  0.00     0.026 A 
ATOM     18  C   UNL d   1      29.196 -15.117  -5.610  0.00  0.00    -0.016 A 
ATOM     19  C   UNL d   1      29.247 -14.078  -6.560  0.00  0.00     0.079 A 
ATOM     20  C   UNL d   1      28.270 -13.078  -6.669  0.00  0.00    -0.016 A 
ATOM     21  C   UNL d   1      27.195 -13.148  -5.764  0.00  0.00     0.026 A 
BRANCH  18  22
ATOM     22  C   UNL d   1      30.253 -16.251  -5.587  0.00  0.00    -0.021 C 
ATOM     23  C   UNL d   1      29.847 -17.232  -4.473  0.00  0.00     0.019 C 
ATOM     24  C   UNL d   1      31.652 -15.676  -5.312  0.00  0.00     0.019 C 
ATOM     25  C   UNL d   1      30.408 -17.073  -6.899  0.00  0.00     0.019 C 
ENDBRANCH  18  22
BRANCH  19  26
ATOM     26  O   UNL d   1      30.318 -14.191  -7.366  0.00  0.00    -0.360 OA
ATOM     27  H   UNL d   1      30.272 -14.130  -8.315  0.00  0.00     0.217 HD
ENDBRANCH  19  26
BRANCH  20  28
ATOM     28  C   UNL d   1      28.257 -11.953  -7.715  0.00  0.00    -0.021 C 
ATOM     29  C   UNL d   1      28.456 -12.561  -9.116  0.00  0.00     0.019 C 
ATOM     30  C   UNL d   1      26.915 -11.203  -7.632  0.00  0.00     0.019 C 
ATOM     31  C   UNL d   1      29.350 -10.889  -7.560  0.00  0.00     0.019 C 
ENDBRANCH  20  28
ENDBRANCH  14  16
ENDBRANCH  13  14
ENDBRANCH   1  13
BRANCH   4  32
ATOM     32  C   UNL d   1      22.595 -17.282  -0.603  0.00  0.00     0.175 C 
BRANCH  32  33
ATOM     33  C   UNL d   1      22.392 -18.719  -1.086  0.00  0.00     0.255 C 
BRANCH  33  34
ATOM     34  N   UNL d   1      21.410 -19.494  -0.287  0.00  0.00    -0.070 N 
ATOM     35  C   UNL d   1      21.334 -18.947   1.132  0.00  0.00     0.235 C 
ATOM     36  C   UNL d   1      20.281 -19.700   1.911  0.00  0.00     0.028 C 
ATOM     37  C   UNL d   1      18.955 -19.618   1.172  0.00  0.00     0.003 C 
ATOM     38  C   UNL d   1      19.085 -20.357  -0.153  0.00  0.00     0.028 C 
ATOM     39  C   UNL d   1      20.084 -19.632  -1.014  0.00  0.00     0.235 C 
ATOM     40  H   UNL d   1      21.789 -20.451  -0.196  0.00  0.00     0.279 HD
ENDBRANCH  33  34
ENDBRANCH  32  33
ENDBRANCH   4  32
TORSDOF 9
ENDMDL
MODEL 5
REMARK VINA RESULT:    -9.925      2.883      5.210
REMARK INTER + INTRA:         -14.884
REMARK INTER:                 -12.610
REMARK INTRA:                  -2.274
REMARK CONF_INDEPENDENT:        2.685
REMARK UNBOUND:                -2.274
REMARK  9 active torsions:
REMARK  status: ('A' for Active; 'I' for Inactive)
REMARK    1  A    between atoms: C_2  and  C_5 
REMARK    2  A    between atoms: C_7  and  C_8 
REMARK    3  A    between atoms: C_8  and  C_10 
REMARK    4  A    between atoms: C_10  and  N_11 
REMARK    5  A    between atoms: N_14  and  C_15 
REMARK    6  A    between atoms: C_15  and  C_16 
REMARK    7  A    between atoms: C_16  and  N_17 
REMARK    8  A    between atoms: C_30  and  C_31 
REMARK    9  A    between atoms: C_35  and  O_36 
ROOT
ATOM      1  N   UNL d   1      25.752 -15.357  -1.864  0.00  0.00    -0.174 N 
ATOM      2  C   UNL d   1      24.401 -15.583  -1.753  0.00  0.00     0.681 A 
ATOM      3  N   UNL d   1      23.478 -14.834  -2.395  0.00  0.00    -0.234 N 
ATOM      4  N   UNL d   1      24.114 -16.671  -0.959  0.00  0.00    -0.180 N 
ATOM      5  C   UNL d   1      25.384 -17.189  -0.553  0.00  0.00     0.079 A 
ATOM      6  C   UNL d   1      25.679 -18.297   0.216  0.00  0.00     0.032 A 
ATOM      7  C   UNL d   1      27.032 -18.585   0.415  0.00  0.00     0.002 A 
ATOM      8  C   UNL d   1      28.038 -17.768  -0.141  0.00  0.00     0.002 A 
ATOM      9  C   UNL d   1      27.717 -16.644  -0.911  0.00  0.00     0.032 A 
ATOM     10  C   UNL d   1      26.382 -16.378  -1.106  0.00  0.00     0.079 A 
ATOM     11  H   UNL d   1      23.788 -13.951  -2.783  0.00  0.00     0.174 HD
ATOM     12  H   UNL d   1      22.500 -14.757  -2.214  0.00  0.00     0.174 HD
ENDROOT
BRANCH   1  13
ATOM     13  C   UNL d   1      26.391 -14.253  -2.562  0.00  0.00     0.231 C 
BRANCH  13  14
ATOM     14  C   UNL d   1      26.124 -14.326  -4.051  0.00  0.00     0.178 C 
ATOM     15  O   UNL d   1      24.975 -14.483  -4.500  0.00  0.00    -0.290 OA
BRANCH  14  16
ATOM     16  C   UNL d   1      27.251 -14.373  -4.988  0.00  0.00     0.013 A 
ATOM     17  C   UNL d   1      27.348 -13.369  -5.951  0.00  0.00     0.026 A 
ATOM     18  C   UNL d   1      28.416 -13.349  -6.850  0.00  0.00    -0.016 A 
ATOM     19  C   UNL d   1      29.380 -14.371  -6.740  0.00  0.00     0.079 A 
ATOM     20  C   UNL d   1      29.311 -15.403  -5.793  0.00  0.00    -0.016 A 
ATOM     21  C   UNL d   1      28.205 -15.385  -4.923  0.00  0.00     0.026 A 
BRANCH  18  22
ATOM     22  C   UNL d   1      28.582 -12.179  -7.854  0.00  0.00    -0.021 C 
ATOM     23  C   UNL d   1      27.487 -11.145  -7.536  0.00  0.00     0.019 C 
ATOM     24  C   UNL d   1      28.439 -12.685  -9.299  0.00  0.00     0.019 C 
ATOM     25  C   UNL d   1      29.948 -11.436  -7.823  0.00  0.00     0.019 C 
ENDBRANCH  18  22
BRANCH  19  26
ATOM     26  O   UNL d   1      30.383 -14.207  -7.621  0.00  0.00    -0.360 OA
ATOM     27  H   UNL d   1      30.319 -13.661  -8.398  0.00  0.00     0.217 HD
ENDBRANCH  19  26
BRANCH  20  28
ATOM     28  C   UNL d   1      30.358 -16.511  -5.604  0.00  0.00    -0.021 C 
ATOM     29  C   UNL d   1      29.936 -17.410  -4.426  0.00  0.00     0.019 C 
ATOM     30  C   UNL d   1      30.466 -17.330  -6.903  0.00  0.00     0.019 C 
ATOM     31  C   UNL d   1      31.778 -16.035  -5.281  0.00  0.00     0.019 C 
ENDBRANCH  20  28
ENDBRANCH  14  16
ENDBRANCH  13  14
ENDBRANCH   1  13
BRANCH   4  32
ATOM     32  C   UNL d   1      22.850 -17.232  -0.546  0.00  0.00     0.175 C 
BRANCH  32  33
ATOM     33  C   UNL d   1      22.472 -18.538  -1.246  0.00  0.00     0.255 C 
BRANCH  33  34
ATOM     34  N   UNL d   1      21.447 -19.336  -0.527  0.00  0.00    -0.070 N 
ATOM     35  C   UNL d   1      21.403 -18.939   0.942  0.00  0.00     0.235 C 
ATOM     36  C   UNL d   1      20.308 -19.709   1.643  0.00  0.00     0.028 C 
ATOM     37  C   UNL d   1      18.989 -19.473   0.925  0.00  0.00     0.003 C 
ATOM     38  C   UNL d   1      19.077 -20.075  -0.471  0.00  0.00     0.028 C 
ATOM     39  C   UNL d   1      20.116 -19.321  -1.257  0.00  0.00     0.235 C 
ATOM     40  H   UNL d   1      21.771 -20.317  -0.539  0.00  0.00     0.279 HD
ENDBRANCH  33  34
ENDBRANCH  32  33
ENDBRANCH   4  32
TORSDOF 9
ENDMDL
MODEL 6
REMARK VINA RESULT:    -9.831      2.952      6.023
REMARK INTER + INTRA:         -14.386
REMARK INTER:                 -12.516
REMARK INTRA:                  -1.870
REMARK CONF_INDEPENDENT:        2.685
REMARK UNBOUND:                -1.870
REMARK  9 active torsions:
REMARK  status: ('A' for Active; 'I' for Inactive)
REMARK    1  A    between atoms: C_2  and  C_5 
REMARK    2  A    between atoms: C_7  and  C_8 
REMARK    3  A    between atoms: C_8  and  C_10 
REMARK    4  A    between atoms: C_10  and  N_11 
REMARK    5  A    between atoms: N_14  and  C_15 
REMARK    6  A    between atoms: C_15  and  C_16 
REMARK    7  A    between atoms: C_16  and  N_17 
REMARK    8  A    between atoms: C_30  and  C_31 
REMARK    9  A    between atoms: C_35  and  O_36 
ROOT
ATOM      1  N   UNL d   1      28.826 -13.645   2.923  0.00  0.00    -0.174 N 
ATOM      2  C   UNL d   1      30.099 -13.604   3.438  0.00  0.00     0.681 A 
ATOM      3  N   UNL d   1      30.928 -14.672   3.430  0.00  0.00    -0.234 N 
ATOM      4  N   UNL d   1      30.433 -12.356   3.916  0.00  0.00    -0.180 N 
ATOM      5  C   UNL d   1      29.290 -11.535   3.661  0.00  0.00     0.079 A 
ATOM      6  C   UNL d   1      29.101 -10.189   3.901  0.00  0.00     0.032 A 
ATOM      7  C   UNL d   1      27.878  -9.643   3.503  0.00  0.00     0.002 A 
ATOM      8  C   UNL d   1      26.888 -10.444   2.896  0.00  0.00     0.002 A 
ATOM      9  C   UNL d   1      27.096 -11.809   2.670  0.00  0.00     0.032 A 
ATOM     10  C   UNL d   1      28.308 -12.330   3.058  0.00  0.00     0.079 A 
ATOM     11  H   UNL d   1      30.513 -15.577   3.241  0.00  0.00     0.174 HD
ATOM     12  H   UNL d   1      31.755 -14.825   3.964  0.00  0.00     0.174 HD
ENDROOT
BRANCH   1  13
ATOM     13  C   UNL d   1      28.136 -14.817   2.409  0.00  0.00     0.231 C 
BRANCH  13  14
ATOM     14  C   UNL d   1      28.502 -15.069   0.961  0.00  0.00     0.178 C 
ATOM     15  O   UNL d   1      29.686 -15.101   0.583  0.00  0.00    -0.290 OA
BRANCH  14  16
ATOM     16  C   UNL d   1      27.445 -15.123  -0.054  0.00  0.00     0.013 A 
ATOM     17  C   UNL d   1      27.564 -14.299  -1.173  0.00  0.00     0.026 A 
ATOM     18  C   UNL d   1      26.601 -14.331  -2.184  0.00  0.00    -0.016 A 
ATOM     19  C   UNL d   1      25.520 -15.221  -2.026  0.00  0.00     0.079 A 
ATOM     20  C   UNL d   1      25.359 -16.055  -0.912  0.00  0.00    -0.016 A 
ATOM     21  C   UNL d   1      26.350 -15.972   0.085  0.00  0.00     0.026 A 
BRANCH  18  22
ATOM     22  C   UNL d   1      26.784 -13.493  -3.476  0.00  0.00    -0.021 C 
ATOM     23  C   UNL d   1      28.061 -12.652  -3.299  0.00  0.00     0.019 C 
ATOM     24  C   UNL d   1      25.567 -12.581  -3.702  0.00  0.00     0.019 C 
ATOM     25  C   UNL d   1      26.935 -14.296  -4.800  0.00  0.00     0.019 C 
ENDBRANCH  18  22
BRANCH  19  26
ATOM     26  O   UNL d   1      24.696 -15.198  -3.090  0.00  0.00    -0.360 OA
ATOM     27  H   UNL d   1      23.977 -14.582  -3.186  0.00  0.00     0.217 HD
ENDBRANCH  19  26
BRANCH  20  28
ATOM     28  C   UNL d   1      24.226 -17.074  -0.715  0.00  0.00    -0.021 C 
ATOM     29  C   UNL d   1      22.934 -16.326  -0.334  0.00  0.00     0.019 C 
ATOM     30  C   UNL d   1      24.031 -17.869  -2.019  0.00  0.00     0.019 C 
ATOM     31  C   UNL d   1      24.451 -18.113   0.388  0.00  0.00     0.019 C 
ENDBRANCH  20  28
ENDBRANCH  14  16
ENDBRANCH  13  14
ENDBRANCH   1  13
BRANCH   4  32
ATOM     32  C   UNL d   1      31.631 -11.884   4.566  0.00  0.00     0.175 C 
BRANCH  32  33
ATOM     33  C   UNL d   1      31.487 -11.638   6.069  0.00  0.00     0.255 C 
BRANCH  33  34
ATOM     34  N   UNL d   1      31.029 -12.822   6.837  0.00  0.00    -0.070 N 
ATOM     35  C   UNL d   1      31.735 -12.884   8.185  0.00  0.00     0.235 C 
ATOM     36  C   UNL d   1      31.208 -14.055   8.981  0.00  0.00     0.028 C 
ATOM     37  C   UNL d   1      29.698 -13.936   9.108  0.00  0.00     0.003 C 
ATOM     38  C   UNL d   1      29.077 -14.075   7.725  0.00  0.00     0.028 C 
ATOM     39  C   UNL d   1      29.514 -12.909   6.880  0.00  0.00     0.235 C 
ATOM     40  H   UNL d   1      31.350 -13.656   6.318  0.00  0.00     0.279 HD
ENDBRANCH  33  34
ENDBRANCH  32  33
ENDBRANCH   4  32
TORSDOF 9
ENDMDL
MODEL 7
REMARK VINA RESULT:    -9.826      2.869      6.070
REMARK INTER + INTRA:         -15.202
REMARK INTER:                 -12.510
REMARK INTRA:                  -2.692
REMARK CONF_INDEPENDENT:        2.685
REMARK UNBOUND:                -2.692
REMARK  9 active torsions:
REMARK  status: ('A' for Active; 'I' for Inactive)
REMARK    1  A    between atoms: C_2  and  C_5 
REMARK    2  A    between atoms: C_7  and  C_8 
REMARK    3  A    between atoms: C_8  and  C_10 
REMARK    4  A    between atoms: C_10  and  N_11 
REMARK    5  A    between atoms: N_14  and  C_15 
REMARK    6  A    between atoms: C_15  and  C_16 
REMARK    7  A    between atoms: C_16  and  N_17 
REMARK    8  A    between atoms: C_30  and  C_31 
REMARK    9  A    between atoms: C_35  and  O_36 
ROOT
ATOM      1  N   UNL d   1      30.805 -15.626  -0.806  0.00  0.00    -0.174 N 
ATOM      2  C   UNL d   1      31.282 -15.979   0.433  0.00  0.00     0.681 A 
ATOM      3  N   UNL d   1      31.324 -17.258   0.866  0.00  0.00    -0.234 N 
ATOM      4  N   UNL d   1      31.741 -14.894   1.148  0.00  0.00    -0.180 N 
ATOM      5  C   UNL d   1      31.563 -13.769   0.284  0.00  0.00     0.079 A 
ATOM      6  C   UNL d   1      31.895 -12.444   0.483  0.00  0.00     0.032 A 
ATOM      7  C   UNL d   1      31.636 -11.563  -0.571  0.00  0.00     0.002 A 
ATOM      8  C   UNL d   1      31.054 -12.019  -1.772  0.00  0.00     0.002 A 
ATOM      9  C   UNL d   1      30.717 -13.366  -1.950  0.00  0.00     0.032 A 
ATOM     10  C   UNL d   1      30.986 -14.222  -0.908  0.00  0.00     0.079 A 
ATOM     11  H   UNL d   1      30.782 -17.940   0.346  0.00  0.00     0.174 HD
ATOM     12  H   UNL d   1      31.424 -17.601   1.797  0.00  0.00     0.174 HD
ENDROOT
BRANCH   1  13
ATOM     13  C   UNL d   1      30.183 -16.510  -1.778  0.00  0.00     0.231 C 
BRANCH  13  14
ATOM     14  C   UNL d   1      28.940 -17.157  -1.204  0.00  0.00     0.178 C 
ATOM     15  O   UNL d   1      29.002 -18.192  -0.518  0.00  0.00    -0.290 OA
BRANCH  14  16
ATOM     16  C   UNL d   1      27.617 -16.653  -1.588  0.00  0.00     0.013 A 
ATOM     17  C   UNL d   1      26.493 -17.272  -1.042  0.00  0.00     0.026 A 
ATOM     18  C   UNL d   1      25.210 -16.814  -1.350  0.00  0.00    -0.016 A 
ATOM     19  C   UNL d   1      25.105 -15.713  -2.223  0.00  0.00     0.079 A 
ATOM     20  C   UNL d   1      26.209 -15.072  -2.801  0.00  0.00    -0.016 A 
ATOM     21  C   UNL d   1      27.478 -15.584  -2.470  0.00  0.00     0.026 A 
BRANCH  18  22
ATOM     22  C   UNL d   1      23.965 -17.432  -0.665  0.00  0.00    -0.021 C 
ATOM     23  C   UNL d   1      24.458 -18.197   0.576  0.00  0.00     0.019 C 
ATOM     24  C   UNL d   1      23.238 -18.384  -1.629  0.00  0.00     0.019 C 
ATOM     25  C   UNL d   1      22.873 -16.430  -0.191  0.00  0.00     0.019 C 
ENDBRANCH  18  22
BRANCH  19  26
ATOM     26  O   UNL d   1      23.825 -15.334  -2.395  0.00  0.00    -0.360 OA
ATOM     27  H   UNL d   1      23.508 -14.455  -2.215  0.00  0.00     0.217 HD
ENDBRANCH  19  26
BRANCH  20  28
ATOM     28  C   UNL d   1      26.148 -13.843  -3.721  0.00  0.00    -0.021 C 
ATOM     29  C   UNL d   1      26.814 -12.647  -3.013  0.00  0.00     0.019 C 
ATOM     30  C   UNL d   1      26.870 -14.165  -5.042  0.00  0.00     0.019 C 
ATOM     31  C   UNL d   1      24.742 -13.373  -4.108  0.00  0.00     0.019 C 
ENDBRANCH  20  28
ENDBRANCH  14  16
ENDBRANCH  13  14
ENDBRANCH   1  13
BRANCH   4  32
ATOM     32  C   UNL d   1      32.278 -14.803   2.484  0.00  0.00     0.175 C 
BRANCH  32  33
ATOM     33  C   UNL d   1      31.425 -13.990   3.461  0.00  0.00     0.255 C 
BRANCH  33  34
ATOM     34  N   UNL d   1      30.023 -14.463   3.579  0.00  0.00    -0.070 N 
ATOM     35  C   UNL d   1      29.585 -14.456   5.038  0.00  0.00     0.235 C 
ATOM     36  C   UNL d   1      28.135 -14.872   5.135  0.00  0.00     0.028 C 
ATOM     37  C   UNL d   1      27.292 -13.960   4.258  0.00  0.00     0.003 C 
ATOM     38  C   UNL d   1      27.681 -14.182   2.803  0.00  0.00     0.028 C 
ATOM     39  C   UNL d   1      29.106 -13.738   2.610  0.00  0.00     0.235 C 
ATOM     40  H   UNL d   1      30.018 -15.456   3.293  0.00  0.00     0.279 HD
ENDBRANCH  33  34
ENDBRANCH  32  33
ENDBRANCH   4  32
TORSDOF 9
ENDMDL
MODEL 8
REMARK VINA RESULT:    -9.776      2.449      3.147
REMARK INTER + INTRA:         -14.410
REMARK INTER:                 -12.461
REMARK INTRA:                  -1.948
REMARK CONF_INDEPENDENT:        2.685
REMARK UNBOUND:                -1.948
REMARK  9 active torsions:
REMARK  status: ('A' for Active; 'I' for Inactive)
REMARK    1  A    between atoms: C_2  and  C_5 
REMARK    2  A    between atoms: C_7  and  C_8 
REMARK    3  A    between atoms: C_8  and  C_10 
REMARK    4  A    between atoms: C_10  and  N_11 
REMARK    5  A    between atoms: N_14  and  C_15 
REMARK    6  A    between atoms: C_15  and  C_16 
REMARK    7  A    between atoms: C_16  and  N_17 
REMARK    8  A    between atoms: C_30  and  C_31 
REMARK    9  A    between atoms: C_35  and  O_36 
ROOT
ATOM      1  N   UNL d   1      26.273 -15.019  -1.710  0.00  0.00    -0.174 N 
ATOM      2  C   UNL d   1      27.503 -15.478  -1.305  0.00  0.00     0.681 A 
ATOM      3  N   UNL d   1      28.641 -14.770  -1.470  0.00  0.00    -0.234 N 
ATOM      4  N   UNL d   1      27.426 -16.705  -0.683  0.00  0.00    -0.180 N 
ATOM      5  C   UNL d   1      26.035 -17.038  -0.673  0.00  0.00     0.079 A 
ATOM      6  C   UNL d   1      25.396 -18.137  -0.135  0.00  0.00     0.032 A 
ATOM      7  C   UNL d   1      24.003 -18.172  -0.242  0.00  0.00     0.002 A 
ATOM      8  C   UNL d   1      23.298 -17.132  -0.882  0.00  0.00     0.002 A 
ATOM      9  C   UNL d   1      23.966 -16.030  -1.428  0.00  0.00     0.032 A 
ATOM     10  C   UNL d   1      25.335 -16.005  -1.307  0.00  0.00     0.079 A 
ATOM     11  H   UNL d   1      28.608 -13.984  -2.110  0.00  0.00     0.174 HD
ATOM     12  H   UNL d   1      29.586 -15.086  -1.432  0.00  0.00     0.174 HD
ENDROOT
BRANCH   1  13
ATOM     13  C   UNL d   1      26.007 -13.801  -2.459  0.00  0.00     0.231 C 
BRANCH  13  14
ATOM     14  C   UNL d   1      25.791 -14.104  -3.927  0.00  0.00     0.178 C 
ATOM     15  O   UNL d   1      24.679 -14.448  -4.365  0.00  0.00    -0.290 OA
BRANCH  14  16
ATOM     16  C   UNL d   1      26.942 -14.149  -4.835  0.00  0.00     0.013 A 
ATOM     17  C   UNL d   1      27.033 -13.177  -5.830  0.00  0.00     0.026 A 
ATOM     18  C   UNL d   1      28.123 -13.156  -6.704  0.00  0.00    -0.016 A 
ATOM     19  C   UNL d   1      29.112 -14.146  -6.535  0.00  0.00     0.079 A 
ATOM     20  C   UNL d   1      29.049 -15.146  -5.555  0.00  0.00    -0.016 A 
ATOM     21  C   UNL d   1      27.922 -15.131  -4.712  0.00  0.00     0.026 A 
BRANCH  18  22
ATOM     22  C   UNL d   1      28.280 -12.017  -7.743  0.00  0.00    -0.021 C 
ATOM     23  C   UNL d   1      29.520 -11.199  -7.342  0.00  0.00     0.019 C 
ATOM     24  C   UNL d   1      27.028 -11.123  -7.755  0.00  0.00     0.019 C 
ATOM     25  C   UNL d   1      28.470 -12.459  -9.223  0.00  0.00     0.019 C 
ENDBRANCH  18  22
BRANCH  19  26
ATOM     26  O   UNL d   1      30.132 -13.983  -7.398  0.00  0.00    -0.360 OA
ATOM     27  H   UNL d   1      30.048 -14.093  -8.339  0.00  0.00     0.217 HD
ENDBRANCH  19  26
BRANCH  20  28
ATOM     28  C   UNL d   1      30.122 -16.216  -5.302  0.00  0.00    -0.021 C 
ATOM     29  C   UNL d   1      31.451 -15.526  -4.941  0.00  0.00     0.019 C 
ATOM     30  C   UNL d   1      29.656 -17.136  -4.159  0.00  0.00     0.019 C 
ATOM     31  C   UNL d   1      30.434 -17.136  -6.488  0.00  0.00     0.019 C 
ENDBRANCH  20  28
ENDBRANCH  14  16
ENDBRANCH  13  14
ENDBRANCH   1  13
BRANCH   4  32
ATOM     32  C   UNL d   1      28.459 -17.559  -0.148  0.00  0.00     0.175 C 
BRANCH  32  33
ATOM     33  C   UNL d   1      29.769 -17.549  -0.939  0.00  0.00     0.255 C 
BRANCH  33  34
ATOM     34  N   UNL d   1      30.962 -17.919  -0.139  0.00  0.00    -0.070 N 
ATOM     35  C   UNL d   1      31.933 -18.733  -0.984  0.00  0.00     0.235 C 
ATOM     36  C   UNL d   1      33.173 -19.042  -0.178  0.00  0.00     0.028 C 
ATOM     37  C   UNL d   1      33.777 -17.744   0.332  0.00  0.00     0.003 C 
ATOM     38  C   UNL d   1      32.805 -17.103   1.313  0.00  0.00     0.028 C 
ATOM     39  C   UNL d   1      31.555 -16.714   0.571  0.00  0.00     0.235 C 
ATOM     40  H   UNL d   1      30.637 -18.560   0.604  0.00  0.00     0.279 HD
ENDBRANCH  33  34
ENDBRANCH  32  33
ENDBRANCH   4  32
TORSDOF 9
ENDMDL
MODEL 9
REMARK VINA RESULT:    -8.871      2.092      3.734
REMARK INTER + INTRA:         -14.449
REMARK INTER:                 -11.555
REMARK INTRA:                  -2.894
REMARK CONF_INDEPENDENT:        2.685
REMARK UNBOUND:                -2.894
REMARK  9 active torsions:
REMARK  status: ('A' for Active; 'I' for Inactive)
REMARK    1  A    between atoms: C_2  and  C_5 
REMARK    2  A    between atoms: C_7  and  C_8 
REMARK    3  A    between atoms: C_8  and  C_10 
REMARK    4  A    between atoms: C_10  and  N_11 
REMARK    5  A    between atoms: N_14  and  C_15 
REMARK    6  A    between atoms: C_15  and  C_16 
REMARK    7  A    between atoms: C_16  and  N_17 
REMARK    8  A    between atoms: C_30  and  C_31 
REMARK    9  A    between atoms: C_35  and  O_36 
ROOT
ATOM      1  N   UNL d   1      29.598 -17.075  -0.511  0.00  0.00    -0.174 N 
ATOM      2  C   UNL d   1      30.354 -16.138   0.151  0.00  0.00     0.681 A 
ATOM      3  N   UNL d   1      31.701 -16.202   0.224  0.00  0.00    -0.234 N 
ATOM      4  N   UNL d   1      29.586 -15.125   0.683  0.00  0.00    -0.180 N 
ATOM      5  C   UNL d   1      28.241 -15.433   0.307  0.00  0.00     0.079 A 
ATOM      6  C   UNL d   1      27.078 -14.729   0.543  0.00  0.00     0.032 A 
ATOM      7  C   UNL d   1      25.899 -15.260   0.012  0.00  0.00     0.002 A 
ATOM      8  C   UNL d   1      25.912 -16.466  -0.719  0.00  0.00     0.002 A 
ATOM      9  C   UNL d   1      27.101 -17.170  -0.939  0.00  0.00     0.032 A 
ATOM     10  C   UNL d   1      28.254 -16.630  -0.419  0.00  0.00     0.079 A 
ATOM     11  H   UNL d   1      32.137 -17.082  -0.026  0.00  0.00     0.174 HD
ATOM     12  H   UNL d   1      32.317 -15.729   0.850  0.00  0.00     0.174 HD
ENDROOT
BRANCH   1  13
ATOM     13  C   UNL d   1      30.081 -18.304  -1.120  0.00  0.00     0.231 C 
BRANCH  13  14
ATOM     14  C   UNL d   1      31.109 -18.010  -2.193  0.00  0.00     0.178 C 
ATOM     15  O   UNL d   1      32.329 -18.113  -1.973  0.00  0.00    -0.290 OA
BRANCH  14  16
ATOM     16  C   UNL d   1      30.678 -17.439  -3.473  0.00  0.00     0.013 A 
ATOM     17  C   UNL d   1      29.655 -16.491  -3.459  0.00  0.00     0.026 A 
ATOM     18  C   UNL d   1      29.225 -15.894  -4.646  0.00  0.00    -0.016 A 
ATOM     19  C   UNL d   1      29.863 -16.285  -5.840  0.00  0.00     0.079 A 
ATOM     20  C   UNL d   1      30.885 -17.242  -5.896  0.00  0.00    -0.016 A 
ATOM     21  C   UNL d   1      31.270 -17.824  -4.673  0.00  0.00     0.026 A 
BRANCH  18  22
ATOM     22  C   UNL d   1      28.161 -14.766  -4.623  0.00  0.00    -0.021 C 
ATOM     23  C   UNL d   1      27.826 -14.485  -3.148  0.00  0.00     0.019 C 
ATOM     24  C   UNL d   1      26.900 -15.201  -5.387  0.00  0.00     0.019 C 
ATOM     25  C   UNL d   1      28.578 -13.416  -5.273  0.00  0.00     0.019 C 
ENDBRANCH  18  22
BRANCH  19  26
ATOM     26  O   UNL d   1      29.399 -15.599  -6.901  0.00  0.00    -0.360 OA
ATOM     27  H   UNL d   1      29.937 -15.357  -7.647  0.00  0.00     0.217 HD
ENDBRANCH  19  26
BRANCH  20  28
ATOM     28  C   UNL d   1      31.642 -17.668  -7.164  0.00  0.00    -0.021 C 
ATOM     29  C   UNL d   1      30.786 -18.682  -7.947  0.00  0.00     0.019 C 
ATOM     30  C   UNL d   1      31.932 -16.422  -8.020  0.00  0.00     0.019 C 
ATOM     31  C   UNL d   1      32.995 -18.350  -6.932  0.00  0.00     0.019 C 
ENDBRANCH  20  28
ENDBRANCH  14  16
ENDBRANCH  13  14
ENDBRANCH   1  13
BRANCH   4  32
ATOM     32  C   UNL d   1      29.955 -13.979   1.477  0.00  0.00     0.175 C 
BRANCH  32  33
ATOM     33  C   UNL d   1      30.524 -14.314   2.857  0.00  0.00     0.255 C 
BRANCH  33  34
ATOM     34  N   UNL d   1      29.491 -14.559   3.895  0.00  0.00    -0.070 N 
ATOM     35  C   UNL d   1      30.053 -14.263   5.279  0.00  0.00     0.235 C 
ATOM     36  C   UNL d   1      28.970 -14.449   6.317  0.00  0.00     0.028 C 
ATOM     37  C   UNL d   1      27.779 -13.575   5.961  0.00  0.00     0.003 C 
ATOM     38  C   UNL d   1      27.177 -14.073   4.655  0.00  0.00     0.028 C 
ATOM     39  C   UNL d   1      28.181 -13.871   3.552  0.00  0.00     0.235 C 
ATOM     40  H   UNL d   1      29.294 -15.573   3.886  0.00  0.00     0.279 HD
ENDBRANCH  33  34
ENDBRANCH  32  33
ENDBRANCH   4  32
TORSDOF 9
ENDMDL
