MODEL 1
REMARK VINA RESULT:   -10.351      0.000      0.000
REMARK INTER + INTRA:         -14.712
REMARK INTER:                 -13.036
REMARK INTRA:                  -1.677
REMARK CONF_INDEPENDENT:        2.685
REMARK UNBOUND:                -1.677
REMARK  9 active torsions:
REMARK  status: ('A' for Active; 'I' for Inactive)
REMARK    1  A    between atoms: O_2  and  C_3 
REMARK    2  A    between atoms: C_3  and  C_5 
REMARK    3  A    between atoms: C_8  and  N_9 
REMARK    4  A    between atoms: N_12  and  C_13 
REMARK    5  A    between atoms: C_13  and  C_14 
REMARK    6  A    between atoms: C_22  and  N_23 
REMARK    7  A    between atoms: N_23  and  C_24 
REMARK    8  A    between atoms: C_24  and  N_26 
REMARK       I    between atoms: N_26  and  C_27 
REMARK    9  A    between atoms: C_27  and  C_29 
ROOT
ATOM      1  C   UNL d   1      26.668 -14.580  -3.466  0.00  0.00     0.041 A 
ATOM      2  C   UNL d   1      27.934 -14.253  -3.045  0.00  0.00     0.020 A 
ATOM      3  C   UNL d   1      28.369 -14.687  -1.769  0.00  0.00     0.033 A 
ATOM      4  C   UNL d   1      27.560 -15.444  -0.852  0.00  0.00     0.057 A 
ATOM      5  C   UNL d   1      26.261 -15.802  -1.314  0.00  0.00     0.062 A 
ATOM      6  C   UNL d   1      25.892 -15.306  -2.582  0.00  0.00     0.049 A 
ENDROOT
BRANCH   5   7
ATOM      7  N   UNL d   1      25.309 -16.625  -0.566  0.00  0.00    -0.331 N 
ATOM      8  H   UNL d   1      24.483 -16.130  -0.311  0.00  0.00     0.168 HD
BRANCH   7   9
ATOM      9  C   UNL d   1      25.483 -17.942  -0.037  0.00  0.00     0.179 C 
ATOM     10  S   UNL d   1      26.914 -18.589   0.584  0.00  0.00    -0.040 SA
BRANCH   9  11
ATOM     11  N   UNL d   1      24.326 -18.756  -0.062  0.00  0.00    -0.299 N 
ATOM     12  C   UNL d   1      23.028 -18.206   0.031  0.00  0.00     0.257 C 
ATOM     13  O   UNL d   1      22.744 -17.027   0.237  0.00  0.00    -0.267 OA
ATOM     14  H   UNL d   1      24.389 -19.746  -0.229  0.00  0.00     0.171 HD
BRANCH  12  15
ATOM     15  C   UNL d   1      21.809 -19.005  -0.039  0.00  0.00     0.032 A 
ATOM     16  C   UNL d   1      21.272 -19.175  -1.333  0.00  0.00     0.017 A 
ATOM     17  C   UNL d   1      19.943 -19.525  -1.507  0.00  0.00     0.002 A 
ATOM     18  C   UNL d   1      19.169 -19.792  -0.386  0.00  0.00     0.007 A 
ATOM     19  C   UNL d   1      19.700 -19.641   0.907  0.00  0.00    -0.061 A 
ATOM     20  C   UNL d   1      18.824 -19.827   2.105  0.00  0.00     0.048 C 
ATOM     21  C   UNL d   1      21.030 -19.234   1.085  0.00  0.00     0.023 A 
ENDBRANCH  12  15
ENDBRANCH   9  11
ENDBRANCH   7   9
ENDBRANCH   5   7
BRANCH   4  22
ATOM     22  N   UNL d   1      28.105 -15.714   0.400  0.00  0.00    -0.376 N 
ATOM     23  C   UNL d   1      27.407 -15.695   1.683  0.00  0.00     0.150 C 
ATOM     24  C   UNL d   1      27.925 -14.528   2.567  0.00  0.00     0.255 C 
ATOM     25  N   UNL d   1      29.456 -14.519   2.703  0.00  0.00    -0.064 N 
ATOM     26  C   UNL d   1      30.140 -14.758   1.329  0.00  0.00     0.255 C 
ATOM     27  H   UNL d   1      29.726 -15.297   3.317  0.00  0.00     0.280 HD
ATOM     28  C   UNL d   1      29.548 -15.937   0.542  0.00  0.00     0.150 C 
BRANCH  25  29
ATOM     29  C   UNL d   1      29.935 -13.242   3.418  0.00  0.00     0.273 C 
BRANCH  29  30
ATOM     30  C   UNL d   1      29.496 -13.087   4.853  0.00  0.00    -0.033 A 
ATOM     31  C   UNL d   1      29.546 -14.138   5.781  0.00  0.00     0.009 A 
ATOM     32  C   UNL d   1      28.996 -13.969   7.062  0.00  0.00     0.001 A 
ATOM     33  C   UNL d   1      28.518 -12.726   7.474  0.00  0.00     0.000 A 
ATOM     34  C   UNL d   1      28.488 -11.674   6.578  0.00  0.00     0.001 A 
ATOM     35  C   UNL d   1      28.897 -11.889   5.270  0.00  0.00     0.009 A 
ENDBRANCH  29  30
ENDBRANCH  25  29
ENDBRANCH   4  22
BRANCH   1  36
ATOM     36  C   UNL d   1      26.152 -14.374  -4.858  0.00  0.00     0.293 C 
ATOM     37  O   UNL d   1      25.327 -13.500  -5.118  0.00  0.00    -0.259 OA
BRANCH  36  38
ATOM     38  O   UNL d   1      26.725 -15.214  -5.762  0.00  0.00    -0.323 OA
ATOM     39  C   UNL d   1      28.163 -15.144  -5.842  0.00  0.00     0.213 C 
ENDBRANCH  36  38
ENDBRANCH   1  36
TORSDOF 9
ENDMDL
MODEL 2
REMARK VINA RESULT:   -10.083      2.381      6.677
REMARK INTER + INTRA:         -14.615
REMARK INTER:                 -12.768
REMARK INTRA:                  -1.847
REMARK CONF_INDEPENDENT:        2.685
REMARK UNBOUND:                -1.847
REMARK  9 active torsions:
REMARK  status: ('A' for Active; 'I' for Inactive)
REMARK    1  A    between atoms: O_2  and  C_3 
REMARK    2  A    between atoms: C_3  and  C_5 
REMARK    3  A    between atoms: C_8  and  N_9 
REMARK    4  A    between atoms: N_12  and  C_13 
REMARK    5  A    between atoms: C_13  and  C_14 
REMARK    6  A    between atoms: C_22  and  N_23 
REMARK    7  A    between atoms: N_23  and  C_24 
REMARK    8  A    between atoms: C_24  and  N_26 
REMARK       I    between atoms: N_26  and  C_27 
REMARK    9  A    between atoms: C_27  and  C_29 
ROOT
ATOM      1  C   UNL d   1      24.243 -17.880  -0.893  0.00  0.00     0.041 A 
ATOM      2  C   UNL d   1      25.327 -18.174  -0.102  0.00  0.00     0.020 A 
ATOM      3  C   UNL d   1      26.400 -17.253  -0.032  0.00  0.00     0.033 A 
ATOM      4  C   UNL d   1      26.452 -16.014  -0.760  0.00  0.00     0.057 A 
ATOM      5  C   UNL d   1      25.308 -15.707  -1.553  0.00  0.00     0.062 A 
ATOM      6  C   UNL d   1      24.297 -16.689  -1.593  0.00  0.00     0.049 A 
ENDROOT
BRANCH   5   7
ATOM      7  N   UNL d   1      25.132 -14.469  -2.315  0.00  0.00    -0.331 N 
ATOM      8  H   UNL d   1      24.330 -13.949  -2.031  0.00  0.00     0.168 HD
BRANCH   7   9
ATOM      9  C   UNL d   1      25.840 -14.018  -3.471  0.00  0.00     0.179 C 
ATOM     10  S   UNL d   1      25.261 -12.950  -4.644  0.00  0.00    -0.040 SA
BRANCH   9  11
ATOM     11  N   UNL d   1      27.145 -14.546  -3.621  0.00  0.00    -0.299 N 
ATOM     12  C   UNL d   1      27.547 -15.210  -4.800  0.00  0.00     0.257 C 
ATOM     13  O   UNL d   1      26.834 -15.497  -5.761  0.00  0.00    -0.267 OA
ATOM     14  H   UNL d   1      27.853 -14.391  -2.922  0.00  0.00     0.171 HD
BRANCH  12  15
ATOM     15  C   UNL d   1      28.895 -15.725  -5.013  0.00  0.00     0.032 A 
ATOM     16  C   UNL d   1      29.413 -15.541  -6.313  0.00  0.00     0.017 A 
ATOM     17  C   UNL d   1      30.459 -16.323  -6.774  0.00  0.00     0.002 A 
ATOM     18  C   UNL d   1      31.049 -17.232  -5.907  0.00  0.00     0.007 A 
ATOM     19  C   UNL d   1      30.550 -17.410  -4.605  0.00  0.00    -0.061 A 
ATOM     20  C   UNL d   1      31.126 -18.469  -3.718  0.00  0.00     0.048 C 
ATOM     21  C   UNL d   1      29.456 -16.658  -4.155  0.00  0.00     0.023 A 
ENDBRANCH  12  15
ENDBRANCH   9  11
ENDBRANCH   7   9
ENDBRANCH   5   7
BRANCH   4  22
ATOM     22  N   UNL d   1      27.619 -15.263  -0.653  0.00  0.00    -0.376 N 
ATOM     23  C   UNL d   1      28.986 -15.733  -0.859  0.00  0.00     0.150 C 
ATOM     24  C   UNL d   1      29.774 -15.719   0.479  0.00  0.00     0.255 C 
ATOM     25  N   UNL d   1      29.695 -14.365   1.202  0.00  0.00    -0.064 N 
ATOM     26  C   UNL d   1      28.243 -13.816   1.200  0.00  0.00     0.255 C 
ATOM     27  H   UNL d   1      30.275 -13.693   0.685  0.00  0.00     0.280 HD
ATOM     28  C   UNL d   1      27.560 -13.877  -0.176  0.00  0.00     0.150 C 
BRANCH  25  29
ATOM     29  C   UNL d   1      30.319 -14.456   2.607  0.00  0.00     0.273 C 
BRANCH  29  30
ATOM     30  C   UNL d   1      29.456 -13.965   3.743  0.00  0.00    -0.033 A 
ATOM     31  C   UNL d   1      28.668 -14.823   4.525  0.00  0.00     0.009 A 
ATOM     32  C   UNL d   1      27.784 -14.290   5.477  0.00  0.00     0.001 A 
ATOM     33  C   UNL d   1      27.772 -12.923   5.752  0.00  0.00     0.000 A 
ATOM     34  C   UNL d   1      28.564 -12.069   5.008  0.00  0.00     0.001 A 
ATOM     35  C   UNL d   1      29.325 -12.586   3.970  0.00  0.00     0.009 A 
ENDBRANCH  29  30
ENDBRANCH  25  29
ENDBRANCH   4  22
BRANCH   1  36
ATOM     36  C   UNL d   1      22.957 -18.649  -0.900  0.00  0.00     0.293 C 
ATOM     37  O   UNL d   1      22.611 -19.320  -1.871  0.00  0.00    -0.259 OA
BRANCH  36  38
ATOM     38  O   UNL d   1      22.277 -18.549   0.274  0.00  0.00    -0.323 OA
ATOM     39  C   UNL d   1      21.061 -19.320   0.349  0.00  0.00     0.213 C 
ENDBRANCH  36  38
ENDBRANCH   1  36
TORSDOF 9
ENDMDL
MODEL 3
REMARK VINA RESULT:    -9.866      1.778      8.497
REMARK INTER + INTRA:         -14.311
REMARK INTER:                 -12.551
REMARK INTRA:                  -1.759
REMARK CONF_INDEPENDENT:        2.685
REMARK UNBOUND:                -1.759
REMARK  9 active torsions:
REMARK  status: ('A' for Active; 'I' for Inactive)
REMARK    1  A    between atoms: O_2  and  C_3 
REMARK    2  A    between atoms: C_3  and  C_5 
REMARK    3  A    between atoms: C_8  and  N_9 
REMARK    4  A    between atoms: N_12  and  C_13 
REMARK    5  A    between atoms: C_13  and  C_14 
REMARK    6  A    between atoms: C_22  and  N_23 
REMARK    7  A    between atoms: N_23  and  C_24 
REMARK    8  A    between atoms: C_24  and  N_26 
REMARK       I    between atoms: N_26  and  C_27 
REMARK    9  A    between atoms: C_27  and  C_29 
ROOT
ATOM      1  C   UNL d   1      27.417 -15.301  -3.814  0.00  0.00     0.041 A 
ATOM      2  C   UNL d   1      26.087 -15.575  -4.017  0.00  0.00     0.020 A 
ATOM      3  C   UNL d   1      25.301 -16.023  -2.928  0.00  0.00     0.033 A 
ATOM      4  C   UNL d   1      25.807 -16.238  -1.599  0.00  0.00     0.057 A 
ATOM      5  C   UNL d   1      27.182 -15.921  -1.395  0.00  0.00     0.062 A 
ATOM      6  C   UNL d   1      27.901 -15.510  -2.536  0.00  0.00     0.049 A 
ENDROOT
BRANCH   5   7
ATOM      7  N   UNL d   1      27.872 -16.003  -0.107  0.00  0.00    -0.331 N 
ATOM      8  H   UNL d   1      27.253 -16.166   0.656  0.00  0.00     0.168 HD
BRANCH   7   9
ATOM      9  C   UNL d   1      29.241 -15.726   0.197  0.00  0.00     0.179 C 
ATOM     10  S   UNL d   1      30.569 -16.038  -0.798  0.00  0.00    -0.040 SA
BRANCH   9  11
ATOM     11  N   UNL d   1      29.468 -15.141   1.466  0.00  0.00    -0.299 N 
ATOM     12  C   UNL d   1      28.443 -14.469   2.168  0.00  0.00     0.257 C 
ATOM     13  O   UNL d   1      27.311 -14.223   1.756  0.00  0.00    -0.267 OA
ATOM     14  H   UNL d   1      30.345 -15.258   1.944  0.00  0.00     0.171 HD
BRANCH  12  15
ATOM     15  C   UNL d   1      28.622 -13.896   3.498  0.00  0.00     0.032 A 
ATOM     16  C   UNL d   1      28.554 -14.816   4.566  0.00  0.00     0.017 A 
ATOM     17  C   UNL d   1      28.283 -14.384   5.854  0.00  0.00     0.002 A 
ATOM     18  C   UNL d   1      28.166 -13.022   6.094  0.00  0.00     0.007 A 
ATOM     19  C   UNL d   1      28.249 -12.097   5.038  0.00  0.00    -0.061 A 
ATOM     20  C   UNL d   1      28.013 -10.642   5.294  0.00  0.00     0.048 C 
ATOM     21  C   UNL d   1      28.468 -12.537   3.725  0.00  0.00     0.023 A 
ENDBRANCH  12  15
ENDBRANCH   9  11
ENDBRANCH   7   9
ENDBRANCH   5   7
BRANCH   4  22
ATOM     22  N   UNL d   1      24.925 -16.768  -0.662  0.00  0.00    -0.376 N 
ATOM     23  C   UNL d   1      24.882 -18.146  -0.179  0.00  0.00     0.150 C 
ATOM     24  C   UNL d   1      23.582 -18.850  -0.655  0.00  0.00     0.255 C 
ATOM     25  N   UNL d   1      22.315 -18.045  -0.323  0.00  0.00    -0.064 N 
ATOM     26  C   UNL d   1      22.503 -16.542  -0.665  0.00  0.00     0.255 C 
ATOM     27  H   UNL d   1      22.152 -18.109   0.688  0.00  0.00     0.280 HD
ATOM     28  C   UNL d   1      23.823 -15.951  -0.145  0.00  0.00     0.150 C 
BRANCH  25  29
ATOM     29  C   UNL d   1      21.076 -18.678  -0.983  0.00  0.00     0.273 C 
BRANCH  29  30
ATOM     30  C   UNL d   1      20.162 -19.450  -0.062  0.00  0.00    -0.033 A 
ATOM     31  C   UNL d   1      19.034 -20.146  -0.520  0.00  0.00     0.009 A 
ATOM     32  C   UNL d   1      18.149 -20.730   0.401  0.00  0.00     0.001 A 
ATOM     33  C   UNL d   1      18.445 -20.743   1.764  0.00  0.00     0.000 A 
ATOM     34  C   UNL d   1      19.569 -20.085   2.225  0.00  0.00     0.001 A 
ATOM     35  C   UNL d   1      20.359 -19.385   1.325  0.00  0.00     0.009 A 
ENDBRANCH  29  30
ENDBRANCH  25  29
ENDBRANCH   4  22
BRANCH   1  36
ATOM     36  C   UNL d   1      28.311 -14.626  -4.809  0.00  0.00     0.293 C 
ATOM     37  O   UNL d   1      29.178 -13.826  -4.461  0.00  0.00    -0.259 OA
BRANCH  36  38
ATOM     38  O   UNL d   1      28.079 -15.032  -6.087  0.00  0.00    -0.323 OA
ATOM     39  C   UNL d   1      29.236 -15.049  -6.948  0.00  0.00     0.213 C 
ENDBRANCH  36  38
ENDBRANCH   1  36
TORSDOF 9
ENDMDL
MODEL 4
REMARK VINA RESULT:    -9.703      3.226      7.158
REMARK INTER + INTRA:         -14.486
REMARK INTER:                 -12.388
REMARK INTRA:                  -2.098
REMARK CONF_INDEPENDENT:        2.685
REMARK UNBOUND:                -2.098
REMARK  9 active torsions:
REMARK  status: ('A' for Active; 'I' for Inactive)
REMARK    1  A    between atoms: O_2  and  C_3 
REMARK    2  A    between atoms: C_3  and  C_5 
REMARK    3  A    between atoms: C_8  and  N_9 
REMARK    4  A    between atoms: N_12  and  C_13 
REMARK    5  A    between atoms: C_13  and  C_14 
REMARK    6  A    between atoms: C_22  and  N_23 
REMARK    7  A    between atoms: N_23  and  C_24 
REMARK    8  A    between atoms: C_24  and  N_26 
REMARK       I    between atoms: N_26  and  C_27 
REMARK    9  A    between atoms: C_27  and  C_29 
ROOT
ATOM      1  C   UNL d   1      23.695 -17.557  -0.883  0.00  0.00     0.041 A 
ATOM      2  C   UNL d   1      24.742 -18.159  -0.229  0.00  0.00     0.020 A 
ATOM      3  C   UNL d   1      26.030 -17.576  -0.308  0.00  0.00     0.033 A 
ATOM      4  C   UNL d   1      26.336 -16.387  -1.055  0.00  0.00     0.057 A 
ATOM      5  C   UNL d   1      25.236 -15.756  -1.704  0.00  0.00     0.062 A 
ATOM      6  C   UNL d   1      23.993 -16.414  -1.602  0.00  0.00     0.049 A 
ENDROOT
BRANCH   5   7
ATOM      7  N   UNL d   1      25.320 -14.503  -2.456  0.00  0.00    -0.331 N 
ATOM      8  H   UNL d   1      25.188 -13.697  -1.884  0.00  0.00     0.168 HD
BRANCH   7   9
ATOM      9  C   UNL d   1      25.400 -14.308  -3.869  0.00  0.00     0.179 C 
ATOM     10  S   UNL d   1      25.743 -15.491  -5.024  0.00  0.00    -0.040 SA
BRANCH   9  11
ATOM     11  N   UNL d   1      25.173 -12.981  -4.307  0.00  0.00    -0.299 N 
ATOM     12  C   UNL d   1      25.704 -11.870  -3.615  0.00  0.00     0.257 C 
ATOM     13  O   UNL d   1      26.312 -11.892  -2.546  0.00  0.00    -0.267 OA
ATOM     14  H   UNL d   1      24.695 -12.792  -5.172  0.00  0.00     0.171 HD
BRANCH  12  15
ATOM     15  C   UNL d   1      25.534 -10.490  -4.060  0.00  0.00     0.032 A 
ATOM     16  C   UNL d   1      25.783 -10.263  -5.430  0.00  0.00     0.017 A 
ATOM     17  C   UNL d   1      26.074  -8.990  -5.894  0.00  0.00     0.002 A 
ATOM     18  C   UNL d   1      26.031  -7.927  -5.003  0.00  0.00     0.007 A 
ATOM     19  C   UNL d   1      25.768  -8.142  -3.639  0.00  0.00    -0.061 A 
ATOM     20  C   UNL d   1      25.832  -7.002  -2.672  0.00  0.00     0.048 C 
ATOM     21  C   UNL d   1      25.527  -9.437  -3.158  0.00  0.00     0.023 A 
ENDBRANCH  12  15
ENDBRANCH   9  11
ENDBRANCH   7   9
ENDBRANCH   5   7
BRANCH   4  22
ATOM     22  N   UNL d   1      27.671 -15.995  -1.105  0.00  0.00    -0.376 N 
ATOM     23  C   UNL d   1      28.825 -16.745  -0.616  0.00  0.00     0.150 C 
ATOM     24  C   UNL d   1      29.464 -16.026   0.603  0.00  0.00     0.255 C 
ATOM     25  N   UNL d   1      29.770 -14.546   0.326  0.00  0.00    -0.064 N 
ATOM     26  C   UNL d   1      28.578 -13.854  -0.390  0.00  0.00     0.255 C 
ATOM     27  H   UNL d   1      30.576 -14.499  -0.308  0.00  0.00     0.280 HD
ATOM     28  C   UNL d   1      28.026 -14.654  -1.581  0.00  0.00     0.150 C 
BRANCH  25  29
ATOM     29  C   UNL d   1      30.215 -13.828   1.614  0.00  0.00     0.273 C 
BRANCH  29  30
ATOM     30  C   UNL d   1      29.315 -14.007   2.812  0.00  0.00    -0.033 A 
ATOM     31  C   UNL d   1      27.963 -13.633   2.809  0.00  0.00     0.009 A 
ATOM     32  C   UNL d   1      27.214 -13.698   3.995  0.00  0.00     0.001 A 
ATOM     33  C   UNL d   1      27.759 -14.255   5.152  0.00  0.00     0.000 A 
ATOM     34  C   UNL d   1      29.083 -14.653   5.161  0.00  0.00     0.001 A 
ATOM     35  C   UNL d   1      29.857 -14.449   4.028  0.00  0.00     0.009 A 
ENDBRANCH  29  30
ENDBRANCH  25  29
ENDBRANCH   4  22
BRANCH   1  36
ATOM     36  C   UNL d   1      22.254 -17.935  -0.718  0.00  0.00     0.293 C 
ATOM     37  O   UNL d   1      21.348 -17.122  -0.895  0.00  0.00    -0.259 OA
BRANCH  36  38
ATOM     38  O   UNL d   1      22.087 -19.248  -0.406  0.00  0.00    -0.323 OA
ATOM     39  C   UNL d   1      20.721 -19.665  -0.206  0.00  0.00     0.213 C 
ENDBRANCH  36  38
ENDBRANCH   1  36
TORSDOF 9
ENDMDL
MODEL 5
REMARK VINA RESULT:    -9.549      4.250      9.580
REMARK INTER + INTRA:         -14.318
REMARK INTER:                 -12.233
REMARK INTRA:                  -2.084
REMARK CONF_INDEPENDENT:        2.685
REMARK UNBOUND:                -2.084
REMARK  9 active torsions:
REMARK  status: ('A' for Active; 'I' for Inactive)
REMARK    1  A    between atoms: O_2  and  C_3 
REMARK    2  A    between atoms: C_3  and  C_5 
REMARK    3  A    between atoms: C_8  and  N_9 
REMARK    4  A    between atoms: N_12  and  C_13 
REMARK    5  A    between atoms: C_13  and  C_14 
REMARK    6  A    between atoms: C_22  and  N_23 
REMARK    7  A    between atoms: N_23  and  C_24 
REMARK    8  A    between atoms: C_24  and  N_26 
REMARK       I    between atoms: N_26  and  C_27 
REMARK    9  A    between atoms: C_27  and  C_29 
ROOT
ATOM      1  C   UNL d   1      26.925  -9.451   2.041  0.00  0.00     0.041 A 
ATOM      2  C   UNL d   1      27.022 -10.268   0.942  0.00  0.00     0.020 A 
ATOM      3  C   UNL d   1      27.625 -11.542   1.081  0.00  0.00     0.033 A 
ATOM      4  C   UNL d   1      28.173 -12.048   2.310  0.00  0.00     0.057 A 
ATOM      5  C   UNL d   1      28.038 -11.203   3.449  0.00  0.00     0.062 A 
ATOM      6  C   UNL d   1      27.455  -9.939   3.221  0.00  0.00     0.049 A 
ENDROOT
BRANCH   5   7
ATOM      7  N   UNL d   1      28.466 -11.557   4.803  0.00  0.00    -0.331 N 
ATOM      8  H   UNL d   1      27.801 -11.304   5.501  0.00  0.00     0.168 HD
BRANCH   7   9
ATOM      9  C   UNL d   1      29.734 -12.049   5.244  0.00  0.00     0.179 C 
ATOM     10  S   UNL d   1      31.223 -11.793   4.490  0.00  0.00    -0.040 SA
BRANCH   9  11
ATOM     11  N   UNL d   1      29.698 -12.829   6.425  0.00  0.00    -0.299 N 
ATOM     12  C   UNL d   1      28.850 -12.501   7.506  0.00  0.00     0.257 C 
ATOM     13  O   UNL d   1      28.146 -11.497   7.609  0.00  0.00    -0.267 OA
ATOM     14  H   UNL d   1      30.215 -13.689   6.497  0.00  0.00     0.171 HD
BRANCH  12  15
ATOM     15  C   UNL d   1      28.748 -13.305   8.720  0.00  0.00     0.032 A 
ATOM     16  C   UNL d   1      28.157 -12.655   9.825  0.00  0.00     0.017 A 
ATOM     17  C   UNL d   1      28.373 -13.117  11.113  0.00  0.00     0.002 A 
ATOM     18  C   UNL d   1      29.108 -14.280  11.294  0.00  0.00     0.007 A 
ATOM     19  C   UNL d   1      29.686 -14.943  10.197  0.00  0.00    -0.061 A 
ATOM     20  C   UNL d   1      30.565 -16.133  10.417  0.00  0.00     0.048 C 
ATOM     21  C   UNL d   1      29.515 -14.446   8.898  0.00  0.00     0.023 A 
ENDBRANCH  12  15
ENDBRANCH   9  11
ENDBRANCH   7   9
ENDBRANCH   5   7
BRANCH   4  22
ATOM     22  N   UNL d   1      28.812 -13.283   2.258  0.00  0.00    -0.376 N 
ATOM     23  C   UNL d   1      30.041 -13.606   1.537  0.00  0.00     0.150 C 
ATOM     24  C   UNL d   1      29.744 -14.580   0.364  0.00  0.00     0.255 C 
ATOM     25  N   UNL d   1      28.951 -15.819   0.807  0.00  0.00    -0.064 N 
ATOM     26  C   UNL d   1      27.780 -15.426   1.748  0.00  0.00     0.255 C 
ATOM     27  H   UNL d   1      29.582 -16.427   1.343  0.00  0.00     0.280 HD
ATOM     28  C   UNL d   1      28.188 -14.460   2.872  0.00  0.00     0.150 C 
BRANCH  25  29
ATOM     29  C   UNL d   1      28.511 -16.653  -0.411  0.00  0.00     0.273 C 
BRANCH  29  30
ATOM     30  C   UNL d   1      27.027 -16.892  -0.543  0.00  0.00    -0.033 A 
ATOM     31  C   UNL d   1      26.185 -16.054  -1.288  0.00  0.00     0.009 A 
ATOM     32  C   UNL d   1      24.795 -16.251  -1.261  0.00  0.00     0.001 A 
ATOM     33  C   UNL d   1      24.245 -17.353  -0.606  0.00  0.00     0.000 A 
ATOM     34  C   UNL d   1      25.066 -18.204   0.109  0.00  0.00     0.001 A 
ATOM     35  C   UNL d   1      26.420 -17.918   0.199  0.00  0.00     0.009 A 
ENDBRANCH  29  30
ENDBRANCH  25  29
ENDBRANCH   4  22
BRANCH   1  36
ATOM     36  C   UNL d   1      26.134  -8.179   2.093  0.00  0.00     0.293 C 
ATOM     37  O   UNL d   1      25.181  -7.981   1.341  0.00  0.00    -0.259 OA
BRANCH  36  38
ATOM     38  O   UNL d   1      26.560  -7.332   3.068  0.00  0.00    -0.323 OA
ATOM     39  C   UNL d   1      27.742  -6.571   2.749  0.00  0.00     0.213 C 
ENDBRANCH  36  38
ENDBRANCH   1  36
TORSDOF 9
ENDMDL
MODEL 6
REMARK VINA RESULT:    -9.133      3.490      8.439
REMARK INTER + INTRA:         -15.114
REMARK INTER:                 -11.818
REMARK INTRA:                  -3.297
REMARK CONF_INDEPENDENT:        2.685
REMARK UNBOUND:                -3.297
REMARK  9 active torsions:
REMARK  status: ('A' for Active; 'I' for Inactive)
REMARK    1  A    between atoms: O_2  and  C_3 
REMARK    2  A    between atoms: C_3  and  C_5 
REMARK    3  A    between atoms: C_8  and  N_9 
REMARK    4  A    between atoms: N_12  and  C_13 
REMARK    5  A    between atoms: C_13  and  C_14 
REMARK    6  A    between atoms: C_22  and  N_23 
REMARK    7  A    between atoms: N_23  and  C_24 
REMARK    8  A    between atoms: C_24  and  N_26 
REMARK       I    between atoms: N_26  and  C_27 
REMARK    9  A    between atoms: C_27  and  C_29 
ROOT
ATOM      1  C   UNL d   1      23.331 -17.733  -0.769  0.00  0.00     0.041 A 
ATOM      2  C   UNL d   1      24.187 -18.438   0.041  0.00  0.00     0.020 A 
ATOM      3  C   UNL d   1      25.505 -17.957   0.235  0.00  0.00     0.033 A 
ATOM      4  C   UNL d   1      26.032 -16.771  -0.382  0.00  0.00     0.057 A 
ATOM      5  C   UNL d   1      25.124 -16.032  -1.195  0.00  0.00     0.062 A 
ATOM      6  C   UNL d   1      23.842 -16.594  -1.362  0.00  0.00     0.049 A 
ENDROOT
BRANCH   5   7
ATOM      7  N   UNL d   1      25.441 -14.765  -1.856  0.00  0.00    -0.331 N 
ATOM      8  H   UNL d   1      25.536 -14.006  -1.216  0.00  0.00     0.168 HD
BRANCH   7   9
ATOM      9  C   UNL d   1      25.464 -14.462  -3.252  0.00  0.00     0.179 C 
ATOM     10  S   UNL d   1      25.531 -15.578  -4.517  0.00  0.00    -0.040 SA
BRANCH   9  11
ATOM     11  N   UNL d   1      25.437 -13.082  -3.568  0.00  0.00    -0.299 N 
ATOM     12  C   UNL d   1      26.189 -12.138  -2.835  0.00  0.00     0.257 C 
ATOM     13  O   UNL d   1      26.848 -12.353  -1.819  0.00  0.00    -0.267 OA
ATOM     14  H   UNL d   1      24.946 -12.742  -4.378  0.00  0.00     0.171 HD
BRANCH  12  15
ATOM     15  C   UNL d   1      26.227 -10.715  -3.157  0.00  0.00     0.032 A 
ATOM     16  C   UNL d   1      26.657  -9.870  -2.112  0.00  0.00     0.017 A 
ATOM     17  C   UNL d   1      26.348  -8.520  -2.122  0.00  0.00     0.002 A 
ATOM     18  C   UNL d   1      25.682  -7.993  -3.220  0.00  0.00     0.007 A 
ATOM     19  C   UNL d   1      25.264  -8.824  -4.274  0.00  0.00    -0.061 A 
ATOM     20  C   UNL d   1      24.454  -8.261  -5.398  0.00  0.00     0.048 C 
ATOM     21  C   UNL d   1      25.528 -10.200  -4.239  0.00  0.00     0.023 A 
ENDBRANCH  12  15
ENDBRANCH   9  11
ENDBRANCH   7   9
ENDBRANCH   5   7
BRANCH   4  22
ATOM     22  N   UNL d   1      27.377 -16.484  -0.161  0.00  0.00    -0.376 N 
ATOM     23  C   UNL d   1      27.930 -15.262   0.415  0.00  0.00     0.150 C 
ATOM     24  C   UNL d   1      28.736 -14.473  -0.652  0.00  0.00     0.255 C 
ATOM     25  N   UNL d   1      29.784 -15.341  -1.366  0.00  0.00    -0.064 N 
ATOM     26  C   UNL d   1      29.189 -16.718  -1.767  0.00  0.00     0.255 C 
ATOM     27  H   UNL d   1      30.552 -15.521  -0.709  0.00  0.00     0.280 HD
ATOM     28  C   UNL d   1      28.413 -17.408  -0.634  0.00  0.00     0.150 C 
BRANCH  25  29
ATOM     29  C   UNL d   1      30.418 -14.577  -2.544  0.00  0.00     0.273 C 
BRANCH  29  30
ATOM     30  C   UNL d   1      29.651 -14.615  -3.843  0.00  0.00    -0.033 A 
ATOM     31  C   UNL d   1      29.787 -15.653  -4.776  0.00  0.00     0.009 A 
ATOM     32  C   UNL d   1      29.150 -15.563  -6.024  0.00  0.00     0.001 A 
ATOM     33  C   UNL d   1      28.273 -14.515  -6.302  0.00  0.00     0.000 A 
ATOM     34  C   UNL d   1      28.108 -13.499  -5.380  0.00  0.00     0.001 A 
ATOM     35  C   UNL d   1      28.854 -13.520  -4.211  0.00  0.00     0.009 A 
ENDBRANCH  29  30
ENDBRANCH  25  29
ENDBRANCH   4  22
BRANCH   1  36
ATOM     36  C   UNL d   1      21.862 -18.002  -0.898  0.00  0.00     0.293 C 
ATOM     37  O   UNL d   1      21.036 -17.090  -0.895  0.00  0.00    -0.259 OA
BRANCH  36  38
ATOM     38  O   UNL d   1      21.580 -19.323  -1.057  0.00  0.00    -0.323 OA
ATOM     39  C   UNL d   1      20.200 -19.687  -0.856  0.00  0.00     0.213 C 
ENDBRANCH  36  38
ENDBRANCH   1  36
TORSDOF 9
ENDMDL
MODEL 7
REMARK VINA RESULT:    -9.112      3.962      9.425
REMARK INTER + INTRA:         -14.547
REMARK INTER:                 -11.797
REMARK INTRA:                  -2.751
REMARK CONF_INDEPENDENT:        2.685
REMARK UNBOUND:                -2.751
REMARK  9 active torsions:
REMARK  status: ('A' for Active; 'I' for Inactive)
REMARK    1  A    between atoms: O_2  and  C_3 
REMARK    2  A    between atoms: C_3  and  C_5 
REMARK    3  A    between atoms: C_8  and  N_9 
REMARK    4  A    between atoms: N_12  and  C_13 
REMARK    5  A    between atoms: C_13  and  C_14 
REMARK    6  A    between atoms: C_22  and  N_23 
REMARK    7  A    between atoms: N_23  and  C_24 
REMARK    8  A    between atoms: C_24  and  N_26 
REMARK       I    between atoms: N_26  and  C_27 
REMARK    9  A    between atoms: C_27  and  C_29 
ROOT
ATOM      1  C   UNL d   1      23.940 -17.629  -0.775  0.00  0.00     0.041 A 
ATOM      2  C   UNL d   1      24.865 -17.804   0.225  0.00  0.00     0.020 A 
ATOM      3  C   UNL d   1      26.189 -17.341   0.027  0.00  0.00     0.033 A 
ATOM      4  C   UNL d   1      26.653 -16.706  -1.176  0.00  0.00     0.057 A 
ATOM      5  C   UNL d   1      25.676 -16.503  -2.193  0.00  0.00     0.062 A 
ATOM      6  C   UNL d   1      24.390 -17.020  -1.931  0.00  0.00     0.049 A 
ENDROOT
BRANCH   5   7
ATOM      7  N   UNL d   1      25.925 -15.817  -3.462  0.00  0.00    -0.331 N 
ATOM      8  H   UNL d   1      26.537 -16.323  -4.064  0.00  0.00     0.168 HD
BRANCH   7   9
ATOM      9  C   UNL d   1      25.550 -14.496  -3.856  0.00  0.00     0.179 C 
ATOM     10  S   UNL d   1      24.043 -13.771  -3.618  0.00  0.00    -0.040 SA
BRANCH   9  11
ATOM     11  N   UNL d   1      26.560 -13.756  -4.516  0.00  0.00    -0.299 N 
ATOM     12  C   UNL d   1      27.468 -14.369  -5.407  0.00  0.00     0.257 C 
ATOM     13  O   UNL d   1      27.568 -15.572  -5.640  0.00  0.00    -0.267 OA
ATOM     14  H   UNL d   1      26.610 -12.754  -4.433  0.00  0.00     0.171 HD
BRANCH  12  15
ATOM     15  C   UNL d   1      28.492 -13.634  -6.143  0.00  0.00     0.032 A 
ATOM     16  C   UNL d   1      28.029 -12.512  -6.863  0.00  0.00     0.017 A 
ATOM     17  C   UNL d   1      28.769 -11.992  -7.912  0.00  0.00     0.002 A 
ATOM     18  C   UNL d   1      30.015 -12.537  -8.189  0.00  0.00     0.007 A 
ATOM     19  C   UNL d   1      30.491 -13.645  -7.466  0.00  0.00    -0.061 A 
ATOM     20  C   UNL d   1      31.786 -14.290  -7.846  0.00  0.00     0.048 C 
ATOM     21  C   UNL d   1      29.719 -14.207  -6.440  0.00  0.00     0.023 A 
ENDBRANCH  12  15
ENDBRANCH   9  11
ENDBRANCH   7   9
ENDBRANCH   5   7
BRANCH   4  22
ATOM     22  N   UNL d   1      28.008 -16.392  -1.246  0.00  0.00    -0.376 N 
ATOM     23  C   UNL d   1      28.685 -15.660  -2.312  0.00  0.00     0.150 C 
ATOM     24  C   UNL d   1      29.654 -16.594  -3.085  0.00  0.00     0.255 C 
ATOM     25  N   UNL d   1      30.617 -17.351  -2.156  0.00  0.00    -0.064 N 
ATOM     26  C   UNL d   1      29.867 -17.928  -0.925  0.00  0.00     0.255 C 
ATOM     27  H   UNL d   1      31.312 -16.682  -1.803  0.00  0.00     0.280 HD
ATOM     28  C   UNL d   1      28.936 -16.916  -0.238  0.00  0.00     0.150 C 
BRANCH  25  29
ATOM     29  C   UNL d   1      31.420 -18.406  -2.940  0.00  0.00     0.273 C 
BRANCH  29  30
ATOM     30  C   UNL d   1      31.184 -18.437  -4.431  0.00  0.00    -0.033 A 
ATOM     31  C   UNL d   1      30.472 -19.466  -5.065  0.00  0.00     0.009 A 
ATOM     32  C   UNL d   1      30.404 -19.510  -6.467  0.00  0.00     0.001 A 
ATOM     33  C   UNL d   1      30.924 -18.471  -7.239  0.00  0.00     0.000 A 
ATOM     34  C   UNL d   1      31.604 -17.437  -6.624  0.00  0.00     0.001 A 
ATOM     35  C   UNL d   1      31.795 -17.477  -5.251  0.00  0.00     0.009 A 
ENDBRANCH  29  30
ENDBRANCH  25  29
ENDBRANCH   4  22
BRANCH   1  36
ATOM     36  C   UNL d   1      22.468 -17.873  -0.629  0.00  0.00     0.293 C 
ATOM     37  O   UNL d   1      21.640 -17.000  -0.884  0.00  0.00    -0.259 OA
BRANCH  36  38
ATOM     38  O   UNL d   1      22.181 -19.144  -0.240  0.00  0.00    -0.323 OA
ATOM     39  C   UNL d   1      20.778 -19.471  -0.188  0.00  0.00     0.213 C 
ENDBRANCH  36  38
ENDBRANCH   1  36
TORSDOF 9
ENDMDL
MODEL 8
REMARK VINA RESULT:    -9.090      3.280      8.187
REMARK INTER + INTRA:         -14.656
REMARK INTER:                 -11.774
REMARK INTRA:                  -2.881
REMARK CONF_INDEPENDENT:        2.685
REMARK UNBOUND:                -2.881
REMARK  9 active torsions:
REMARK  status: ('A' for Active; 'I' for Inactive)
REMARK    1  A    between atoms: O_2  and  C_3 
REMARK    2  A    between atoms: C_3  and  C_5 
REMARK    3  A    between atoms: C_8  and  N_9 
REMARK    4  A    between atoms: N_12  and  C_13 
REMARK    5  A    between atoms: C_13  and  C_14 
REMARK    6  A    between atoms: C_22  and  N_23 
REMARK    7  A    between atoms: N_23  and  C_24 
REMARK    8  A    between atoms: C_24  and  N_26 
REMARK       I    between atoms: N_26  and  C_27 
REMARK    9  A    between atoms: C_27  and  C_29 
ROOT
ATOM      1  C   UNL d   1      23.293 -17.816  -0.711  0.00  0.00     0.041 A 
ATOM      2  C   UNL d   1      24.102 -18.617   0.057  0.00  0.00     0.020 A 
ATOM      3  C   UNL d   1      25.427 -18.200   0.328  0.00  0.00     0.033 A 
ATOM      4  C   UNL d   1      26.010 -16.982  -0.167  0.00  0.00     0.057 A 
ATOM      5  C   UNL d   1      25.151 -16.146  -0.937  0.00  0.00     0.062 A 
ATOM      6  C   UNL d   1      23.857 -16.647  -1.188  0.00  0.00     0.049 A 
ENDROOT
BRANCH   5   7
ATOM      7  N   UNL d   1      25.526 -14.837  -1.475  0.00  0.00    -0.331 N 
ATOM      8  H   UNL d   1      25.515 -14.116  -0.786  0.00  0.00     0.168 HD
BRANCH   7   9
ATOM      9  C   UNL d   1      25.736 -14.452  -2.835  0.00  0.00     0.179 C 
ATOM     10  S   UNL d   1      24.571 -13.839  -3.892  0.00  0.00    -0.040 SA
BRANCH   9  11
ATOM     11  N   UNL d   1      27.059 -14.624  -3.310  0.00  0.00    -0.299 N 
ATOM     12  C   UNL d   1      27.324 -15.136  -4.599  0.00  0.00     0.257 C 
ATOM     13  O   UNL d   1      26.499 -15.575  -5.399  0.00  0.00    -0.267 OA
ATOM     14  H   UNL d   1      27.850 -14.308  -2.775  0.00  0.00     0.171 HD
BRANCH  12  15
ATOM     15  C   UNL d   1      28.669 -15.283  -5.145  0.00  0.00     0.032 A 
ATOM     16  C   UNL d   1      29.063 -14.281  -6.057  0.00  0.00     0.017 A 
ATOM     17  C   UNL d   1      30.097 -14.505  -6.951  0.00  0.00     0.002 A 
ATOM     18  C   UNL d   1      30.798 -15.701  -6.877  0.00  0.00     0.007 A 
ATOM     19  C   UNL d   1      30.423 -16.699  -5.961  0.00  0.00    -0.061 A 
ATOM     20  C   UNL d   1      31.118 -18.024  -5.967  0.00  0.00     0.048 C 
ATOM     21  C   UNL d   1      29.342 -16.495  -5.093  0.00  0.00     0.023 A 
ENDBRANCH  12  15
ENDBRANCH   9  11
ENDBRANCH   7   9
ENDBRANCH   5   7
BRANCH   4  22
ATOM     22  N   UNL d   1      27.355 -16.762   0.115  0.00  0.00    -0.376 N 
ATOM     23  C   UNL d   1      27.917 -15.681   0.921  0.00  0.00     0.150 C 
ATOM     24  C   UNL d   1      28.742 -14.711   0.034  0.00  0.00     0.255 C 
ATOM     25  N   UNL d   1      29.787 -15.439  -0.828  0.00  0.00    -0.064 N 
ATOM     26  C   UNL d   1      29.180 -16.704  -1.492  0.00  0.00     0.255 C 
ATOM     27  H   UNL d   1      30.547 -15.752  -0.212  0.00  0.00     0.280 HD
ATOM     28  C   UNL d   1      28.385 -17.590  -0.520  0.00  0.00     0.150 C 
BRANCH  25  29
ATOM     29  C   UNL d   1      30.442 -14.469  -1.830  0.00  0.00     0.273 C 
BRANCH  29  30
ATOM     30  C   UNL d   1      31.531 -15.054  -2.696  0.00  0.00    -0.033 A 
ATOM     31  C   UNL d   1      32.063 -16.335  -2.486  0.00  0.00     0.009 A 
ATOM     32  C   UNL d   1      33.167 -16.768  -3.238  0.00  0.00     0.001 A 
ATOM     33  C   UNL d   1      33.661 -15.994  -4.288  0.00  0.00     0.000 A 
ATOM     34  C   UNL d   1      33.127 -14.742  -4.525  0.00  0.00     0.001 A 
ATOM     35  C   UNL d   1      32.135 -14.261  -3.683  0.00  0.00     0.009 A 
ENDBRANCH  29  30
ENDBRANCH  25  29
ENDBRANCH   4  22
BRANCH   1  36
ATOM     36  C   UNL d   1      21.821 -18.023  -0.903  0.00  0.00     0.293 C 
ATOM     37  O   UNL d   1      21.030 -17.081  -0.895  0.00  0.00    -0.259 OA
BRANCH  36  38
ATOM     38  O   UNL d   1      21.496 -19.325  -1.124  0.00  0.00    -0.323 OA
ATOM     39  C   UNL d   1      20.124 -19.673  -0.852  0.00  0.00     0.213 C 
ENDBRANCH  36  38
ENDBRANCH   1  36
TORSDOF 9
ENDMDL
MODEL 9
REMARK VINA RESULT:    -9.042      3.198      7.994
REMARK INTER + INTRA:         -15.010
REMARK INTER:                 -11.727
REMARK INTRA:                  -3.283
REMARK CONF_INDEPENDENT:        2.685
REMARK UNBOUND:                -3.283
REMARK  9 active torsions:
REMARK  status: ('A' for Active; 'I' for Inactive)
REMARK    1  A    between atoms: O_2  and  C_3 
REMARK    2  A    between atoms: C_3  and  C_5 
REMARK    3  A    between atoms: C_8  and  N_9 
REMARK    4  A    between atoms: N_12  and  C_13 
REMARK    5  A    between atoms: C_13  and  C_14 
REMARK    6  A    between atoms: C_22  and  N_23 
REMARK    7  A    between atoms: N_23  and  C_24 
REMARK    8  A    between atoms: C_24  and  N_26 
REMARK       I    between atoms: N_26  and  C_27 
REMARK    9  A    between atoms: C_27  and  C_29 
ROOT
ATOM      1  C   UNL d   1      23.329 -17.780  -0.815  0.00  0.00     0.041 A 
ATOM      2  C   UNL d   1      24.190 -18.574  -0.098  0.00  0.00     0.020 A 
ATOM      3  C   UNL d   1      25.520 -18.135   0.113  0.00  0.00     0.033 A 
ATOM      4  C   UNL d   1      26.054 -16.901  -0.396  0.00  0.00     0.057 A 
ATOM      5  C   UNL d   1      25.142 -16.072  -1.111  0.00  0.00     0.062 A 
ATOM      6  C   UNL d   1      23.846 -16.595  -1.304  0.00  0.00     0.049 A 
ENDROOT
BRANCH   5   7
ATOM      7  N   UNL d   1      25.465 -14.750  -1.650  0.00  0.00    -0.331 N 
ATOM      8  H   UNL d   1      25.559 -14.054  -0.943  0.00  0.00     0.168 HD
BRANCH   7   9
ATOM      9  C   UNL d   1      25.499 -14.320  -3.012  0.00  0.00     0.179 C 
ATOM     10  S   UNL d   1      24.200 -13.704  -3.899  0.00  0.00    -0.040 SA
BRANCH   9  11
ATOM     11  N   UNL d   1      26.756 -14.445  -3.651  0.00  0.00    -0.299 N 
ATOM     12  C   UNL d   1      26.885 -15.032  -4.928  0.00  0.00     0.257 C 
ATOM     13  O   UNL d   1      25.995 -15.578  -5.579  0.00  0.00    -0.267 OA
ATOM     14  H   UNL d   1      27.587 -14.042  -3.250  0.00  0.00     0.171 HD
BRANCH  12  15
ATOM     15  C   UNL d   1      28.154 -15.136  -5.642  0.00  0.00     0.032 A 
ATOM     16  C   UNL d   1      29.116 -15.976  -5.041  0.00  0.00     0.017 A 
ATOM     17  C   UNL d   1      30.460 -15.844  -5.351  0.00  0.00     0.002 A 
ATOM     18  C   UNL d   1      30.836 -14.931  -6.327  0.00  0.00     0.007 A 
ATOM     19  C   UNL d   1      29.882 -14.102  -6.942  0.00  0.00    -0.061 A 
ATOM     20  C   UNL d   1      30.316 -13.049  -7.912  0.00  0.00     0.048 C 
ATOM     21  C   UNL d   1      28.529 -14.196  -6.590  0.00  0.00     0.023 A 
ENDBRANCH  12  15
ENDBRANCH   9  11
ENDBRANCH   7   9
ENDBRANCH   5   7
BRANCH   4  22
ATOM     22  N   UNL d   1      27.407 -16.657  -0.177  0.00  0.00    -0.376 N 
ATOM     23  C   UNL d   1      28.005 -16.002   0.983  0.00  0.00     0.150 C 
ATOM     24  C   UNL d   1      28.617 -14.633   0.580  0.00  0.00     0.255 C 
ATOM     25  N   UNL d   1      29.570 -14.739  -0.621  0.00  0.00    -0.064 N 
ATOM     26  C   UNL d   1      28.962 -15.628  -1.740  0.00  0.00     0.255 C 
ATOM     27  H   UNL d   1      30.434 -15.196  -0.304  0.00  0.00     0.280 HD
ATOM     28  C   UNL d   1      28.387 -16.958  -1.227  0.00  0.00     0.150 C 
BRANCH  25  29
ATOM     29  C   UNL d   1      29.997 -13.341  -1.107  0.00  0.00     0.273 C 
BRANCH  29  30
ATOM     30  C   UNL d   1      29.062 -12.671  -2.085  0.00  0.00    -0.033 A 
ATOM     31  C   UNL d   1      29.366 -12.523  -3.447  0.00  0.00     0.009 A 
ATOM     32  C   UNL d   1      28.519 -11.772  -4.277  0.00  0.00     0.001 A 
ATOM     33  C   UNL d   1      27.306 -11.278  -3.797  0.00  0.00     0.000 A 
ATOM     34  C   UNL d   1      26.981 -11.441  -2.463  0.00  0.00     0.001 A 
ATOM     35  C   UNL d   1      27.892 -12.057  -1.617  0.00  0.00     0.009 A 
ENDBRANCH  29  30
ENDBRANCH  25  29
ENDBRANCH   4  22
BRANCH   1  36
ATOM     36  C   UNL d   1      21.854 -18.013  -0.936  0.00  0.00     0.293 C 
ATOM     37  O   UNL d   1      21.048 -17.085  -0.897  0.00  0.00    -0.259 OA
BRANCH  36  38
ATOM     38  O   UNL d   1      21.541 -19.322  -1.133  0.00  0.00    -0.323 OA
ATOM     39  C   UNL d   1      20.340 -19.775  -0.477  0.00  0.00     0.213 C 
ENDBRANCH  36  38
ENDBRANCH   1  36
TORSDOF 9
ENDMDL
