MODEL 1
REMARK VINA RESULT:    -8.361      0.000      0.000
REMARK INTER + INTRA:         -12.539
REMARK INTER:                 -10.449
REMARK INTRA:                  -2.089
REMARK CONF_INDEPENDENT:        2.088
REMARK UNBOUND:                -2.089
REMARK  7 active torsions:
REMARK  status: ('A' for Active; 'I' for Inactive)
REMARK    1  A    between atoms: C_2  and  O_3 
REMARK    2  A    between atoms: O_3  and  C_4 
REMARK    3  A    between atoms: C_4  and  C_6 
REMARK    4  A    between atoms: C_6  and  N_7 
REMARK    5  A    between atoms: C_6  and  O_20 
REMARK    6  A    between atoms: C_6  and  C_27 
REMARK       I    between atoms: N_7  and  C_8 
REMARK       I    between atoms: C_8  and  N_10 
REMARK    7  A    between atoms: O_20  and  C_21 
ROOT
ATOM      1  C   UNL d   1      26.439 -15.717  -1.986  0.00  0.00     0.333 C 
ENDROOT
BRANCH   1   2
ATOM      2  C   UNL d   1      25.542 -15.518  -3.268  0.00  0.00     0.325 C 
ATOM      3  O   UNL d   1      25.529 -16.259  -4.245  0.00  0.00    -0.259 OA
BRANCH   2   4
ATOM      4  O   UNL d   1      24.658 -14.462  -3.138  0.00  0.00    -0.318 OA
BRANCH   4   5
ATOM      5  C   UNL d   1      24.780 -13.416  -4.132  0.00  0.00     0.174 C 
ATOM      6  C   UNL d   1      26.005 -12.534  -3.885  0.00  0.00     0.034 C 
ENDBRANCH   4   5
ENDBRANCH   2   4
ENDBRANCH   1   2
BRANCH   1   7
ATOM      7  N   UNL d   1      26.318 -14.535  -1.105  0.00  0.00    -0.293 N 
ATOM      8  C   UNL d   1      26.903 -14.575   0.127  0.00  0.00     0.347 C 
ATOM      9  O   UNL d   1      27.617 -15.524   0.459  0.00  0.00    -0.245 OA
ATOM     10  N   UNL d   1      26.683 -13.487   0.894  0.00  0.00    -0.169 NA
ATOM     11  C   UNL d   1      27.188 -13.523   2.082  0.00  0.00     0.177 A 
ATOM     12  N   UNL d   1      27.869 -14.505   2.782  0.00  0.00    -0.334 N 
ATOM     13  S   UNL d   1      27.031 -12.055   3.086  0.00  0.00    -0.050 SA
ATOM     14  C   UNL d   1      28.233 -14.171   4.087  0.00  0.00     0.051 A 
ATOM     15  H   UNL d   1      28.064 -15.402   2.353  0.00  0.00     0.168 HD
ATOM     16  C   UNL d   1      28.872 -14.976   5.020  0.00  0.00     0.031 A 
ATOM     17  C   UNL d   1      27.863 -12.863   4.436  0.00  0.00     0.035 A 
ATOM     18  C   UNL d   1      29.133 -14.449   6.296  0.00  0.00     0.002 A 
ATOM     19  C   UNL d   1      28.759 -13.136   6.623  0.00  0.00     0.002 A 
ATOM     20  C   UNL d   1      28.118 -12.332   5.684  0.00  0.00     0.021 A 
ATOM     21  H   UNL d   1      25.674 -13.787  -1.321  0.00  0.00     0.168 HD
ENDBRANCH   1   7
BRANCH   1  22
ATOM     22  O   UNL d   1      26.178 -16.927  -1.185  0.00  0.00    -0.303 OA
BRANCH  22  23
ATOM     23  C   UNL d   1      24.901 -17.289  -0.863  0.00  0.00     0.072 C 
ATOM     24  C   UNL d   1      24.539 -18.568  -0.502  0.00  0.00     0.037 C 
ATOM     25  C   UNL d   1      23.212 -18.987  -0.533  0.00  0.00     0.003 C 
ATOM     26  C   UNL d   1      22.213 -18.044  -0.529  0.00  0.00     0.000 C 
ATOM     27  C   UNL d   1      22.574 -16.702  -0.525  0.00  0.00     0.003 C 
ATOM     28  C   UNL d   1      23.907 -16.323  -0.772  0.00  0.00     0.037 C 
ENDBRANCH  22  23
ENDBRANCH   1  22
BRANCH   1  29
ATOM     29  C   UNL d   1      27.899 -15.909  -2.544  0.00  0.00     0.449 C 
ATOM     30  F   UNL d   1      28.480 -17.050  -2.097  0.00  0.00    -0.166 F 
ATOM     31  F   UNL d   1      28.019 -15.912  -3.889  0.00  0.00    -0.166 F 
ATOM     32  F   UNL d   1      28.700 -14.889  -2.113  0.00  0.00    -0.166 F 
ENDBRANCH   1  29
TORSDOF 7
ENDMDL
MODEL 2
REMARK VINA RESULT:    -8.064      0.788      1.177
REMARK INTER + INTRA:         -12.057
REMARK INTER:                 -10.152
REMARK INTRA:                  -1.905
REMARK CONF_INDEPENDENT:        2.088
REMARK UNBOUND:                -1.905
REMARK  7 active torsions:
REMARK  status: ('A' for Active; 'I' for Inactive)
REMARK    1  A    between atoms: C_2  and  O_3 
REMARK    2  A    between atoms: O_3  and  C_4 
REMARK    3  A    between atoms: C_4  and  C_6 
REMARK    4  A    between atoms: C_6  and  N_7 
REMARK    5  A    between atoms: C_6  and  O_20 
REMARK    6  A    between atoms: C_6  and  C_27 
REMARK       I    between atoms: N_7  and  C_8 
REMARK       I    between atoms: C_8  and  N_10 
REMARK    7  A    between atoms: O_20  and  C_21 
ROOT
ATOM      1  C   UNL d   1      26.441 -15.702  -1.122  0.00  0.00     0.333 C 
ENDROOT
BRANCH   1   2
ATOM      2  C   UNL d   1      25.722 -15.455  -2.505  0.00  0.00     0.325 C 
ATOM      3  O   UNL d   1      25.526 -16.308  -3.362  0.00  0.00    -0.259 OA
BRANCH   2   4
ATOM      4  O   UNL d   1      25.212 -14.174  -2.615  0.00  0.00    -0.318 OA
BRANCH   4   5
ATOM      5  C   UNL d   1      24.803 -13.774  -3.945  0.00  0.00     0.174 C 
ATOM      6  C   UNL d   1      25.791 -12.790  -4.575  0.00  0.00     0.034 C 
ENDBRANCH   4   5
ENDBRANCH   2   4
ENDBRANCH   1   2
BRANCH   1   7
ATOM      7  N   UNL d   1      26.488 -14.440  -0.353  0.00  0.00    -0.293 N 
ATOM      8  C   UNL d   1      27.027 -14.458   0.900  0.00  0.00     0.347 C 
ATOM      9  O   UNL d   1      27.574 -15.472   1.341  0.00  0.00    -0.245 OA
ATOM     10  N   UNL d   1      26.964 -13.283   1.561  0.00  0.00    -0.169 NA
ATOM     11  C   UNL d   1      27.427 -13.289   2.767  0.00  0.00     0.177 A 
ATOM     12  N   UNL d   1      27.925 -14.296   3.576  0.00  0.00    -0.334 N 
ATOM     13  S   UNL d   1      27.479 -11.728   3.633  0.00  0.00    -0.050 SA
ATOM     14  C   UNL d   1      28.305 -13.905   4.860  0.00  0.00     0.051 A 
ATOM     15  H   UNL d   1      27.986 -15.248   3.233  0.00  0.00     0.168 HD
ATOM     16  C   UNL d   1      28.784 -14.711   5.884  0.00  0.00     0.031 A 
ATOM     17  C   UNL d   1      28.138 -12.529   5.080  0.00  0.00     0.035 A 
ATOM     18  C   UNL d   1      29.093 -14.117   7.119  0.00  0.00     0.002 A 
ATOM     19  C   UNL d   1      28.924 -12.737   7.316  0.00  0.00     0.002 A 
ATOM     20  C   UNL d   1      28.443 -11.932   6.287  0.00  0.00     0.021 A 
ATOM     21  H   UNL d   1      25.976 -13.623  -0.658  0.00  0.00     0.168 HD
ENDBRANCH   1   7
BRANCH   1  22
ATOM     22  O   UNL d   1      25.868 -16.754  -0.263  0.00  0.00    -0.303 OA
BRANCH  22  23
ATOM     23  C   UNL d   1      24.593 -17.199  -0.462  0.00  0.00     0.072 C 
ATOM     24  C   UNL d   1      23.519 -16.366  -0.683  0.00  0.00     0.037 C 
ATOM     25  C   UNL d   1      22.208 -16.805  -0.521  0.00  0.00     0.003 C 
ATOM     26  C   UNL d   1      21.950 -18.154  -0.538  0.00  0.00     0.000 C 
ATOM     27  C   UNL d   1      23.019 -19.029  -0.684  0.00  0.00     0.003 C 
ATOM     28  C   UNL d   1      24.341 -18.561  -0.566  0.00  0.00     0.037 C 
ENDBRANCH  22  23
ENDBRANCH   1  22
BRANCH   1  29
ATOM     29  C   UNL d   1      27.875 -16.229  -1.506  0.00  0.00     0.449 C 
ATOM     30  F   UNL d   1      28.144 -17.443  -0.964  0.00  0.00    -0.166 F 
ATOM     31  F   UNL d   1      28.131 -16.328  -2.828  0.00  0.00    -0.166 F 
ATOM     32  F   UNL d   1      28.829 -15.383  -1.016  0.00  0.00    -0.166 F 
ENDBRANCH   1  29
TORSDOF 7
ENDMDL
MODEL 3
REMARK VINA RESULT:    -7.121      3.919      6.997
REMARK INTER + INTRA:         -10.662
REMARK INTER:                  -9.210
REMARK INTRA:                  -1.452
REMARK CONF_INDEPENDENT:        2.088
REMARK UNBOUND:                -1.452
REMARK  7 active torsions:
REMARK  status: ('A' for Active; 'I' for Inactive)
REMARK    1  A    between atoms: C_2  and  O_3 
REMARK    2  A    between atoms: O_3  and  C_4 
REMARK    3  A    between atoms: C_4  and  C_6 
REMARK    4  A    between atoms: C_6  and  N_7 
REMARK    5  A    between atoms: C_6  and  O_20 
REMARK    6  A    between atoms: C_6  and  C_27 
REMARK       I    between atoms: N_7  and  C_8 
REMARK       I    between atoms: C_8  and  N_10 
REMARK    7  A    between atoms: O_20  and  C_21 
ROOT
ATOM      1  C   UNL d   1      27.024 -14.348  -2.982  0.00  0.00     0.333 C 
ENDROOT
BRANCH   1   2
ATOM      2  C   UNL d   1      26.332 -14.870  -4.300  0.00  0.00     0.325 C 
ATOM      3  O   UNL d   1      25.137 -14.782  -4.555  0.00  0.00    -0.259 OA
BRANCH   2   4
ATOM      4  O   UNL d   1      27.245 -15.350  -5.223  0.00  0.00    -0.318 OA
BRANCH   4   5
ATOM      5  C   UNL d   1      27.816 -14.360  -6.112  0.00  0.00     0.174 C 
ATOM      6  C   UNL d   1      29.215 -14.759  -6.586  0.00  0.00     0.034 C 
ENDBRANCH   4   5
ENDBRANCH   2   4
ENDBRANCH   1   2
BRANCH   1   7
ATOM      7  N   UNL d   1      27.567 -12.991  -3.209  0.00  0.00    -0.293 N 
ATOM      8  C   UNL d   1      26.709 -11.998  -3.582  0.00  0.00     0.347 C 
ATOM      9  O   UNL d   1      25.492 -12.190  -3.615  0.00  0.00    -0.245 OA
ATOM     10  N   UNL d   1      27.296 -10.810  -3.840  0.00  0.00    -0.169 NA
ATOM     11  C   UNL d   1      26.509  -9.867  -4.240  0.00  0.00     0.177 A 
ATOM     12  N   UNL d   1      25.158  -9.837  -4.538  0.00  0.00    -0.334 N 
ATOM     13  S   UNL d   1      27.221  -8.246  -4.470  0.00  0.00    -0.050 SA
ATOM     14  C   UNL d   1      24.666  -8.609  -4.982  0.00  0.00     0.051 A 
ATOM     15  H   UNL d   1      24.591 -10.672  -4.443  0.00  0.00     0.168 HD
ATOM     16  C   UNL d   1      23.373  -8.313  -5.394  0.00  0.00     0.031 A 
ATOM     17  C   UNL d   1      25.649  -7.608  -5.008  0.00  0.00     0.035 A 
ATOM     18  C   UNL d   1      23.088  -7.007  -5.826  0.00  0.00     0.002 A 
ATOM     19  C   UNL d   1      24.086  -6.020  -5.840  0.00  0.00     0.002 A 
ATOM     20  C   UNL d   1      25.381  -6.320  -5.426  0.00  0.00     0.021 A 
ATOM     21  H   UNL d   1      28.563 -12.830  -3.267  0.00  0.00     0.168 HD
ENDBRANCH   1   7
BRANCH   1  22
ATOM     22  O   UNL d   1      26.187 -14.321  -1.769  0.00  0.00    -0.303 OA
BRANCH  22  23
ATOM     23  C   UNL d   1      25.669 -15.473  -1.252  0.00  0.00     0.072 C 
ATOM     24  C   UNL d   1      26.207 -16.134  -0.170  0.00  0.00     0.037 C 
ATOM     25  C   UNL d   1      25.894 -17.462   0.105  0.00  0.00     0.003 C 
ATOM     26  C   UNL d   1      24.755 -18.005  -0.439  0.00  0.00     0.000 C 
ATOM     27  C   UNL d   1      23.978 -17.209  -1.272  0.00  0.00     0.003 C 
ATOM     28  C   UNL d   1      24.471 -15.978  -1.742  0.00  0.00     0.037 C 
ENDBRANCH  22  23
ENDBRANCH   1  22
BRANCH   1  29
ATOM     29  C   UNL d   1      28.149 -15.406  -2.674  0.00  0.00     0.449 C 
ATOM     30  F   UNL d   1      28.697 -15.237  -1.445  0.00  0.00    -0.166 F 
ATOM     31  F   UNL d   1      27.778 -16.701  -2.760  0.00  0.00    -0.166 F 
ATOM     32  F   UNL d   1      29.176 -15.265  -3.563  0.00  0.00    -0.166 F 
ENDBRANCH   1  29
TORSDOF 7
ENDMDL
MODEL 4
REMARK VINA RESULT:    -6.383      1.877      3.763
REMARK INTER + INTRA:         -10.071
REMARK INTER:                  -8.472
REMARK INTRA:                  -1.600
REMARK CONF_INDEPENDENT:        2.088
REMARK UNBOUND:                -1.600
REMARK  7 active torsions:
REMARK  status: ('A' for Active; 'I' for Inactive)
REMARK    1  A    between atoms: C_2  and  O_3 
REMARK    2  A    between atoms: O_3  and  C_4 
REMARK    3  A    between atoms: C_4  and  C_6 
REMARK    4  A    between atoms: C_6  and  N_7 
REMARK    5  A    between atoms: C_6  and  O_20 
REMARK    6  A    between atoms: C_6  and  C_27 
REMARK       I    between atoms: N_7  and  C_8 
REMARK       I    between atoms: C_8  and  N_10 
REMARK    7  A    between atoms: O_20  and  C_21 
ROOT
ATOM      1  C   UNL d   1      25.921 -16.145  -1.345  0.00  0.00     0.333 C 
ENDROOT
BRANCH   1   2
ATOM      2  C   UNL d   1      27.334 -16.838  -1.456  0.00  0.00     0.325 C 
ATOM      3  O   UNL d   1      27.690 -17.825  -0.823  0.00  0.00    -0.259 OA
BRANCH   2   4
ATOM      4  O   UNL d   1      28.120 -16.281  -2.450  0.00  0.00    -0.318 OA
BRANCH   4   5
ATOM      5  C   UNL d   1      29.027 -15.237  -2.021  0.00  0.00     0.174 C 
ATOM      6  C   UNL d   1      29.825 -15.647  -0.782  0.00  0.00     0.034 C 
ENDBRANCH   4   5
ENDBRANCH   2   4
ENDBRANCH   1   2
BRANCH   1   7
ATOM      7  N   UNL d   1      26.056 -14.846  -0.652  0.00  0.00    -0.293 N 
ATOM      8  C   UNL d   1      26.685 -14.813   0.559  0.00  0.00     0.347 C 
ATOM      9  O   UNL d   1      27.236 -15.818   1.015  0.00  0.00    -0.245 OA
ATOM     10  N   UNL d   1      26.700 -13.603   1.157  0.00  0.00    -0.169 NA
ATOM     11  C   UNL d   1      27.250 -13.558   2.325  0.00  0.00     0.177 A 
ATOM     12  N   UNL d   1      27.779 -14.535   3.150  0.00  0.00    -0.334 N 
ATOM     13  S   UNL d   1      27.405 -11.956   3.097  0.00  0.00    -0.050 SA
ATOM     14  C   UNL d   1      28.261 -14.088   4.381  0.00  0.00     0.051 A 
ATOM     15  H   UNL d   1      27.790 -15.505   2.857  0.00  0.00     0.168 HD
ATOM     16  C   UNL d   1      28.793 -14.852   5.411  0.00  0.00     0.031 A 
ATOM     17  C   UNL d   1      28.147 -12.698   4.535  0.00  0.00     0.035 A 
ATOM     18  C   UNL d   1      29.207 -14.202   6.585  0.00  0.00     0.002 A 
ATOM     19  C   UNL d   1      29.088 -12.809   6.717  0.00  0.00     0.002 A 
ATOM     20  C   UNL d   1      28.554 -12.046   5.682  0.00  0.00     0.021 A 
ATOM     21  H   UNL d   1      25.545 -14.032  -0.964  0.00  0.00     0.168 HD
ENDBRANCH   1   7
BRANCH   1  22
ATOM     22  O   UNL d   1      25.196 -15.928  -2.610  0.00  0.00    -0.303 OA
BRANCH  22  23
ATOM     23  C   UNL d   1      25.592 -14.956  -3.483  0.00  0.00     0.072 C 
ATOM     24  C   UNL d   1      26.347 -15.202  -4.608  0.00  0.00     0.037 C 
ATOM     25  C   UNL d   1      27.030 -14.184  -5.267  0.00  0.00     0.003 C 
ATOM     26  C   UNL d   1      26.646 -12.881  -5.060  0.00  0.00     0.000 C 
ATOM     27  C   UNL d   1      25.606 -12.633  -4.172  0.00  0.00     0.003 C 
ATOM     28  C   UNL d   1      25.135 -13.654  -3.327  0.00  0.00     0.037 C 
ENDBRANCH  22  23
ENDBRANCH   1  22
BRANCH   1  29
ATOM     29  C   UNL d   1      25.035 -17.170  -0.541  0.00  0.00     0.449 C 
ATOM     30  F   UNL d   1      24.601 -18.198  -1.313  0.00  0.00    -0.166 F 
ATOM     31  F   UNL d   1      25.613 -17.719   0.549  0.00  0.00    -0.166 F 
ATOM     32  F   UNL d   1      23.909 -16.550  -0.079  0.00  0.00    -0.166 F 
ENDBRANCH   1  29
TORSDOF 7
ENDMDL
MODEL 5
REMARK VINA RESULT:    -5.934      4.744      7.977
REMARK INTER + INTRA:          -9.915
REMARK INTER:                  -8.022
REMARK INTRA:                  -1.893
REMARK CONF_INDEPENDENT:        2.088
REMARK UNBOUND:                -1.893
REMARK  7 active torsions:
REMARK  status: ('A' for Active; 'I' for Inactive)
REMARK    1  A    between atoms: C_2  and  O_3 
REMARK    2  A    between atoms: O_3  and  C_4 
REMARK    3  A    between atoms: C_4  and  C_6 
REMARK    4  A    between atoms: C_6  and  N_7 
REMARK    5  A    between atoms: C_6  and  O_20 
REMARK    6  A    between atoms: C_6  and  C_27 
REMARK       I    between atoms: N_7  and  C_8 
REMARK       I    between atoms: C_8  and  N_10 
REMARK    7  A    between atoms: O_20  and  C_21 
ROOT
ATOM      1  C   UNL d   1      26.748 -14.378  -3.342  0.00  0.00     0.333 C 
ENDROOT
BRANCH   1   2
ATOM      2  C   UNL d   1      26.516 -13.417  -2.113  0.00  0.00     0.325 C 
ATOM      3  O   UNL d   1      25.906 -13.709  -1.091  0.00  0.00    -0.259 OA
BRANCH   2   4
ATOM      4  O   UNL d   1      27.186 -12.213  -2.249  0.00  0.00    -0.318 OA
BRANCH   4   5
ATOM      5  C   UNL d   1      26.420 -11.132  -2.831  0.00  0.00     0.174 C 
ATOM      6  C   UNL d   1      26.978 -10.705  -4.190  0.00  0.00     0.034 C 
ENDBRANCH   4   5
ENDBRANCH   2   4
ENDBRANCH   1   2
BRANCH   1   7
ATOM      7  N   UNL d   1      27.956 -13.956  -4.084  0.00  0.00    -0.293 N 
ATOM      8  C   UNL d   1      28.555 -14.852  -4.920  0.00  0.00     0.347 C 
ATOM      9  O   UNL d   1      28.040 -15.949  -5.150  0.00  0.00    -0.245 OA
ATOM     10  N   UNL d   1      29.692 -14.412  -5.501  0.00  0.00    -0.169 NA
ATOM     11  C   UNL d   1      30.301 -15.260  -6.261  0.00  0.00     0.177 A 
ATOM     12  N   UNL d   1      30.066 -16.591  -6.559  0.00  0.00    -0.334 N 
ATOM     13  S   UNL d   1      31.738 -14.681  -7.149  0.00  0.00    -0.050 SA
ATOM     14  C   UNL d   1      30.988 -17.189  -7.418  0.00  0.00     0.051 A 
ATOM     15  H   UNL d   1      29.273 -17.076  -6.154  0.00  0.00     0.168 HD
ATOM     16  C   UNL d   1      31.020 -18.512  -7.839  0.00  0.00     0.031 A 
ATOM     17  C   UNL d   1      31.980 -16.298  -7.854  0.00  0.00     0.035 A 
ATOM     18  C   UNL d   1      32.055 -18.919  -8.698  0.00  0.00     0.002 A 
ATOM     19  C   UNL d   1      33.035 -18.009  -9.125  0.00  0.00     0.002 A 
ATOM     20  C   UNL d   1      32.999 -16.684  -8.701  0.00  0.00     0.021 A 
ATOM     21  H   UNL d   1      28.439 -13.099  -3.851  0.00  0.00     0.168 HD
ENDBRANCH   1   7
BRANCH   1  22
ATOM     22  O   UNL d   1      26.864 -15.816  -3.037  0.00  0.00    -0.303 OA
BRANCH  22  23
ATOM     23  C   UNL d   1      26.215 -16.357  -1.964  0.00  0.00     0.072 C 
ATOM     24  C   UNL d   1      26.815 -16.589  -0.747  0.00  0.00     0.037 C 
ATOM     25  C   UNL d   1      26.255 -17.453   0.190  0.00  0.00     0.003 C 
ATOM     26  C   UNL d   1      24.921 -17.767   0.095  0.00  0.00     0.000 C 
ATOM     27  C   UNL d   1      24.191 -17.230  -0.958  0.00  0.00     0.003 C 
ATOM     28  C   UNL d   1      24.848 -16.595  -2.028  0.00  0.00     0.037 C 
ENDBRANCH  22  23
ENDBRANCH   1  22
BRANCH   1  29
ATOM     29  C   UNL d   1      25.436 -14.252  -4.203  0.00  0.00     0.449 C 
ATOM     30  F   UNL d   1      25.249 -15.314  -5.025  0.00  0.00    -0.166 F 
ATOM     31  F   UNL d   1      24.289 -14.092  -3.507  0.00  0.00    -0.166 F 
ATOM     32  F   UNL d   1      25.517 -13.159  -5.018  0.00  0.00    -0.166 F 
ENDBRANCH   1  29
TORSDOF 7
ENDMDL
MODEL 6
REMARK VINA RESULT:    -5.890      3.816      7.273
REMARK INTER + INTRA:          -9.919
REMARK INTER:                  -7.978
REMARK INTRA:                  -1.941
REMARK CONF_INDEPENDENT:        2.088
REMARK UNBOUND:                -1.941
REMARK  7 active torsions:
REMARK  status: ('A' for Active; 'I' for Inactive)
REMARK    1  A    between atoms: C_2  and  O_3 
REMARK    2  A    between atoms: O_3  and  C_4 
REMARK    3  A    between atoms: C_4  and  C_6 
REMARK    4  A    between atoms: C_6  and  N_7 
REMARK    5  A    between atoms: C_6  and  O_20 
REMARK    6  A    between atoms: C_6  and  C_27 
REMARK       I    between atoms: N_7  and  C_8 
REMARK       I    between atoms: C_8  and  N_10 
REMARK    7  A    between atoms: O_20  and  C_21 
ROOT
ATOM      1  C   UNL d   1      26.529 -15.976  -0.934  0.00  0.00     0.333 C 
ENDROOT
BRANCH   1   2
ATOM      2  C   UNL d   1      26.865 -17.301  -0.147  0.00  0.00     0.325 C 
ATOM      3  O   UNL d   1      26.203 -17.764   0.773  0.00  0.00    -0.259 OA
BRANCH   2   4
ATOM      4  O   UNL d   1      27.947 -17.976  -0.685  0.00  0.00    -0.318 OA
BRANCH   4   5
ATOM      5  C   UNL d   1      29.238 -17.355  -0.480  0.00  0.00     0.174 C 
ATOM      6  C   UNL d   1      30.387 -18.277  -0.894  0.00  0.00     0.034 C 
ENDBRANCH   4   5
ENDBRANCH   2   4
ENDBRANCH   1   2
BRANCH   1   7
ATOM      7  N   UNL d   1      27.284 -15.946  -2.205  0.00  0.00    -0.293 N 
ATOM      8  C   UNL d   1      27.119 -14.879  -3.039  0.00  0.00     0.347 C 
ATOM      9  O   UNL d   1      26.450 -13.902  -2.694  0.00  0.00    -0.245 OA
ATOM     10  N   UNL d   1      27.786 -14.965  -4.209  0.00  0.00    -0.169 NA
ATOM     11  C   UNL d   1      27.607 -13.987  -5.034  0.00  0.00     0.177 A 
ATOM     12  N   UNL d   1      26.793 -12.868  -4.999  0.00  0.00    -0.334 N 
ATOM     13  S   UNL d   1      28.568 -13.997  -6.539  0.00  0.00    -0.050 SA
ATOM     14  C   UNL d   1      26.857 -12.041  -6.121  0.00  0.00     0.051 A 
ATOM     15  H   UNL d   1      26.191 -12.694  -4.202  0.00  0.00     0.168 HD
ATOM     16  C   UNL d   1      26.118 -10.892  -6.370  0.00  0.00     0.031 A 
ATOM     17  C   UNL d   1      27.781 -12.493  -7.076  0.00  0.00     0.035 A 
ATOM     18  C   UNL d   1      26.323 -10.211  -7.581  0.00  0.00     0.002 A 
ATOM     19  C   UNL d   1      27.256 -10.678  -8.521  0.00  0.00     0.002 A 
ATOM     20  C   UNL d   1      27.995 -11.830  -8.268  0.00  0.00     0.021 A 
ATOM     21  H   UNL d   1      27.770 -16.765  -2.544  0.00  0.00     0.168 HD
ENDBRANCH   1   7
BRANCH   1  22
ATOM     22  O   UNL d   1      25.106 -15.731  -1.229  0.00  0.00    -0.303 OA
BRANCH  22  23
ATOM     23  C   UNL d   1      24.180 -16.722  -1.071  0.00  0.00     0.072 C 
ATOM     24  C   UNL d   1      23.147 -16.663  -0.161  0.00  0.00     0.037 C 
ATOM     25  C   UNL d   1      22.453 -17.804   0.231  0.00  0.00     0.003 C 
ATOM     26  C   UNL d   1      22.505 -18.923  -0.564  0.00  0.00     0.000 C 
ATOM     27  C   UNL d   1      23.279 -18.877  -1.718  0.00  0.00     0.003 C 
ATOM     28  C   UNL d   1      24.176 -17.814  -1.930  0.00  0.00     0.037 C 
ENDBRANCH  22  23
ENDBRANCH   1  22
BRANCH   1  29
ATOM     29  C   UNL d   1      26.945 -14.813   0.043  0.00  0.00     0.449 C 
ATOM     30  F   UNL d   1      27.752 -13.899  -0.551  0.00  0.00    -0.166 F 
ATOM     31  F   UNL d   1      25.928 -14.126   0.607  0.00  0.00    -0.166 F 
ATOM     32  F   UNL d   1      27.662 -15.319   1.091  0.00  0.00    -0.166 F 
ENDBRANCH   1  29
TORSDOF 7
ENDMDL
MODEL 7
REMARK VINA RESULT:    -5.859      3.762      7.211
REMARK INTER + INTRA:          -9.956
REMARK INTER:                  -7.947
REMARK INTRA:                  -2.009
REMARK CONF_INDEPENDENT:        2.088
REMARK UNBOUND:                -2.009
REMARK  7 active torsions:
REMARK  status: ('A' for Active; 'I' for Inactive)
REMARK    1  A    between atoms: C_2  and  O_3 
REMARK    2  A    between atoms: O_3  and  C_4 
REMARK    3  A    between atoms: C_4  and  C_6 
REMARK    4  A    between atoms: C_6  and  N_7 
REMARK    5  A    between atoms: C_6  and  O_20 
REMARK    6  A    between atoms: C_6  and  C_27 
REMARK       I    between atoms: N_7  and  C_8 
REMARK       I    between atoms: C_8  and  N_10 
REMARK    7  A    between atoms: O_20  and  C_21 
ROOT
ATOM      1  C   UNL d   1      27.827 -14.524   0.117  0.00  0.00     0.333 C 
ENDROOT
BRANCH   1   2
ATOM      2  C   UNL d   1      27.386 -14.159   1.587  0.00  0.00     0.325 C 
ATOM      3  O   UNL d   1      26.484 -13.384   1.884  0.00  0.00    -0.259 OA
BRANCH   2   4
ATOM      4  O   UNL d   1      28.055 -14.906   2.541  0.00  0.00    -0.318 OA
BRANCH   4   5
ATOM      5  C   UNL d   1      28.525 -14.170   3.697  0.00  0.00     0.174 C 
ATOM      6  C   UNL d   1      28.155 -14.870   5.006  0.00  0.00     0.034 C 
ENDBRANCH   4   5
ENDBRANCH   2   4
ENDBRANCH   1   2
BRANCH   1   7
ATOM      7  N   UNL d   1      28.788 -15.648   0.150  0.00  0.00    -0.293 N 
ATOM      8  C   UNL d   1      29.193 -16.195  -1.032  0.00  0.00     0.347 C 
ATOM      9  O   UNL d   1      28.864 -15.694  -2.110  0.00  0.00    -0.245 OA
ATOM     10  N   UNL d   1      30.012 -17.262  -0.912  0.00  0.00    -0.169 NA
ATOM     11  C   UNL d   1      30.371 -17.825  -2.017  0.00  0.00     0.177 A 
ATOM     12  N   UNL d   1      30.025 -17.602  -3.339  0.00  0.00    -0.334 N 
ATOM     13  S   UNL d   1      31.553 -19.159  -1.912  0.00  0.00    -0.050 SA
ATOM     14  C   UNL d   1      30.613 -18.461  -4.268  0.00  0.00     0.051 A 
ATOM     15  H   UNL d   1      29.375 -16.864  -3.583  0.00  0.00     0.168 HD
ATOM     16  C   UNL d   1      30.405 -18.494  -5.641  0.00  0.00     0.031 A 
ATOM     17  C   UNL d   1      31.489 -19.384  -3.676  0.00  0.00     0.035 A 
ATOM     18  C   UNL d   1      31.087 -19.459  -6.401  0.00  0.00     0.002 A 
ATOM     19  C   UNL d   1      31.963 -20.369  -5.789  0.00  0.00     0.002 A 
ATOM     20  C   UNL d   1      32.169 -20.333  -4.412  0.00  0.00     0.021 A 
ATOM     21  H   UNL d   1      29.005 -16.125   1.014  0.00  0.00     0.168 HD
ENDBRANCH   1   7
BRANCH   1  22
ATOM     22  O   UNL d   1      26.745 -14.860  -0.827  0.00  0.00    -0.303 OA
BRANCH  22  23
ATOM     23  C   UNL d   1      25.929 -15.932  -0.601  0.00  0.00     0.072 C 
ATOM     24  C   UNL d   1      26.257 -16.978   0.232  0.00  0.00     0.037 C 
ATOM     25  C   UNL d   1      25.593 -18.200   0.165  0.00  0.00     0.003 C 
ATOM     26  C   UNL d   1      24.356 -18.256  -0.432  0.00  0.00     0.000 C 
ATOM     27  C   UNL d   1      23.833 -17.089  -0.974  0.00  0.00     0.003 C 
ATOM     28  C   UNL d   1      24.646 -15.951  -1.132  0.00  0.00     0.037 C 
ENDBRANCH  22  23
ENDBRANCH   1  22
BRANCH   1  29
ATOM     29  C   UNL d   1      28.463 -13.201  -0.451  0.00  0.00     0.449 C 
ATOM     30  F   UNL d   1      29.810 -13.288  -0.585  0.00  0.00    -0.166 F 
ATOM     31  F   UNL d   1      27.980 -12.778  -1.639  0.00  0.00    -0.166 F 
ATOM     32  F   UNL d   1      28.242 -12.168   0.416  0.00  0.00    -0.166 F 
ENDBRANCH   1  29
TORSDOF 7
ENDMDL
MODEL 8
REMARK VINA RESULT:    -5.723      3.278      3.946
REMARK INTER + INTRA:          -9.945
REMARK INTER:                  -7.811
REMARK INTRA:                  -2.134
REMARK CONF_INDEPENDENT:        2.088
REMARK UNBOUND:                -2.134
REMARK  7 active torsions:
REMARK  status: ('A' for Active; 'I' for Inactive)
REMARK    1  A    between atoms: C_2  and  O_3 
REMARK    2  A    between atoms: O_3  and  C_4 
REMARK    3  A    between atoms: C_4  and  C_6 
REMARK    4  A    between atoms: C_6  and  N_7 
REMARK    5  A    between atoms: C_6  and  O_20 
REMARK    6  A    between atoms: C_6  and  C_27 
REMARK       I    between atoms: N_7  and  C_8 
REMARK       I    between atoms: C_8  and  N_10 
REMARK    7  A    between atoms: O_20  and  C_21 
ROOT
ATOM      1  C   UNL d   1      26.469 -14.868  -3.249  0.00  0.00     0.333 C 
ENDROOT
BRANCH   1   2
ATOM      2  C   UNL d   1      25.284 -13.866  -3.535  0.00  0.00     0.325 C 
ATOM      3  O   UNL d   1      24.330 -14.091  -4.270  0.00  0.00    -0.259 OA
BRANCH   2   4
ATOM      4  O   UNL d   1      25.364 -12.719  -2.766  0.00  0.00    -0.318 OA
BRANCH   4   5
ATOM      5  C   UNL d   1      25.929 -11.560  -3.426  0.00  0.00     0.174 C 
ATOM      6  C   UNL d   1      25.906 -11.702  -4.949  0.00  0.00     0.034 C 
ENDBRANCH   4   5
ENDBRANCH   2   4
ENDBRANCH   1   2
BRANCH   1   7
ATOM      7  N   UNL d   1      27.220 -14.423  -2.056  0.00  0.00    -0.293 N 
ATOM      8  C   UNL d   1      28.295 -15.158  -1.648  0.00  0.00     0.347 C 
ATOM      9  O   UNL d   1      28.708 -16.104  -2.322  0.00  0.00    -0.245 OA
ATOM     10  N   UNL d   1      28.879 -14.725  -0.511  0.00  0.00    -0.169 NA
ATOM     11  C   UNL d   1      29.870 -15.433  -0.081  0.00  0.00     0.177 A 
ATOM     12  N   UNL d   1      30.431 -16.622  -0.515  0.00  0.00    -0.334 N 
ATOM     13  S   UNL d   1      30.752 -14.828   1.348  0.00  0.00    -0.050 SA
ATOM     14  C   UNL d   1      31.495 -17.100   0.250  0.00  0.00     0.051 A 
ATOM     15  H   UNL d   1      30.064 -17.096  -1.332  0.00  0.00     0.168 HD
ATOM     16  C   UNL d   1      32.202 -18.282   0.072  0.00  0.00     0.031 A 
ATOM     17  C   UNL d   1      31.823 -16.250   1.316  0.00  0.00     0.035 A 
ATOM     18  C   UNL d   1      33.235 -18.590   0.973  0.00  0.00     0.002 A 
ATOM     19  C   UNL d   1      33.549 -17.722   2.031  0.00  0.00     0.002 A 
ATOM     20  C   UNL d   1      32.838 -16.538   2.206  0.00  0.00     0.021 A 
ATOM     21  H   UNL d   1      26.854 -13.704  -1.446  0.00  0.00     0.168 HD
ENDBRANCH   1   7
BRANCH   1  22
ATOM     22  O   UNL d   1      26.100 -16.284  -3.068  0.00  0.00    -0.303 OA
BRANCH  22  23
ATOM     23  C   UNL d   1      25.476 -16.704  -1.929  0.00  0.00     0.072 C 
ATOM     24  C   UNL d   1      26.094 -17.450  -0.951  0.00  0.00     0.037 C 
ATOM     25  C   UNL d   1      25.363 -18.158  -0.001  0.00  0.00     0.003 C 
ATOM     26  C   UNL d   1      24.055 -17.810   0.230  0.00  0.00     0.000 C 
ATOM     27  C   UNL d   1      23.505 -16.778  -0.521  0.00  0.00     0.003 C 
ATOM     28  C   UNL d   1      24.182 -16.281  -1.650  0.00  0.00     0.037 C 
ENDBRANCH  22  23
ENDBRANCH   1  22
BRANCH   1  29
ATOM     29  C   UNL d   1      27.342 -14.840  -4.559  0.00  0.00     0.449 C 
ATOM     30  F   UNL d   1      28.202 -13.792  -4.588  0.00  0.00    -0.166 F 
ATOM     31  F   UNL d   1      28.073 -15.949  -4.802  0.00  0.00    -0.166 F 
ATOM     32  F   UNL d   1      26.537 -14.692  -5.653  0.00  0.00    -0.166 F 
ENDBRANCH   1  29
TORSDOF 7
ENDMDL
MODEL 9
REMARK VINA RESULT:    -5.385      2.149      4.161
REMARK INTER + INTRA:          -9.630
REMARK INTER:                  -7.473
REMARK INTRA:                  -2.157
REMARK CONF_INDEPENDENT:        2.088
REMARK UNBOUND:                -2.157
REMARK  7 active torsions:
REMARK  status: ('A' for Active; 'I' for Inactive)
REMARK    1  A    between atoms: C_2  and  O_3 
REMARK    2  A    between atoms: O_3  and  C_4 
REMARK    3  A    between atoms: C_4  and  C_6 
REMARK    4  A    between atoms: C_6  and  N_7 
REMARK    5  A    between atoms: C_6  and  O_20 
REMARK    6  A    between atoms: C_6  and  C_27 
REMARK       I    between atoms: N_7  and  C_8 
REMARK       I    between atoms: C_8  and  N_10 
REMARK    7  A    between atoms: O_20  and  C_21 
ROOT
ATOM      1  C   UNL d   1      26.209 -15.192  -2.724  0.00  0.00     0.333 C 
ENDROOT
BRANCH   1   2
ATOM      2  C   UNL d   1      26.478 -15.573  -4.231  0.00  0.00     0.325 C 
ATOM      3  O   UNL d   1      25.623 -15.649  -5.105  0.00  0.00    -0.259 OA
BRANCH   2   4
ATOM      4  O   UNL d   1      27.827 -15.703  -4.512  0.00  0.00    -0.318 OA
BRANCH   4   5
ATOM      5  C   UNL d   1      28.478 -14.517  -5.026  0.00  0.00     0.174 C 
ATOM      6  C   UNL d   1      28.524 -14.509  -6.555  0.00  0.00     0.034 C 
ENDBRANCH   4   5
ENDBRANCH   2   4
ENDBRANCH   1   2
BRANCH   1   7
ATOM      7  N   UNL d   1      27.493 -15.108  -1.995  0.00  0.00    -0.293 N 
ATOM      8  C   UNL d   1      27.467 -14.898  -0.647  0.00  0.00     0.347 C 
ATOM      9  O   UNL d   1      26.401 -14.896  -0.026  0.00  0.00    -0.245 OA
ATOM     10  N   UNL d   1      28.680 -14.760  -0.071  0.00  0.00    -0.169 NA
ATOM     11  C   UNL d   1      28.677 -14.514   1.197  0.00  0.00     0.177 A 
ATOM     12  N   UNL d   1      27.659 -14.283   2.105  0.00  0.00    -0.334 N 
ATOM     13  S   UNL d   1      30.259 -14.450   2.023  0.00  0.00    -0.050 SA
ATOM     14  C   UNL d   1      28.067 -14.015   3.412  0.00  0.00     0.051 A 
ATOM     15  H   UNL d   1      26.690 -14.302   1.808  0.00  0.00     0.168 HD
ATOM     16  C   UNL d   1      27.265 -13.701   4.502  0.00  0.00     0.031 A 
ATOM     17  C   UNL d   1      29.460 -14.066   3.567  0.00  0.00     0.035 A 
ATOM     18  C   UNL d   1      27.882 -13.445   5.738  0.00  0.00     0.002 A 
ATOM     19  C   UNL d   1      29.278 -13.506   5.872  0.00  0.00     0.002 A 
ATOM     20  C   UNL d   1      30.078 -13.821   4.777  0.00  0.00     0.021 A 
ATOM     21  H   UNL d   1      28.371 -15.024  -2.490  0.00  0.00     0.168 HD
ENDBRANCH   1   7
BRANCH   1  22
ATOM     22  O   UNL d   1      25.453 -13.949  -2.487  0.00  0.00    -0.303 OA
BRANCH  22  23
ATOM     23  C   UNL d   1      25.838 -12.775  -3.070  0.00  0.00     0.072 C 
ATOM     24  C   UNL d   1      26.581 -11.811  -2.425  0.00  0.00     0.037 C 
ATOM     25  C   UNL d   1      26.648 -10.504  -2.898  0.00  0.00     0.003 C 
ATOM     26  C   UNL d   1      26.320 -10.250  -4.208  0.00  0.00     0.000 C 
ATOM     27  C   UNL d   1      25.903 -11.313  -5.001  0.00  0.00     0.003 C 
ATOM     28  C   UNL d   1      25.585 -12.553  -4.417  0.00  0.00     0.037 C 
ENDBRANCH  22  23
ENDBRANCH   1  22
BRANCH   1  29
ATOM     29  C   UNL d   1      25.280 -16.341  -2.181  0.00  0.00     0.449 C 
ATOM     30  F   UNL d   1      24.221 -15.864  -1.479  0.00  0.00    -0.166 F 
ATOM     31  F   UNL d   1      24.782 -17.185  -3.110  0.00  0.00    -0.166 F 
ATOM     32  F   UNL d   1      25.977 -17.132  -1.312  0.00  0.00    -0.166 F 
ENDBRANCH   1  29
TORSDOF 7
ENDMDL
