MODEL 1
REMARK VINA RESULT:   -34.314      0.000      0.000
REMARK INTER + INTRA:         -39.274
REMARK INTER:                 -37.893
REMARK INTRA:                  -1.381
REMARK CONF_INDEPENDENT:        3.580
REMARK UNBOUND:                -1.381
REMARK  12 active torsions:
REMARK  status: ('A' for Active; 'I' for Inactive)
REMARK    1  A    between atoms: C_2  and  O_3 
REMARK    2  A    between atoms: O_3  and  C_4 
REMARK    3  A    between atoms: C_6  and  C_7 
REMARK    4  A    between atoms: C_7  and  N_8 
REMARK    5  A    between atoms: N_8  and  C_9 
REMARK    6  A    between atoms: C_9  and  C_10 
REMARK    7  A    between atoms: C_10  and  N_11 
REMARK    8  A    between atoms: N_11  and  C_12 
REMARK    9  A    between atoms: C_15  and  N_16 
REMARK   10  A    between atoms: C_23  and  O_24 
REMARK   11  A    between atoms: O_24  and  C_25 
REMARK   12  A    between atoms: C_25  and  C_26 
ROOT
ATOM      1  C   UNL d   1      25.465 -15.732  -1.938  0.00  0.00     0.102 A 
ATOM      2  C   UNL d   1      26.828 -15.860  -1.592  0.00  0.00     0.048 A 
ATOM      3  C   UNL d   1      27.266 -16.803  -0.634  0.00  0.00    -0.030 A 
ATOM      4  C   UNL d   1      26.314 -17.521   0.095  0.00  0.00     0.012 A 
ATOM      5  C   UNL d   1      24.981 -17.417  -0.224  0.00  0.00     0.040 A 
ATOM      6  C   UNL d   1      24.546 -16.577  -1.249  0.00  0.00     0.102 A 
ENDROOT
BRANCH   3   7
ATOM      7  C   UNL d   1      28.730 -17.120  -0.495  0.00  0.00     0.271 C 
BRANCH   7   8
ATOM      8  N   UNL d   1      29.369 -16.333   0.603  0.00  0.00    -0.070 N 
ATOM      9  H   UNL d   1      30.125 -16.904   1.009  0.00  0.00     0.277 HD
ATOM     10  H   UNL d   1      28.667 -16.185   1.340  0.00  0.00     0.277 HD
BRANCH   8  11
ATOM     11  C   UNL d   1      29.913 -15.023   0.184  0.00  0.00     0.252 C 
BRANCH  11  12
ATOM     12  C   UNL d   1      29.593 -13.965   1.245  0.00  0.00     0.147 C 
BRANCH  12  13
ATOM     13  N   UNL d   1      28.180 -13.681   1.250  0.00  0.00    -0.388 N 
ATOM     14  H   UNL d   1      27.521 -14.292   0.770  0.00  0.00     0.159 HD
BRANCH  13  15
ATOM     15  C   UNL d   1      27.695 -12.411   1.507  0.00  0.00     0.028 A 
ATOM     16  C   UNL d   1      27.621 -11.508   0.440  0.00  0.00     0.031 A 
ATOM     17  C   UNL d   1      27.167 -10.202   0.626  0.00  0.00     0.038 A 
ATOM     18  C   UNL d   1      26.717  -9.809   1.891  0.00  0.00     0.103 A 
ATOM     19  C   UNL d   1      26.779 -10.694   2.969  0.00  0.00     0.038 A 
ATOM     20  C   UNL d   1      27.260 -11.991   2.770  0.00  0.00     0.031 A 
BRANCH  18  21
ATOM     21  N   UNL d   1      26.118  -8.480   2.062  0.00  0.00    -0.116 N 
ATOM     22  O   UNL d   1      26.634  -7.711   2.868  0.00  0.00    -0.532 OA
ATOM     23  O   UNL d   1      25.130  -8.209   1.347  0.00  0.00    -0.532 OA
ENDBRANCH  18  21
ENDBRANCH  13  15
ENDBRANCH  12  13
ENDBRANCH  11  12
ENDBRANCH   8  11
ENDBRANCH   7   8
ENDBRANCH   3   7
BRANCH   1  24
ATOM     24  O   UNL d   1      25.278 -14.977  -3.094  0.00  0.00    -0.349 OA
BRANCH  24  25
ATOM     25  C   UNL d   1      26.395 -14.371  -3.755  0.00  0.00     0.171 C 
ATOM     26  C   UNL d   1      26.214 -12.954  -4.259  0.00  0.00     0.034 C 
ENDBRANCH  24  25
ENDBRANCH   1  24
BRANCH   6  27
ATOM     27  O   UNL d   1      23.198 -16.826  -1.415  0.00  0.00    -0.344 OA
BRANCH  27  28
ATOM     28  C   UNL d   1      22.635 -17.200  -0.205  0.00  0.00     0.215 C 
BRANCH  28  29
ATOM     29  C   UNL d   1      21.566 -18.210  -0.149  0.00  0.00    -0.016 C 
ATOM     30  C   UNL d   1      21.419 -18.950   1.005  0.00  0.00     0.014 C 
ATOM     31  C   UNL d   1      20.333 -19.786   1.091  0.00  0.00     0.045 C 
ATOM     32  C   UNL d   1      19.511 -19.906  -0.020  0.00  0.00     0.125 C 
ATOM     33 CL   UNL d   1      18.055 -20.795   0.079  0.00  0.00    -0.062 Cl
ATOM     34  N   UNL d   1      19.732 -19.325  -1.217  0.00  0.00    -0.248 NA
ATOM     35  C   UNL d   1      20.777 -18.491  -1.266  0.00  0.00     0.127 C 
ENDBRANCH  28  29
ENDBRANCH  27  28
ENDBRANCH   6  27
TORSDOF 12
ENDMDL
MODEL 2
REMARK VINA RESULT:   -34.266      0.802      1.157
REMARK INTER + INTRA:         -39.116
REMARK INTER:                 -37.846
REMARK INTRA:                  -1.270
REMARK CONF_INDEPENDENT:        3.580
REMARK UNBOUND:                -1.270
REMARK  12 active torsions:
REMARK  status: ('A' for Active; 'I' for Inactive)
REMARK    1  A    between atoms: C_2  and  O_3 
REMARK    2  A    between atoms: O_3  and  C_4 
REMARK    3  A    between atoms: C_6  and  C_7 
REMARK    4  A    between atoms: C_7  and  N_8 
REMARK    5  A    between atoms: N_8  and  C_9 
REMARK    6  A    between atoms: C_9  and  C_10 
REMARK    7  A    between atoms: C_10  and  N_11 
REMARK    8  A    between atoms: N_11  and  C_12 
REMARK    9  A    between atoms: C_15  and  N_16 
REMARK   10  A    between atoms: C_23  and  O_24 
REMARK   11  A    between atoms: O_24  and  C_25 
REMARK   12  A    between atoms: C_25  and  C_26 
ROOT
ATOM      1  C   UNL d   1      25.584 -15.893  -1.873  0.00  0.00     0.102 A 
ATOM      2  C   UNL d   1      26.927 -16.047  -1.461  0.00  0.00     0.048 A 
ATOM      3  C   UNL d   1      27.308 -17.037  -0.525  0.00  0.00    -0.030 A 
ATOM      4  C   UNL d   1      26.314 -17.780   0.117  0.00  0.00     0.012 A 
ATOM      5  C   UNL d   1      25.000 -17.652  -0.268  0.00  0.00     0.040 A 
ATOM      6  C   UNL d   1      24.626 -16.762  -1.275  0.00  0.00     0.102 A 
ENDROOT
BRANCH   3   7
ATOM      7  C   UNL d   1      28.760 -17.369  -0.323  0.00  0.00     0.271 C 
BRANCH   7   8
ATOM      8  N   UNL d   1      29.429 -16.408   0.605  0.00  0.00    -0.070 N 
ATOM      9  H   UNL d   1      30.350 -16.795   0.860  0.00  0.00     0.277 HD
ATOM     10  H   UNL d   1      28.870 -16.355   1.466  0.00  0.00     0.277 HD
BRANCH   8  11
ATOM     11  C   UNL d   1      29.602 -15.045   0.057  0.00  0.00     0.252 C 
BRANCH  11  12
ATOM     12  C   UNL d   1      30.247 -14.140   1.111  0.00  0.00     0.147 C 
BRANCH  12  13
ATOM     13  N   UNL d   1      29.348 -13.958   2.223  0.00  0.00    -0.388 N 
ATOM     14  H   UNL d   1      29.028 -14.754   2.773  0.00  0.00     0.159 HD
BRANCH  13  15
ATOM     15  C   UNL d   1      28.557 -12.829   2.342  0.00  0.00     0.028 A 
ATOM     16  C   UNL d   1      28.634 -12.097   3.534  0.00  0.00     0.031 A 
ATOM     17  C   UNL d   1      27.847 -10.962   3.738  0.00  0.00     0.038 A 
ATOM     18  C   UNL d   1      27.015 -10.513   2.708  0.00  0.00     0.103 A 
ATOM     19  C   UNL d   1      26.926 -11.226   1.511  0.00  0.00     0.038 A 
ATOM     20  C   UNL d   1      27.701 -12.375   1.332  0.00  0.00     0.031 A 
BRANCH  18  21
ATOM     21  N   UNL d   1      26.286  -9.250   2.869  0.00  0.00    -0.116 N 
ATOM     22  O   UNL d   1      26.655  -8.475   3.747  0.00  0.00    -0.532 OA
ATOM     23  O   UNL d   1      25.345  -9.034   2.075  0.00  0.00    -0.532 OA
ENDBRANCH  18  21
ENDBRANCH  13  15
ENDBRANCH  12  13
ENDBRANCH  11  12
ENDBRANCH   8  11
ENDBRANCH   7   8
ENDBRANCH   3   7
BRANCH   1  24
ATOM     24  O   UNL d   1      25.464 -15.084  -3.001  0.00  0.00    -0.349 OA
BRANCH  24  25
ATOM     25  C   UNL d   1      25.958 -15.528  -4.270  0.00  0.00     0.171 C 
ATOM     26  C   UNL d   1      27.044 -14.695  -4.918  0.00  0.00     0.034 C 
ENDBRANCH  24  25
ENDBRANCH   1  24
BRANCH   6  27
ATOM     27  O   UNL d   1      23.288 -16.994  -1.525  0.00  0.00    -0.344 OA
BRANCH  27  28
ATOM     28  C   UNL d   1      22.609 -17.179  -0.330  0.00  0.00     0.215 C 
BRANCH  28  29
ATOM     29  C   UNL d   1      21.557 -18.200  -0.208  0.00  0.00    -0.016 C 
ATOM     30  C   UNL d   1      21.497 -18.950   0.948  0.00  0.00     0.014 C 
ATOM     31  C   UNL d   1      20.428 -19.797   1.102  0.00  0.00     0.045 C 
ATOM     32  C   UNL d   1      19.532 -19.917   0.049  0.00  0.00     0.125 C 
ATOM     33 CL   UNL d   1      18.095 -20.821   0.242  0.00  0.00    -0.062 Cl
ATOM     34  N   UNL d   1      19.664 -19.325  -1.156  0.00  0.00    -0.248 NA
ATOM     35  C   UNL d   1      20.695 -18.481  -1.270  0.00  0.00     0.127 C 
ENDBRANCH  28  29
ENDBRANCH  27  28
ENDBRANCH   6  27
TORSDOF 12
ENDMDL
MODEL 3
REMARK VINA RESULT:   -33.652      3.205      3.750
REMARK INTER + INTRA:         -38.408
REMARK INTER:                 -37.232
REMARK INTRA:                  -1.177
REMARK CONF_INDEPENDENT:        3.580
REMARK UNBOUND:                -1.177
REMARK  12 active torsions:
REMARK  status: ('A' for Active; 'I' for Inactive)
REMARK    1  A    between atoms: C_2  and  O_3 
REMARK    2  A    between atoms: O_3  and  C_4 
REMARK    3  A    between atoms: C_6  and  C_7 
REMARK    4  A    between atoms: C_7  and  N_8 
REMARK    5  A    between atoms: N_8  and  C_9 
REMARK    6  A    between atoms: C_9  and  C_10 
REMARK    7  A    between atoms: C_10  and  N_11 
REMARK    8  A    between atoms: N_11  and  C_12 
REMARK    9  A    between atoms: C_15  and  N_16 
REMARK   10  A    between atoms: C_23  and  O_24 
REMARK   11  A    between atoms: O_24  and  C_25 
REMARK   12  A    between atoms: C_25  and  C_26 
ROOT
ATOM      1  C   UNL d   1      25.729 -16.008  -2.241  0.00  0.00     0.102 A 
ATOM      2  C   UNL d   1      27.010 -15.695  -1.735  0.00  0.00     0.048 A 
ATOM      3  C   UNL d   1      27.476 -16.225  -0.510  0.00  0.00    -0.030 A 
ATOM      4  C   UNL d   1      26.593 -16.956   0.290  0.00  0.00     0.012 A 
ATOM      5  C   UNL d   1      25.342 -17.278  -0.180  0.00  0.00     0.040 A 
ATOM      6  C   UNL d   1      24.914 -16.860  -1.440  0.00  0.00     0.102 A 
ENDROOT
BRANCH   3   7
ATOM      7  C   UNL d   1      28.929 -16.113  -0.138  0.00  0.00     0.271 C 
BRANCH   7   8
ATOM      8  N   UNL d   1      29.111 -15.564   1.240  0.00  0.00    -0.070 N 
ATOM      9  H   UNL d   1      30.096 -15.702   1.512  0.00  0.00     0.277 HD
ATOM     10  H   UNL d   1      28.535 -16.121   1.884  0.00  0.00     0.277 HD
BRANCH   8  11
ATOM     11  C   UNL d   1      28.755 -14.136   1.384  0.00  0.00     0.252 C 
BRANCH  11  12
ATOM     12  C   UNL d   1      27.873 -13.944   2.621  0.00  0.00     0.147 C 
BRANCH  12  13
ATOM     13  N   UNL d   1      28.454 -14.620   3.753  0.00  0.00    -0.388 N 
ATOM     14  H   UNL d   1      28.549 -15.635   3.765  0.00  0.00     0.159 HD
BRANCH  13  15
ATOM     15  C   UNL d   1      28.510 -14.029   5.003  0.00  0.00     0.028 A 
ATOM     16  C   UNL d   1      29.471 -14.498   5.907  0.00  0.00     0.031 A 
ATOM     17  C   UNL d   1      29.572 -13.970   7.195  0.00  0.00     0.038 A 
ATOM     18  C   UNL d   1      28.739 -12.909   7.566  0.00  0.00     0.103 A 
ATOM     19  C   UNL d   1      27.776 -12.425   6.679  0.00  0.00     0.038 A 
ATOM     20  C   UNL d   1      27.672 -12.982   5.402  0.00  0.00     0.031 A 
BRANCH  18  21
ATOM     21  N   UNL d   1      28.929 -12.266   8.871  0.00  0.00    -0.116 N 
ATOM     22  O   UNL d   1      29.304 -11.098   8.893  0.00  0.00    -0.532 OA
ATOM     23  O   UNL d   1      28.667 -12.951   9.883  0.00  0.00    -0.532 OA
ENDBRANCH  18  21
ENDBRANCH  13  15
ENDBRANCH  12  13
ENDBRANCH  11  12
ENDBRANCH   8  11
ENDBRANCH   7   8
ENDBRANCH   3   7
BRANCH   1  24
ATOM     24  O   UNL d   1      25.579 -15.639  -3.576  0.00  0.00    -0.349 OA
BRANCH  24  25
ATOM     25  C   UNL d   1      25.700 -14.267  -3.969  0.00  0.00     0.171 C 
ATOM     26  C   UNL d   1      24.434 -13.436  -3.975  0.00  0.00     0.034 C 
ENDBRANCH  24  25
ENDBRANCH   1  24
BRANCH   6  27
ATOM     27  O   UNL d   1      23.700 -17.478  -1.665  0.00  0.00    -0.344 OA
BRANCH  27  28
ATOM     28  C   UNL d   1      22.872 -17.308  -0.566  0.00  0.00     0.215 C 
BRANCH  28  29
ATOM     29  C   UNL d   1      21.774 -18.250  -0.294  0.00  0.00    -0.016 C 
ATOM     30  C   UNL d   1      21.756 -18.907   0.918  0.00  0.00     0.014 C 
ATOM     31  C   UNL d   1      20.655 -19.673   1.210  0.00  0.00     0.045 C 
ATOM     32  C   UNL d   1      19.679 -19.814   0.233  0.00  0.00     0.125 C 
ATOM     33 CL   UNL d   1      18.211 -20.611   0.593  0.00  0.00    -0.062 Cl
ATOM     34  N   UNL d   1      19.757 -19.322  -1.020  0.00  0.00    -0.248 NA
ATOM     35  C   UNL d   1      20.823 -18.554  -1.270  0.00  0.00     0.127 C 
ENDBRANCH  28  29
ENDBRANCH  27  28
ENDBRANCH   6  27
TORSDOF 12
ENDMDL
MODEL 4
REMARK VINA RESULT:   -33.163      3.648      5.357
REMARK INTER + INTRA:         -38.438
REMARK INTER:                 -36.742
REMARK INTRA:                  -1.696
REMARK CONF_INDEPENDENT:        3.580
REMARK UNBOUND:                -1.696
REMARK  12 active torsions:
REMARK  status: ('A' for Active; 'I' for Inactive)
REMARK    1  A    between atoms: C_2  and  O_3 
REMARK    2  A    between atoms: O_3  and  C_4 
REMARK    3  A    between atoms: C_6  and  C_7 
REMARK    4  A    between atoms: C_7  and  N_8 
REMARK    5  A    between atoms: N_8  and  C_9 
REMARK    6  A    between atoms: C_9  and  C_10 
REMARK    7  A    between atoms: C_10  and  N_11 
REMARK    8  A    between atoms: N_11  and  C_12 
REMARK    9  A    between atoms: C_15  and  N_16 
REMARK   10  A    between atoms: C_23  and  O_24 
REMARK   11  A    between atoms: O_24  and  C_25 
REMARK   12  A    between atoms: C_25  and  C_26 
ROOT
ATOM      1  C   UNL d   1      25.659 -15.702  -1.620  0.00  0.00     0.102 A 
ATOM      2  C   UNL d   1      26.932 -15.314  -1.146  0.00  0.00     0.048 A 
ATOM      3  C   UNL d   1      27.722 -16.172  -0.347  0.00  0.00    -0.030 A 
ATOM      4  C   UNL d   1      27.169 -17.373   0.108  0.00  0.00     0.012 A 
ATOM      5  C   UNL d   1      25.934 -17.776  -0.341  0.00  0.00     0.040 A 
ATOM      6  C   UNL d   1      25.194 -16.991  -1.225  0.00  0.00     0.102 A 
ENDROOT
BRANCH   3   7
ATOM      7  C   UNL d   1      29.171 -15.858  -0.100  0.00  0.00     0.271 C 
BRANCH   7   8
ATOM      8  N   UNL d   1      29.941 -17.068   0.320  0.00  0.00    -0.070 N 
ATOM      9  H   UNL d   1      29.345 -17.896   0.170  0.00  0.00     0.277 HD
ATOM     10  H   UNL d   1      30.120 -16.998   1.330  0.00  0.00     0.277 HD
BRANCH   8  11
ATOM     11  C   UNL d   1      31.226 -17.254  -0.388  0.00  0.00     0.252 C 
BRANCH  11  12
ATOM     12  C   UNL d   1      31.114 -18.424  -1.369  0.00  0.00     0.147 C 
BRANCH  12  13
ATOM     13  N   UNL d   1      31.497 -17.999  -2.692  0.00  0.00    -0.388 N 
ATOM     14  H   UNL d   1      32.479 -17.934  -2.957  0.00  0.00     0.159 HD
BRANCH  13  15
ATOM     15  C   UNL d   1      30.640 -17.272  -3.499  0.00  0.00     0.028 A 
ATOM     16  C   UNL d   1      30.794 -17.383  -4.887  0.00  0.00     0.031 A 
ATOM     17  C   UNL d   1      29.985 -16.660  -5.765  0.00  0.00     0.038 A 
ATOM     18  C   UNL d   1      28.961 -15.859  -5.249  0.00  0.00     0.103 A 
ATOM     19  C   UNL d   1      28.788 -15.737  -3.869  0.00  0.00     0.038 A 
ATOM     20  C   UNL d   1      29.624 -16.448  -3.003  0.00  0.00     0.031 A 
BRANCH  18  21
ATOM     21  N   UNL d   1      28.027 -15.202  -6.170  0.00  0.00    -0.116 N 
ATOM     22  O   UNL d   1      28.473 -14.739  -7.216  0.00  0.00    -0.532 OA
ATOM     23  O   UNL d   1      26.822 -15.182  -5.836  0.00  0.00    -0.532 OA
ENDBRANCH  18  21
ENDBRANCH  13  15
ENDBRANCH  12  13
ENDBRANCH  11  12
ENDBRANCH   8  11
ENDBRANCH   7   8
ENDBRANCH   3   7
BRANCH   1  24
ATOM     24  O   UNL d   1      25.182 -14.856  -2.618  0.00  0.00    -0.349 OA
BRANCH  24  25
ATOM     25  C   UNL d   1      26.061 -13.931  -3.268  0.00  0.00     0.171 C 
ATOM     26  C   UNL d   1      25.674 -12.466  -3.229  0.00  0.00     0.034 C 
ENDBRANCH  24  25
ENDBRANCH   1  24
BRANCH   6  27
ATOM     27  O   UNL d   1      24.099 -17.745  -1.596  0.00  0.00    -0.344 OA
BRANCH  27  28
ATOM     28  C   UNL d   1      22.978 -17.329  -0.893  0.00  0.00     0.215 C 
BRANCH  28  29
ATOM     29  C   UNL d   1      21.871 -18.258  -0.618  0.00  0.00    -0.016 C 
ATOM     30  C   UNL d   1      22.099 -19.321   0.230  0.00  0.00     0.014 C 
ATOM     31  C   UNL d   1      21.022 -20.095   0.585  0.00  0.00     0.045 C 
ATOM     32  C   UNL d   1      19.796 -19.818  -0.004  0.00  0.00     0.125 C 
ATOM     33 CL   UNL d   1      18.387 -20.630   0.520  0.00  0.00    -0.062 Cl
ATOM     34  N   UNL d   1      19.586 -18.894  -0.964  0.00  0.00    -0.248 NA
ATOM     35  C   UNL d   1      20.643 -18.133  -1.270  0.00  0.00     0.127 C 
ENDBRANCH  28  29
ENDBRANCH  27  28
ENDBRANCH   6  27
TORSDOF 12
ENDMDL
MODEL 5
REMARK VINA RESULT:   -32.248      3.680      6.586
REMARK INTER + INTRA:         -37.192
REMARK INTER:                 -35.828
REMARK INTRA:                  -1.364
REMARK CONF_INDEPENDENT:        3.580
REMARK UNBOUND:                -1.364
REMARK  12 active torsions:
REMARK  status: ('A' for Active; 'I' for Inactive)
REMARK    1  A    between atoms: C_2  and  O_3 
REMARK    2  A    between atoms: O_3  and  C_4 
REMARK    3  A    between atoms: C_6  and  C_7 
REMARK    4  A    between atoms: C_7  and  N_8 
REMARK    5  A    between atoms: N_8  and  C_9 
REMARK    6  A    between atoms: C_9  and  C_10 
REMARK    7  A    between atoms: C_10  and  N_11 
REMARK    8  A    between atoms: N_11  and  C_12 
REMARK    9  A    between atoms: C_15  and  N_16 
REMARK   10  A    between atoms: C_23  and  O_24 
REMARK   11  A    between atoms: O_24  and  C_25 
REMARK   12  A    between atoms: C_25  and  C_26 
ROOT
ATOM      1  C   UNL d   1      25.654 -15.762  -1.756  0.00  0.00     0.102 A 
ATOM      2  C   UNL d   1      26.916 -15.261  -1.363  0.00  0.00     0.048 A 
ATOM      3  C   UNL d   1      27.817 -16.035  -0.597  0.00  0.00    -0.030 A 
ATOM      4  C   UNL d   1      27.392 -17.266  -0.090  0.00  0.00     0.012 A 
ATOM      5  C   UNL d   1      26.171 -17.778  -0.459  0.00  0.00     0.040 A 
ATOM      6  C   UNL d   1      25.320 -17.075  -1.313  0.00  0.00     0.102 A 
ENDROOT
BRANCH   3   7
ATOM      7  C   UNL d   1      29.248 -15.599  -0.440  0.00  0.00     0.271 C 
BRANCH   7   8
ATOM      8  N   UNL d   1      29.962 -16.394   0.605  0.00  0.00    -0.070 N 
ATOM      9  H   UNL d   1      29.557 -17.342   0.619  0.00  0.00     0.277 HD
ATOM     10  H   UNL d   1      29.770 -15.965   1.519  0.00  0.00     0.277 HD
BRANCH   8  11
ATOM     11  C   UNL d   1      31.425 -16.486   0.411  0.00  0.00     0.252 C 
BRANCH  11  12
ATOM     12  C   UNL d   1      31.734 -17.374  -0.798  0.00  0.00     0.147 C 
BRANCH  12  13
ATOM     13  N   UNL d   1      31.549 -16.629  -2.018  0.00  0.00    -0.388 N 
ATOM     14  H   UNL d   1      31.274 -15.648  -1.997  0.00  0.00     0.159 HD
BRANCH  13  15
ATOM     15  C   UNL d   1      31.310 -17.260  -3.226  0.00  0.00     0.028 A 
ATOM     16  C   UNL d   1      30.410 -16.658  -4.114  0.00  0.00     0.031 A 
ATOM     17  C   UNL d   1      30.098 -17.249  -5.340  0.00  0.00     0.038 A 
ATOM     18  C   UNL d   1      30.747 -18.430  -5.714  0.00  0.00     0.103 A 
ATOM     19  C   UNL d   1      31.650 -19.045  -4.846  0.00  0.00     0.038 A 
ATOM     20  C   UNL d   1      31.932 -18.454  -3.611  0.00  0.00     0.031 A 
BRANCH  18  21
ATOM     21  N   UNL d   1      30.520 -18.983  -7.054  0.00  0.00    -0.116 N 
ATOM     22  O   UNL d   1      30.037 -20.108  -7.144  0.00  0.00    -0.532 OA
ATOM     23  O   UNL d   1      30.811 -18.251  -8.025  0.00  0.00    -0.532 OA
ENDBRANCH  18  21
ENDBRANCH  13  15
ENDBRANCH  12  13
ENDBRANCH  11  12
ENDBRANCH   8  11
ENDBRANCH   7   8
ENDBRANCH   3   7
BRANCH   1  24
ATOM     24  O   UNL d   1      25.054 -14.980  -2.740  0.00  0.00    -0.349 OA
BRANCH  24  25
ATOM     25  C   UNL d   1      25.827 -14.459  -3.827  0.00  0.00     0.171 C 
ATOM     26  C   UNL d   1      25.986 -12.954  -3.902  0.00  0.00     0.034 C 
ENDBRANCH  24  25
ENDBRANCH   1  24
BRANCH   6  27
ATOM     27  O   UNL d   1      24.271 -17.924  -1.606  0.00  0.00    -0.344 OA
BRANCH  27  28
ATOM     28  C   UNL d   1      23.079 -17.372  -1.162  0.00  0.00     0.215 C 
BRANCH  28  29
ATOM     29  C   UNL d   1      21.929 -18.227  -0.829  0.00  0.00    -0.016 C 
ATOM     30  C   UNL d   1      22.160 -19.405  -0.150  0.00  0.00     0.014 C 
ATOM     31  C   UNL d   1      21.067 -20.120   0.275  0.00  0.00     0.045 C 
ATOM     32  C   UNL d   1      19.807 -19.664  -0.087  0.00  0.00     0.125 C 
ATOM     33 CL   UNL d   1      18.407 -20.408   0.550  0.00  0.00    -0.062 Cl
ATOM     34  N   UNL d   1      19.564 -18.611  -0.895  0.00  0.00    -0.248 NA
ATOM     35  C   UNL d   1      20.642 -17.914  -1.270  0.00  0.00     0.127 C 
ENDBRANCH  28  29
ENDBRANCH  27  28
ENDBRANCH   6  27
TORSDOF 12
ENDMDL
MODEL 6
REMARK VINA RESULT:   -32.085      1.997      2.521
REMARK INTER + INTRA:         -37.375
REMARK INTER:                 -35.665
REMARK INTRA:                  -1.710
REMARK CONF_INDEPENDENT:        3.580
REMARK UNBOUND:                -1.710
REMARK  12 active torsions:
REMARK  status: ('A' for Active; 'I' for Inactive)
REMARK    1  A    between atoms: C_2  and  O_3 
REMARK    2  A    between atoms: O_3  and  C_4 
REMARK    3  A    between atoms: C_6  and  C_7 
REMARK    4  A    between atoms: C_7  and  N_8 
REMARK    5  A    between atoms: N_8  and  C_9 
REMARK    6  A    between atoms: C_9  and  C_10 
REMARK    7  A    between atoms: C_10  and  N_11 
REMARK    8  A    between atoms: N_11  and  C_12 
REMARK    9  A    between atoms: C_15  and  N_16 
REMARK   10  A    between atoms: C_23  and  O_24 
REMARK   11  A    between atoms: O_24  and  C_25 
REMARK   12  A    between atoms: C_25  and  C_26 
ROOT
ATOM      1  C   UNL d   1      25.633 -15.733  -1.924  0.00  0.00     0.102 A 
ATOM      2  C   UNL d   1      27.027 -15.959  -1.914  0.00  0.00     0.048 A 
ATOM      3  C   UNL d   1      27.652 -16.700  -0.885  0.00  0.00    -0.030 A 
ATOM      4  C   UNL d   1      26.896 -17.091   0.223  0.00  0.00     0.012 A 
ATOM      5  C   UNL d   1      25.537 -16.886   0.237  0.00  0.00     0.040 A 
ATOM      6  C   UNL d   1      24.889 -16.260  -0.828  0.00  0.00     0.102 A 
ENDROOT
BRANCH   3   7
ATOM      7  C   UNL d   1      29.072 -17.169  -1.044  0.00  0.00     0.271 C 
BRANCH   7   8
ATOM      8  N   UNL d   1      29.846 -17.045   0.229  0.00  0.00    -0.070 N 
ATOM      9  H   UNL d   1      30.115 -17.992   0.534  0.00  0.00     0.277 HD
ATOM     10  H   UNL d   1      29.220 -16.658   0.947  0.00  0.00     0.277 HD
BRANCH   8  11
ATOM     11  C   UNL d   1      31.054 -16.198   0.132  0.00  0.00     0.252 C 
BRANCH  11  12
ATOM     12  C   UNL d   1      30.647 -14.735  -0.067  0.00  0.00     0.147 C 
BRANCH  12  13
ATOM     13  N   UNL d   1      29.248 -14.564   0.238  0.00  0.00    -0.388 N 
ATOM     14  H   UNL d   1      28.554 -14.503  -0.505  0.00  0.00     0.159 HD
BRANCH  13  15
ATOM     15  C   UNL d   1      28.825 -14.060   1.455  0.00  0.00     0.028 A 
ATOM     16  C   UNL d   1      29.526 -14.445   2.604  0.00  0.00     0.031 A 
ATOM     17  C   UNL d   1      29.143 -13.999   3.870  0.00  0.00     0.038 A 
ATOM     18  C   UNL d   1      28.078 -13.099   3.983  0.00  0.00     0.103 A 
ATOM     19  C   UNL d   1      27.368 -12.699   2.850  0.00  0.00     0.038 A 
ATOM     20  C   UNL d   1      27.749 -13.175   1.593  0.00  0.00     0.031 A 
BRANCH  18  21
ATOM     21  N   UNL d   1      27.755 -12.527   5.295  0.00  0.00    -0.116 N 
ATOM     22  O   UNL d   1      27.683 -11.305   5.395  0.00  0.00    -0.532 OA
ATOM     23  O   UNL d   1      27.546 -13.333   6.228  0.00  0.00    -0.532 OA
ENDBRANCH  18  21
ENDBRANCH  13  15
ENDBRANCH  12  13
ENDBRANCH  11  12
ENDBRANCH   8  11
ENDBRANCH   7   8
ENDBRANCH   3   7
BRANCH   1  24
ATOM     24  O   UNL d   1      25.180 -15.253  -3.151  0.00  0.00    -0.349 OA
BRANCH  24  25
ATOM     25  C   UNL d   1      25.953 -14.298  -3.888  0.00  0.00     0.171 C 
ATOM     26  C   UNL d   1      26.938 -14.841  -4.904  0.00  0.00     0.034 C 
ENDBRANCH  24  25
ENDBRANCH   1  24
BRANCH   6  27
ATOM     27  O   UNL d   1      23.535 -16.358  -0.576  0.00  0.00    -0.344 OA
BRANCH  27  28
ATOM     28  C   UNL d   1      23.001 -17.433  -1.271  0.00  0.00     0.215 C 
BRANCH  28  29
ATOM     29  C   UNL d   1      21.917 -18.242  -0.694  0.00  0.00    -0.016 C 
ATOM     30  C   UNL d   1      22.026 -18.648   0.620  0.00  0.00     0.014 C 
ATOM     31  C   UNL d   1      20.945 -19.282   1.182  0.00  0.00     0.045 C 
ATOM     32  C   UNL d   1      19.854 -19.558   0.370  0.00  0.00     0.125 C 
ATOM     33 CL   UNL d   1      18.417 -20.188   1.045  0.00  0.00    -0.062 Cl
ATOM     34  N   UNL d   1      19.795 -19.325  -0.958  0.00  0.00    -0.248 NA
ATOM     35  C   UNL d   1      20.846 -18.679  -1.475  0.00  0.00     0.127 C 
ENDBRANCH  28  29
ENDBRANCH  27  28
ENDBRANCH   6  27
TORSDOF 12
ENDMDL
MODEL 7
REMARK VINA RESULT:   -31.714      4.324      6.741
REMARK INTER + INTRA:         -36.506
REMARK INTER:                 -35.293
REMARK INTRA:                  -1.212
REMARK CONF_INDEPENDENT:        3.580
REMARK UNBOUND:                -1.212
REMARK  12 active torsions:
REMARK  status: ('A' for Active; 'I' for Inactive)
REMARK    1  A    between atoms: C_2  and  O_3 
REMARK    2  A    between atoms: O_3  and  C_4 
REMARK    3  A    between atoms: C_6  and  C_7 
REMARK    4  A    between atoms: C_7  and  N_8 
REMARK    5  A    between atoms: N_8  and  C_9 
REMARK    6  A    between atoms: C_9  and  C_10 
REMARK    7  A    between atoms: C_10  and  N_11 
REMARK    8  A    between atoms: N_11  and  C_12 
REMARK    9  A    between atoms: C_15  and  N_16 
REMARK   10  A    between atoms: C_23  and  O_24 
REMARK   11  A    between atoms: O_24  and  C_25 
REMARK   12  A    between atoms: C_25  and  C_26 
ROOT
ATOM      1  C   UNL d   1      25.747 -15.588  -1.221  0.00  0.00     0.102 A 
ATOM      2  C   UNL d   1      27.110 -15.873  -1.459  0.00  0.00     0.048 A 
ATOM      3  C   UNL d   1      27.741 -17.007  -0.898  0.00  0.00    -0.030 A 
ATOM      4  C   UNL d   1      27.041 -17.782   0.030  0.00  0.00     0.012 A 
ATOM      5  C   UNL d   1      25.713 -17.529   0.277  0.00  0.00     0.040 A 
ATOM      6  C   UNL d   1      25.045 -16.483  -0.361  0.00  0.00     0.102 A 
ENDROOT
BRANCH   3   7
ATOM      7  C   UNL d   1      29.093 -17.443  -1.392  0.00  0.00     0.271 C 
BRANCH   7   8
ATOM      8  N   UNL d   1      29.864 -18.169  -0.337  0.00  0.00    -0.070 N 
ATOM      9  H   UNL d   1      29.747 -19.181  -0.492  0.00  0.00     0.277 HD
ATOM     10  H   UNL d   1      29.443 -17.948   0.575  0.00  0.00     0.277 HD
BRANCH   8  11
ATOM     11  C   UNL d   1      31.306 -17.841  -0.296  0.00  0.00     0.252 C 
BRANCH  11  12
ATOM     12  C   UNL d   1      32.109 -18.946  -0.989  0.00  0.00     0.147 C 
BRANCH  12  13
ATOM     13  N   UNL d   1      33.069 -19.509  -0.074  0.00  0.00    -0.388 N 
ATOM     14  H   UNL d   1      33.912 -19.969  -0.416  0.00  0.00     0.159 HD
BRANCH  13  15
ATOM     15  C   UNL d   1      32.728 -19.841   1.226  0.00  0.00     0.028 A 
ATOM     16  C   UNL d   1      31.761 -20.836   1.416  0.00  0.00     0.031 A 
ATOM     17  C   UNL d   1      31.346 -21.206   2.697  0.00  0.00     0.038 A 
ATOM     18  C   UNL d   1      31.955 -20.616   3.810  0.00  0.00     0.103 A 
ATOM     19  C   UNL d   1      32.923 -19.624   3.642  0.00  0.00     0.038 A 
ATOM     20  C   UNL d   1      33.308 -19.248   2.353  0.00  0.00     0.031 A 
BRANCH  18  21
ATOM     21  N   UNL d   1      31.615 -21.094   5.154  0.00  0.00    -0.116 N 
ATOM     22  O   UNL d   1      32.532 -21.335   5.934  0.00  0.00    -0.532 OA
ATOM     23  O   UNL d   1      30.399 -21.198   5.428  0.00  0.00    -0.532 OA
ENDBRANCH  18  21
ENDBRANCH  13  15
ENDBRANCH  12  13
ENDBRANCH  11  12
ENDBRANCH   8  11
ENDBRANCH   7   8
ENDBRANCH   3   7
BRANCH   1  24
ATOM     24  O   UNL d   1      25.247 -14.618  -2.087  0.00  0.00    -0.349 OA
BRANCH  24  25
ATOM     25  C   UNL d   1      26.132 -13.865  -2.924  0.00  0.00     0.171 C 
ATOM     26  C   UNL d   1      26.699 -12.581  -2.352  0.00  0.00     0.034 C 
ENDBRANCH  24  25
ENDBRANCH   1  24
BRANCH   6  27
ATOM     27  O   UNL d   1      23.713 -16.604  -0.022  0.00  0.00    -0.344 OA
BRANCH  27  28
ATOM     28  C   UNL d   1      23.031 -17.285  -1.019  0.00  0.00     0.215 C 
BRANCH  28  29
ATOM     29  C   UNL d   1      21.901 -18.169  -0.693  0.00  0.00    -0.016 C 
ATOM     30  C   UNL d   1      22.132 -19.259   0.120  0.00  0.00     0.014 C 
ATOM     31  C   UNL d   1      21.043 -19.992   0.526  0.00  0.00     0.045 C 
ATOM     32  C   UNL d   1      19.798 -19.649   0.018  0.00  0.00     0.125 C 
ATOM     33 CL   UNL d   1      18.388 -20.408   0.613  0.00  0.00    -0.062 Cl
ATOM     34  N   UNL d   1      19.573 -18.696  -0.911  0.00  0.00    -0.248 NA
ATOM     35  C   UNL d   1      20.643 -17.977  -1.267  0.00  0.00     0.127 C 
ENDBRANCH  28  29
ENDBRANCH  27  28
ENDBRANCH   6  27
TORSDOF 12
ENDMDL
MODEL 8
REMARK VINA RESULT:   -31.463      2.530      3.986
REMARK INTER + INTRA:         -36.307
REMARK INTER:                 -35.042
REMARK INTRA:                  -1.265
REMARK CONF_INDEPENDENT:        3.580
REMARK UNBOUND:                -1.265
REMARK  12 active torsions:
REMARK  status: ('A' for Active; 'I' for Inactive)
REMARK    1  A    between atoms: C_2  and  O_3 
REMARK    2  A    between atoms: O_3  and  C_4 
REMARK    3  A    between atoms: C_6  and  C_7 
REMARK    4  A    between atoms: C_7  and  N_8 
REMARK    5  A    between atoms: N_8  and  C_9 
REMARK    6  A    between atoms: C_9  and  C_10 
REMARK    7  A    between atoms: C_10  and  N_11 
REMARK    8  A    between atoms: N_11  and  C_12 
REMARK    9  A    between atoms: C_15  and  N_16 
REMARK   10  A    between atoms: C_23  and  O_24 
REMARK   11  A    between atoms: O_24  and  C_25 
REMARK   12  A    between atoms: C_25  and  C_26 
ROOT
ATOM      1  C   UNL d   1      26.330 -15.422  -0.696  0.00  0.00     0.102 A 
ATOM      2  C   UNL d   1      26.773 -14.271  -1.385  0.00  0.00     0.048 A 
ATOM      3  C   UNL d   1      25.997 -13.667  -2.401  0.00  0.00    -0.030 A 
ATOM      4  C   UNL d   1      24.835 -14.309  -2.837  0.00  0.00     0.012 A 
ATOM      5  C   UNL d   1      24.379 -15.429  -2.182  0.00  0.00     0.040 A 
ATOM      6  C   UNL d   1      25.075 -15.966  -1.099  0.00  0.00     0.102 A 
ENDROOT
BRANCH   3   7
ATOM      7  C   UNL d   1      26.349 -12.297  -2.911  0.00  0.00     0.271 C 
BRANCH   7   8
ATOM      8  N   UNL d   1      25.839 -12.070  -4.297  0.00  0.00    -0.070 N 
ATOM      9  H   UNL d   1      24.815 -12.187  -4.286  0.00  0.00     0.277 HD
ATOM     10  H   UNL d   1      26.225 -12.805  -4.904  0.00  0.00     0.277 HD
BRANCH   8  11
ATOM     11  C   UNL d   1      26.177 -10.747  -4.866  0.00  0.00     0.252 C 
BRANCH  11  12
ATOM     12  C   UNL d   1      25.531  -9.641  -4.026  0.00  0.00     0.147 C 
BRANCH  12  13
ATOM     13  N   UNL d   1      26.545  -8.906  -3.312  0.00  0.00    -0.388 N 
ATOM     14  H   UNL d   1      27.477  -8.782  -3.706  0.00  0.00     0.159 HD
BRANCH  13  15
ATOM     15  C   UNL d   1      26.475  -8.712  -1.945  0.00  0.00     0.028 A 
ATOM     16  C   UNL d   1      25.351  -8.053  -1.433  0.00  0.00     0.031 A 
ATOM     17  C   UNL d   1      25.221  -7.796  -0.067  0.00  0.00     0.038 A 
ATOM     18  C   UNL d   1      26.204  -8.263   0.813  0.00  0.00     0.103 A 
ATOM     19  C   UNL d   1      27.332  -8.925   0.323  0.00  0.00     0.038 A 
ATOM     20  C   UNL d   1      27.458  -9.151  -1.050  0.00  0.00     0.031 A 
BRANCH  18  21
ATOM     21  N   UNL d   1      26.009  -8.110   2.258  0.00  0.00    -0.116 N 
ATOM     22  O   UNL d   1      25.644  -9.090   2.902  0.00  0.00    -0.532 OA
ATOM     23  O   UNL d   1      26.256  -6.986   2.747  0.00  0.00    -0.532 OA
ENDBRANCH  18  21
ENDBRANCH  13  15
ENDBRANCH  12  13
ENDBRANCH  11  12
ENDBRANCH   8  11
ENDBRANCH   7   8
ENDBRANCH   3   7
BRANCH   1  24
ATOM     24  O   UNL d   1      27.079 -15.678   0.450  0.00  0.00    -0.349 OA
BRANCH  24  25
ATOM     25  C   UNL d   1      27.649 -16.974   0.670  0.00  0.00     0.171 C 
ATOM     26  C   UNL d   1      26.969 -18.151   0.001  0.00  0.00     0.034 C 
ENDBRANCH  24  25
ENDBRANCH   1  24
BRANCH   6  27
ATOM     27  O   UNL d   1      24.279 -16.967  -0.579  0.00  0.00    -0.344 OA
BRANCH  27  28
ATOM     28  C   UNL d   1      22.997 -16.869  -1.100  0.00  0.00     0.215 C 
BRANCH  28  29
ATOM     29  C   UNL d   1      21.984 -17.896  -0.810  0.00  0.00    -0.016 C 
ATOM     30  C   UNL d   1      22.378 -19.044  -0.155  0.00  0.00     0.014 C 
ATOM     31  C   UNL d   1      21.398 -19.925   0.230  0.00  0.00     0.045 C 
ATOM     32  C   UNL d   1      20.090 -19.654  -0.146  0.00  0.00     0.125 C 
ATOM     33 CL   UNL d   1      18.808 -20.616   0.445  0.00  0.00    -0.062 Cl
ATOM     34  N   UNL d   1      19.705 -18.628  -0.933  0.00  0.00    -0.248 NA
ATOM     35  C   UNL d   1      20.672 -17.767  -1.269  0.00  0.00     0.127 C 
ENDBRANCH  28  29
ENDBRANCH  27  28
ENDBRANCH   6  27
TORSDOF 12
ENDMDL
