MODEL 1
REMARK VINA RESULT:    -8.818      0.000      0.000
REMARK INTER + INTRA:         -12.077
REMARK INTER:                 -10.608
REMARK INTRA:                  -1.469
REMARK CONF_INDEPENDENT:        1.790
REMARK UNBOUND:                -1.469
REMARK  6 active torsions:
REMARK  status: ('A' for Active; 'I' for Inactive)
REMARK    1  A    between atoms: C_5  and  C_6 
REMARK    2  A    between atoms: C_6  and  N_7 
REMARK       I    between atoms: N_7  and  C_8 
REMARK    3  A    between atoms: C_8  and  C_10 
REMARK    4  A    between atoms: N_23  and  C_24 
REMARK    5  A    between atoms: C_24  and  C_25 
REMARK    6  A    between atoms: C_32  and  N_33 
ROOT
ATOM      1  C   UNL d   1      26.424 -14.678  -3.692  0.00  0.00     0.076 A 
ATOM      2  C   UNL d   1      27.666 -15.265  -3.928  0.00  0.00     0.042 A 
ATOM      3  C   UNL d   1      28.442 -14.788  -4.985  0.00  0.00     0.080 A 
ATOM      4  C   UNL d   1      29.739 -15.394  -5.315  0.00  0.00     0.267 A 
ATOM      5  O   UNL d   1      30.113 -16.348  -4.630  0.00  0.00    -0.267 OA
ATOM      6  N   UNL d   1      30.436 -14.847  -6.387  0.00  0.00    -0.273 N 
ATOM      7  C   UNL d   1      31.646 -15.427  -6.761  0.00  0.00     0.102 A 
ATOM      8  C   UNL d   1      32.369 -14.961  -7.785  0.00  0.00     0.018 A 
ATOM      9  C   UNL d   1      31.905 -13.820  -8.528  0.00  0.00     0.005 A 
ATOM     10  C   UNL d   1      30.752 -13.220  -8.205  0.00  0.00     0.051 A 
ATOM     11  C   UNL d   1      29.930 -13.748  -7.076  0.00  0.00     0.139 A 
ATOM     12  N   UNL d   1      28.793 -13.182  -6.793  0.00  0.00    -0.212 NA
ATOM     13  C   UNL d   1      28.018 -13.711  -5.755  0.00  0.00     0.149 A 
ATOM     14  N   UNL d   1      26.823 -13.109  -5.480  0.00  0.00    -0.312 N 
ATOM     15  C   UNL d   1      25.979 -13.597  -4.508  0.00  0.00     0.118 A 
ENDROOT
BRANCH   1  16
ATOM     16  C   UNL d   1      25.572 -15.096  -2.536  0.00  0.00     0.255 C 
ATOM     17  N   UNL d   1      26.189 -15.690  -1.462  0.00  0.00    -0.353 N 
ATOM     18  H   UNL d   1      27.193 -15.746  -1.436  0.00  0.00     0.163 HD
ATOM     19  O   UNL d   1      24.378 -14.821  -2.553  0.00  0.00    -0.268 OA
BRANCH  17  20
ATOM     20  C   UNL d   1      25.438 -16.096  -0.268  0.00  0.00     0.161 C 
BRANCH  20  21
ATOM     21  C   UNL d   1      24.193 -16.920  -0.535  0.00  0.00    -0.041 A 
ATOM     22  C   UNL d   1      24.290 -18.323  -0.637  0.00  0.00     0.009 A 
ATOM     23  C   UNL d   1      23.150 -19.114  -0.854  0.00  0.00     0.007 A 
ATOM     24  C   UNL d   1      21.891 -18.521  -0.977  0.00  0.00    -0.062 A 
ATOM     25  C   UNL d   1      20.645 -19.326  -1.184  0.00  0.00     0.048 C 
ATOM     26  C   UNL d   1      21.790 -17.135  -0.895  0.00  0.00     0.007 A 
ATOM     27  C   UNL d   1      22.921 -16.350  -0.683  0.00  0.00     0.009 A 
ENDBRANCH  20  21
ENDBRANCH  17  20
ENDBRANCH   1  16
BRANCH  15  28
ATOM     28  N   UNL d   1      24.781 -12.949  -4.233  0.00  0.00    -0.384 N 
ATOM     29  H   UNL d   1      24.382 -12.779  -3.323  0.00  0.00     0.157 HD
ATOM     30  H   UNL d   1      24.123 -12.845  -5.013  0.00  0.00     0.157 HD
ENDBRANCH  15  28
BRANCH  14  31
ATOM     31  C   UNL d   1      26.493 -11.826  -6.159  0.00  0.00     0.172 C 
BRANCH  31  32
ATOM     32  C   UNL d   1      26.209 -10.663  -5.210  0.00  0.00    -0.018 C 
ATOM     33  C   UNL d   1      25.279  -9.692  -5.651  0.00  0.00     0.010 C 
ATOM     34  C   UNL d   1      24.899  -8.629  -4.822  0.00  0.00     0.001 C 
ATOM     35  C   UNL d   1      25.378  -8.548  -3.520  0.00  0.00     0.002 C 
ATOM     36  C   UNL d   1      26.279  -9.493  -3.064  0.00  0.00     0.024 C 
ATOM     37  C   UNL d   1      26.758 -10.482  -3.919  0.00  0.00     0.042 C 
ATOM     38 CL   UNL d   1      28.105 -11.331  -3.243  0.00  0.00    -0.084 Cl
ENDBRANCH  31  32
ENDBRANCH  14  31
TORSDOF 6
ENDMDL
MODEL 2
REMARK VINA RESULT:    -8.472      6.047      8.951
REMARK INTER + INTRA:         -11.719
REMARK INTER:                 -10.262
REMARK INTRA:                  -1.457
REMARK CONF_INDEPENDENT:        1.790
REMARK UNBOUND:                -1.457
REMARK  6 active torsions:
REMARK  status: ('A' for Active; 'I' for Inactive)
REMARK    1  A    between atoms: C_5  and  C_6 
REMARK    2  A    between atoms: C_6  and  N_7 
REMARK       I    between atoms: N_7  and  C_8 
REMARK    3  A    between atoms: C_8  and  C_10 
REMARK    4  A    between atoms: N_23  and  C_24 
REMARK    5  A    between atoms: C_24  and  C_25 
REMARK    6  A    between atoms: C_32  and  N_33 
ROOT
ATOM      1  C   UNL d   1      28.079 -13.906   2.145  0.00  0.00     0.076 A 
ATOM      2  C   UNL d   1      28.049 -14.516   3.399  0.00  0.00     0.042 A 
ATOM      3  C   UNL d   1      28.416 -13.765   4.517  0.00  0.00     0.080 A 
ATOM      4  C   UNL d   1      28.451 -14.363   5.859  0.00  0.00     0.267 A 
ATOM      5  O   UNL d   1      28.155 -15.554   5.961  0.00  0.00    -0.267 OA
ATOM      6  N   UNL d   1      28.830 -13.532   6.909  0.00  0.00    -0.273 N 
ATOM      7  C   UNL d   1      28.923 -14.074   8.188  0.00  0.00     0.102 A 
ATOM      8  C   UNL d   1      29.287 -13.340   9.245  0.00  0.00     0.018 A 
ATOM      9  C   UNL d   1      29.585 -11.943   9.077  0.00  0.00     0.005 A 
ATOM     10  C   UNL d   1      29.503 -11.369   7.870  0.00  0.00     0.051 A 
ATOM     11  C   UNL d   1      29.118 -12.188   6.682  0.00  0.00     0.139 A 
ATOM     12  N   UNL d   1      29.077 -11.631   5.507  0.00  0.00    -0.212 NA
ATOM     13  C   UNL d   1      28.747 -12.421   4.399  0.00  0.00     0.149 A 
ATOM     14  N   UNL d   1      28.721 -11.820   3.173  0.00  0.00    -0.312 N 
ATOM     15  C   UNL d   1      28.455 -12.536   2.027  0.00  0.00     0.118 A 
ENDROOT
BRANCH   1  16
ATOM     16  C   UNL d   1      27.634 -14.633   0.916  0.00  0.00     0.255 C 
ATOM     17  N   UNL d   1      28.143 -15.888   0.689  0.00  0.00    -0.353 N 
ATOM     18  H   UNL d   1      28.720 -16.323   1.389  0.00  0.00     0.163 HD
ATOM     19  O   UNL d   1      26.778 -14.119   0.205  0.00  0.00    -0.268 OA
BRANCH  17  20
ATOM     20  C   UNL d   1      27.732 -16.688  -0.471  0.00  0.00     0.161 C 
BRANCH  20  21
ATOM     21  C   UNL d   1      26.272 -17.098  -0.492  0.00  0.00    -0.041 A 
ATOM     22  C   UNL d   1      25.349 -16.360  -1.260  0.00  0.00     0.009 A 
ATOM     23  C   UNL d   1      23.997 -16.733  -1.323  0.00  0.00     0.007 A 
ATOM     24  C   UNL d   1      23.538 -17.848  -0.617  0.00  0.00    -0.062 A 
ATOM     25  C   UNL d   1      22.111 -18.299  -0.674  0.00  0.00     0.048 C 
ATOM     26  C   UNL d   1      24.441 -18.572   0.157  0.00  0.00     0.007 A 
ATOM     27  C   UNL d   1      25.781 -18.200   0.221  0.00  0.00     0.009 A 
ENDBRANCH  20  21
ENDBRANCH  17  20
ENDBRANCH   1  16
BRANCH  15  28
ATOM     28  N   UNL d   1      28.409 -11.894   0.796  0.00  0.00    -0.384 N 
ATOM     29  H   UNL d   1      28.879 -11.040   0.543  0.00  0.00     0.157 HD
ATOM     30  H   UNL d   1      27.649 -12.166   0.162  0.00  0.00     0.157 HD
ENDBRANCH  15  28
BRANCH  14  31
ATOM     31  C   UNL d   1      28.854 -10.339   3.096  0.00  0.00     0.172 C 
BRANCH  31  32
ATOM     32  C   UNL d   1      27.734  -9.642   2.326  0.00  0.00    -0.018 C 
ATOM     33  C   UNL d   1      26.410  -9.902   2.749  0.00  0.00     0.010 C 
ATOM     34  C   UNL d   1      25.321  -9.254   2.152  0.00  0.00     0.001 C 
ATOM     35  C   UNL d   1      25.530  -8.287   1.177  0.00  0.00     0.002 C 
ATOM     36  C   UNL d   1      26.817  -8.007   0.756  0.00  0.00     0.024 C 
ATOM     37  C   UNL d   1      27.895  -8.733   1.253  0.00  0.00     0.042 C 
ATOM     38 CL   UNL d   1      29.344  -8.449   0.352  0.00  0.00    -0.084 Cl
ENDBRANCH  31  32
ENDBRANCH  14  31
TORSDOF 6
ENDMDL
MODEL 3
REMARK VINA RESULT:    -8.391      3.833      6.073
REMARK INTER + INTRA:         -11.578
REMARK INTER:                 -10.181
REMARK INTRA:                  -1.397
REMARK CONF_INDEPENDENT:        1.790
REMARK UNBOUND:                -1.397
REMARK  6 active torsions:
REMARK  status: ('A' for Active; 'I' for Inactive)
REMARK    1  A    between atoms: C_5  and  C_6 
REMARK    2  A    between atoms: C_6  and  N_7 
REMARK       I    between atoms: N_7  and  C_8 
REMARK    3  A    between atoms: C_8  and  C_10 
REMARK    4  A    between atoms: N_23  and  C_24 
REMARK    5  A    between atoms: C_24  and  C_25 
REMARK    6  A    between atoms: C_32  and  N_33 
ROOT
ATOM      1  C   UNL d   1      25.368 -16.195  -1.142  0.00  0.00     0.076 A 
ATOM      2  C   UNL d   1      25.026 -15.329  -2.180  0.00  0.00     0.042 A 
ATOM      3  C   UNL d   1      25.660 -14.088  -2.252  0.00  0.00     0.080 A 
ATOM      4  C   UNL d   1      25.311 -13.112  -3.293  0.00  0.00     0.267 A 
ATOM      5  O   UNL d   1      24.429 -13.423  -4.094  0.00  0.00    -0.267 OA
ATOM      6  N   UNL d   1      26.000 -11.903  -3.280  0.00  0.00    -0.273 N 
ATOM      7  C   UNL d   1      25.662 -10.932  -4.221  0.00  0.00     0.102 A 
ATOM      8  C   UNL d   1      26.275  -9.744  -4.265  0.00  0.00     0.018 A 
ATOM      9  C   UNL d   1      27.325  -9.446  -3.330  0.00  0.00     0.005 A 
ATOM     10  C   UNL d   1      27.695 -10.346  -2.410  0.00  0.00     0.051 A 
ATOM     11  C   UNL d   1      27.000 -11.666  -2.341  0.00  0.00     0.139 A 
ATOM     12  N   UNL d   1      27.341 -12.520  -1.421  0.00  0.00    -0.212 NA
ATOM     13  C   UNL d   1      26.656 -13.739  -1.348  0.00  0.00     0.149 A 
ATOM     14  N   UNL d   1      27.021 -14.618  -0.368  0.00  0.00    -0.312 N 
ATOM     15  C   UNL d   1      26.365 -15.817  -0.196  0.00  0.00     0.118 A 
ENDROOT
BRANCH   1  16
ATOM     16  C   UNL d   1      24.776 -17.565  -1.045  0.00  0.00     0.255 C 
ATOM     17  N   UNL d   1      23.557 -17.785  -1.639  0.00  0.00    -0.353 N 
ATOM     18  H   UNL d   1      23.140 -17.059  -2.197  0.00  0.00     0.163 HD
ATOM     19  O   UNL d   1      25.432 -18.454  -0.514  0.00  0.00    -0.268 OA
BRANCH  17  20
ATOM     20  C   UNL d   1      22.921 -19.107  -1.627  0.00  0.00     0.161 C 
BRANCH  20  21
ATOM     21  C   UNL d   1      21.731 -19.246  -0.697  0.00  0.00    -0.041 A 
ATOM     22  C   UNL d   1      20.495 -19.695  -1.205  0.00  0.00     0.009 A 
ATOM     23  C   UNL d   1      19.384 -19.862  -0.362  0.00  0.00     0.007 A 
ATOM     24  C   UNL d   1      19.483 -19.579   1.002  0.00  0.00    -0.062 A 
ATOM     25  C   UNL d   1      18.332 -19.766   1.943  0.00  0.00     0.048 C 
ATOM     26  C   UNL d   1      20.696 -19.118   1.507  0.00  0.00     0.007 A 
ATOM     27  C   UNL d   1      21.797 -18.951   0.671  0.00  0.00     0.009 A 
ENDBRANCH  20  21
ENDBRANCH  17  20
ENDBRANCH   1  16
BRANCH  15  28
ATOM     28  N   UNL d   1      26.775 -16.702   0.793  0.00  0.00    -0.384 N 
ATOM     29  H   UNL d   1      27.475 -16.538   1.498  0.00  0.00     0.157 HD
ATOM     30  H   UNL d   1      26.529 -17.689   0.658  0.00  0.00     0.157 HD
ENDBRANCH  15  28
BRANCH  14  31
ATOM     31  C   UNL d   1      28.235 -14.326   0.443  0.00  0.00     0.172 C 
BRANCH  31  32
ATOM     32  C   UNL d   1      27.948 -13.865   1.870  0.00  0.00    -0.018 C 
ATOM     33  C   UNL d   1      28.113 -14.825   2.897  0.00  0.00     0.010 C 
ATOM     34  C   UNL d   1      27.944 -14.478   4.243  0.00  0.00     0.001 C 
ATOM     35  C   UNL d   1      27.679 -13.162   4.600  0.00  0.00     0.002 C 
ATOM     36  C   UNL d   1      27.525 -12.204   3.614  0.00  0.00     0.024 C 
ATOM     37  C   UNL d   1      27.568 -12.562   2.270  0.00  0.00     0.042 C 
ATOM     38 CL   UNL d   1      27.024 -11.285   1.237  0.00  0.00    -0.084 Cl
ENDBRANCH  31  32
ENDBRANCH  14  31
TORSDOF 6
ENDMDL
MODEL 4
REMARK VINA RESULT:    -8.366      3.470      8.145
REMARK INTER + INTRA:         -11.742
REMARK INTER:                 -10.156
REMARK INTRA:                  -1.586
REMARK CONF_INDEPENDENT:        1.790
REMARK UNBOUND:                -1.586
REMARK  6 active torsions:
REMARK  status: ('A' for Active; 'I' for Inactive)
REMARK    1  A    between atoms: C_5  and  C_6 
REMARK    2  A    between atoms: C_6  and  N_7 
REMARK       I    between atoms: N_7  and  C_8 
REMARK    3  A    between atoms: C_8  and  C_10 
REMARK    4  A    between atoms: N_23  and  C_24 
REMARK    5  A    between atoms: C_24  and  C_25 
REMARK    6  A    between atoms: C_32  and  N_33 
ROOT
ATOM      1  C   UNL d   1      27.913 -14.559  -4.273  0.00  0.00     0.076 A 
ATOM      2  C   UNL d   1      28.664 -13.786  -3.389  0.00  0.00     0.042 A 
ATOM      3  C   UNL d   1      28.114 -13.465  -2.147  0.00  0.00     0.080 A 
ATOM      4  C   UNL d   1      28.834 -12.615  -1.190  0.00  0.00     0.267 A 
ATOM      5  O   UNL d   1      29.939 -12.186  -1.526  0.00  0.00    -0.267 OA
ATOM      6  N   UNL d   1      28.201 -12.352   0.021  0.00  0.00    -0.273 N 
ATOM      7  C   UNL d   1      28.831 -11.510   0.934  0.00  0.00     0.102 A 
ATOM      8  C   UNL d   1      28.281 -11.206   2.115  0.00  0.00     0.018 A 
ATOM      9  C   UNL d   1      27.006 -11.766   2.476  0.00  0.00     0.005 A 
ATOM     10  C   UNL d   1      26.361 -12.588   1.638  0.00  0.00     0.051 A 
ATOM     11  C   UNL d   1      26.960 -12.914   0.309  0.00  0.00     0.139 A 
ATOM     12  N   UNL d   1      26.309 -13.684  -0.514  0.00  0.00    -0.212 NA
ATOM     13  C   UNL d   1      26.868 -13.952  -1.769  0.00  0.00     0.149 A 
ATOM     14  N   UNL d   1      26.165 -14.753  -2.622  0.00  0.00    -0.312 N 
ATOM     15  C   UNL d   1      26.621 -15.025  -3.893  0.00  0.00     0.118 A 
ENDROOT
BRANCH   1  16
ATOM     16  C   UNL d   1      28.469 -14.994  -5.591  0.00  0.00     0.255 C 
ATOM     17  N   UNL d   1      29.819 -15.236  -5.674  0.00  0.00    -0.353 N 
ATOM     18  H   UNL d   1      30.380 -15.207  -4.839  0.00  0.00     0.163 HD
ATOM     19  O   UNL d   1      27.695 -15.197  -6.520  0.00  0.00    -0.268 OA
BRANCH  17  20
ATOM     20  C   UNL d   1      30.443 -15.704  -6.917  0.00  0.00     0.161 C 
BRANCH  20  21
ATOM     21  C   UNL d   1      30.788 -17.181  -6.954  0.00  0.00    -0.041 A 
ATOM     22  C   UNL d   1      30.399 -18.017  -5.888  0.00  0.00     0.009 A 
ATOM     23  C   UNL d   1      30.679 -19.394  -5.908  0.00  0.00     0.007 A 
ATOM     24  C   UNL d   1      31.355 -19.961  -6.991  0.00  0.00    -0.062 A 
ATOM     25  C   UNL d   1      31.653 -21.427  -7.068  0.00  0.00     0.048 C 
ATOM     26  C   UNL d   1      31.758 -19.138  -8.039  0.00  0.00     0.007 A 
ATOM     27  C   UNL d   1      31.483 -17.773  -8.017  0.00  0.00     0.009 A 
ENDBRANCH  20  21
ENDBRANCH  17  20
ENDBRANCH   1  16
BRANCH  15  28
ATOM     28  N   UNL d   1      25.897 -15.865  -4.730  0.00  0.00    -0.384 N 
ATOM     29  H   UNL d   1      25.215 -16.553  -4.453  0.00  0.00     0.157 HD
ATOM     30  H   UNL d   1      26.248 -15.976  -5.688  0.00  0.00     0.157 HD
ENDBRANCH  15  28
BRANCH  14  31
ATOM     31  C   UNL d   1      24.948 -15.447  -2.117  0.00  0.00     0.172 C 
BRANCH  31  32
ATOM     32  C   UNL d   1      25.230 -16.603  -1.160  0.00  0.00    -0.018 C 
ATOM     33  C   UNL d   1      26.582 -16.994  -1.010  0.00  0.00     0.010 C 
ATOM     34  C   UNL d   1      26.948 -17.994  -0.101  0.00  0.00     0.001 C 
ATOM     35  C   UNL d   1      25.993 -18.575   0.724  0.00  0.00     0.002 C 
ATOM     36  C   UNL d   1      24.667 -18.200   0.604  0.00  0.00     0.024 C 
ATOM     37  C   UNL d   1      24.276 -17.297  -0.380  0.00  0.00     0.042 C 
ATOM     38 CL   UNL d   1      22.556 -17.236  -0.562  0.00  0.00    -0.084 Cl
ENDBRANCH  31  32
ENDBRANCH  14  31
TORSDOF 6
ENDMDL
MODEL 5
REMARK VINA RESULT:    -8.270      6.622      9.484
REMARK INTER + INTRA:         -11.875
REMARK INTER:                 -10.059
REMARK INTRA:                  -1.816
REMARK CONF_INDEPENDENT:        1.790
REMARK UNBOUND:                -1.816
REMARK  6 active torsions:
REMARK  status: ('A' for Active; 'I' for Inactive)
REMARK    1  A    between atoms: C_5  and  C_6 
REMARK    2  A    between atoms: C_6  and  N_7 
REMARK       I    between atoms: N_7  and  C_8 
REMARK    3  A    between atoms: C_8  and  C_10 
REMARK    4  A    between atoms: N_23  and  C_24 
REMARK    5  A    between atoms: C_24  and  C_25 
REMARK    6  A    between atoms: C_32  and  N_33 
ROOT
ATOM      1  C   UNL d   1      27.486 -13.815   2.238  0.00  0.00     0.076 A 
ATOM      2  C   UNL d   1      27.803 -14.477   3.424  0.00  0.00     0.042 A 
ATOM      3  C   UNL d   1      28.000 -13.720   4.579  0.00  0.00     0.080 A 
ATOM      4  C   UNL d   1      28.382 -14.352   5.849  0.00  0.00     0.267 A 
ATOM      5  O   UNL d   1      28.532 -15.575   5.856  0.00  0.00    -0.267 OA
ATOM      6  N   UNL d   1      28.556 -13.512   6.945  0.00  0.00    -0.273 N 
ATOM      7  C   UNL d   1      28.966 -14.068   8.154  0.00  0.00     0.102 A 
ATOM      8  C   UNL d   1      29.160 -13.323   9.248  0.00  0.00     0.018 A 
ATOM      9  C   UNL d   1      28.933 -11.904   9.197  0.00  0.00     0.005 A 
ATOM     10  C   UNL d   1      28.530 -11.320   8.061  0.00  0.00     0.051 A 
ATOM     11  C   UNL d   1      28.332 -12.142   6.830  0.00  0.00     0.139 A 
ATOM     12  N   UNL d   1      27.976 -11.560   5.723  0.00  0.00    -0.212 NA
ATOM     13  C   UNL d   1      27.828 -12.341   4.570  0.00  0.00     0.149 A 
ATOM     14  N   UNL d   1      27.465 -11.710   3.415  0.00  0.00    -0.312 N 
ATOM     15  C   UNL d   1      27.347 -12.397   2.227  0.00  0.00     0.118 A 
ENDROOT
BRANCH   1  16
ATOM     16  C   UNL d   1      27.196 -14.570   0.979  0.00  0.00     0.255 C 
ATOM     17  N   UNL d   1      27.914 -15.715   0.734  0.00  0.00    -0.353 N 
ATOM     18  H   UNL d   1      28.542 -16.067   1.437  0.00  0.00     0.163 HD
ATOM     19  O   UNL d   1      26.280 -14.188   0.261  0.00  0.00    -0.268 OA
BRANCH  17  20
ATOM     20  C   UNL d   1      27.668 -16.539  -0.456  0.00  0.00     0.161 C 
BRANCH  20  21
ATOM     21  C   UNL d   1      26.255 -17.072  -0.595  0.00  0.00    -0.041 A 
ATOM     22  C   UNL d   1      25.799 -18.083   0.275  0.00  0.00     0.009 A 
ATOM     23  C   UNL d   1      24.487 -18.575   0.189  0.00  0.00     0.007 A 
ATOM     24  C   UNL d   1      23.605 -18.071  -0.770  0.00  0.00    -0.062 A 
ATOM     25  C   UNL d   1      22.189 -18.547  -0.883  0.00  0.00     0.048 C 
ATOM     26  C   UNL d   1      24.054 -17.085  -1.645  0.00  0.00     0.007 A 
ATOM     27  C   UNL d   1      25.356 -16.599  -1.561  0.00  0.00     0.009 A 
ENDBRANCH  20  21
ENDBRANCH  17  20
ENDBRANCH   1  16
BRANCH  15  28
ATOM     28  N   UNL d   1      26.950 -11.734   1.072  0.00  0.00    -0.384 N 
ATOM     29  H   UNL d   1      26.279 -12.054   0.392  0.00  0.00     0.157 HD
ATOM     30  H   UNL d   1      27.556 -10.972   0.747  0.00  0.00     0.157 HD
ENDBRANCH  15  28
BRANCH  14  31
ATOM     31  C   UNL d   1      27.065 -10.277   3.474  0.00  0.00     0.172 C 
BRANCH  31  32
ATOM     32  C   UNL d   1      28.152  -9.337   3.990  0.00  0.00    -0.018 C 
ATOM     33  C   UNL d   1      27.724  -8.210   4.730  0.00  0.00     0.010 C 
ATOM     34  C   UNL d   1      28.649  -7.330   5.307  0.00  0.00     0.001 C 
ATOM     35  C   UNL d   1      30.011  -7.590   5.220  0.00  0.00     0.002 C 
ATOM     36  C   UNL d   1      30.453  -8.693   4.512  0.00  0.00     0.024 C 
ATOM     37  C   UNL d   1      29.548  -9.504   3.832  0.00  0.00     0.042 C 
ATOM     38 CL   UNL d   1      30.339 -10.604   2.757  0.00  0.00    -0.084 Cl
ENDBRANCH  31  32
ENDBRANCH  14  31
TORSDOF 6
ENDMDL
MODEL 6
REMARK VINA RESULT:    -8.250      2.843      5.689
REMARK INTER + INTRA:         -11.544
REMARK INTER:                 -10.040
REMARK INTRA:                  -1.504
REMARK CONF_INDEPENDENT:        1.790
REMARK UNBOUND:                -1.504
REMARK  6 active torsions:
REMARK  status: ('A' for Active; 'I' for Inactive)
REMARK    1  A    between atoms: C_5  and  C_6 
REMARK    2  A    between atoms: C_6  and  N_7 
REMARK       I    between atoms: N_7  and  C_8 
REMARK    3  A    between atoms: C_8  and  C_10 
REMARK    4  A    between atoms: N_23  and  C_24 
REMARK    5  A    between atoms: C_24  and  C_25 
REMARK    6  A    between atoms: C_32  and  N_33 
ROOT
ATOM      1  C   UNL d   1      28.488 -16.086  -2.631  0.00  0.00     0.076 A 
ATOM      2  C   UNL d   1      27.773 -15.166  -3.397  0.00  0.00     0.042 A 
ATOM      3  C   UNL d   1      28.366 -14.650  -4.550  0.00  0.00     0.080 A 
ATOM      4  C   UNL d   1      27.685 -13.643  -5.374  0.00  0.00     0.267 A 
ATOM      5  O   UNL d   1      26.573 -13.261  -5.005  0.00  0.00    -0.267 OA
ATOM      6  N   UNL d   1      28.359 -13.191  -6.504  0.00  0.00    -0.273 N 
ATOM      7  C   UNL d   1      27.767 -12.200  -7.283  0.00  0.00     0.102 A 
ATOM      8  C   UNL d   1      28.358 -11.711  -8.379  0.00  0.00     0.018 A 
ATOM      9  C   UNL d   1      29.640 -12.220  -8.788  0.00  0.00     0.005 A 
ATOM     10  C   UNL d   1      30.249 -13.179  -8.079  0.00  0.00     0.051 A 
ATOM     11  C   UNL d   1      29.605 -13.714  -6.842  0.00  0.00     0.139 A 
ATOM     12  N   UNL d   1      30.222 -14.618  -6.140  0.00  0.00    -0.212 NA
ATOM     13  C   UNL d   1      29.619 -15.084  -4.965  0.00  0.00     0.149 A 
ATOM     14  N   UNL d   1      30.288 -16.026  -4.236  0.00  0.00    -0.312 N 
ATOM     15  C   UNL d   1      29.788 -16.500  -3.043  0.00  0.00     0.118 A 
ENDROOT
BRANCH   1  16
ATOM     16  C   UNL d   1      27.885 -16.727  -1.422  0.00  0.00     0.255 C 
ATOM     17  N   UNL d   1      26.546 -16.529  -1.187  0.00  0.00    -0.353 N 
ATOM     18  H   UNL d   1      25.989 -16.044  -1.870  0.00  0.00     0.163 HD
ATOM     19  O   UNL d   1      28.583 -17.467  -0.737  0.00  0.00    -0.268 OA
BRANCH  17  20
ATOM     20  C   UNL d   1      25.864 -17.152  -0.047  0.00  0.00     0.161 C 
BRANCH  20  21
ATOM     21  C   UNL d   1      24.427 -17.566  -0.298  0.00  0.00    -0.041 A 
ATOM     22  C   UNL d   1      24.051 -18.917  -0.150  0.00  0.00     0.009 A 
ATOM     23  C   UNL d   1      22.721 -19.325  -0.347  0.00  0.00     0.007 A 
ATOM     24  C   UNL d   1      21.742 -18.393  -0.700  0.00  0.00    -0.062 A 
ATOM     25  C   UNL d   1      20.307 -18.778  -0.896  0.00  0.00     0.048 C 
ATOM     26  C   UNL d   1      22.109 -17.061  -0.865  0.00  0.00     0.007 A 
ATOM     27  C   UNL d   1      23.428 -16.657  -0.672  0.00  0.00     0.009 A 
ENDBRANCH  20  21
ENDBRANCH  17  20
ENDBRANCH   1  16
BRANCH  15  28
ATOM     28  N   UNL d   1      30.477 -17.477  -2.336  0.00  0.00    -0.384 N 
ATOM     29  H   UNL d   1      31.051 -18.210  -2.721  0.00  0.00     0.157 HD
ATOM     30  H   UNL d   1      30.196 -17.624  -1.360  0.00  0.00     0.157 HD
ENDBRANCH  15  28
BRANCH  14  31
ATOM     31  C   UNL d   1      31.515 -16.642  -4.812  0.00  0.00     0.172 C 
BRANCH  31  32
ATOM     32  C   UNL d   1      31.253 -17.831  -5.734  0.00  0.00    -0.018 C 
ATOM     33  C   UNL d   1      30.744 -19.006  -5.133  0.00  0.00     0.010 C 
ATOM     34  C   UNL d   1      30.404 -20.123  -5.906  0.00  0.00     0.001 C 
ATOM     35  C   UNL d   1      30.496 -20.071  -7.291  0.00  0.00     0.002 C 
ATOM     36  C   UNL d   1      30.978 -18.928  -7.902  0.00  0.00     0.024 C 
ATOM     37  C   UNL d   1      31.435 -17.859  -7.137  0.00  0.00     0.042 C 
ATOM     38 CL   UNL d   1      32.293 -16.696  -8.088  0.00  0.00    -0.084 Cl
ENDBRANCH  31  32
ENDBRANCH  14  31
TORSDOF 6
ENDMDL
MODEL 7
REMARK VINA RESULT:    -8.163      3.757      8.617
REMARK INTER + INTRA:         -11.511
REMARK INTER:                  -9.953
REMARK INTRA:                  -1.558
REMARK CONF_INDEPENDENT:        1.790
REMARK UNBOUND:                -1.558
REMARK  6 active torsions:
REMARK  status: ('A' for Active; 'I' for Inactive)
REMARK    1  A    between atoms: C_5  and  C_6 
REMARK    2  A    between atoms: C_6  and  N_7 
REMARK       I    between atoms: N_7  and  C_8 
REMARK    3  A    between atoms: C_8  and  C_10 
REMARK    4  A    between atoms: N_23  and  C_24 
REMARK    5  A    between atoms: C_24  and  C_25 
REMARK    6  A    between atoms: C_32  and  N_33 
ROOT
ATOM      1  C   UNL d   1      26.150 -12.136  -3.501  0.00  0.00     0.076 A 
ATOM      2  C   UNL d   1      26.737 -11.551  -2.380  0.00  0.00     0.042 A 
ATOM      3  C   UNL d   1      26.993 -12.350  -1.265  0.00  0.00     0.080 A 
ATOM      4  C   UNL d   1      27.565 -11.784  -0.036  0.00  0.00     0.267 A 
ATOM      5  O   UNL d   1      27.802 -10.575  -0.021  0.00  0.00    -0.267 OA
ATOM      6  N   UNL d   1      27.783 -12.662   1.021  0.00  0.00    -0.273 N 
ATOM      7  C   UNL d   1      28.278 -12.154   2.220  0.00  0.00     0.102 A 
ATOM      8  C   UNL d   1      28.506 -12.936   3.281  0.00  0.00     0.018 A 
ATOM      9  C   UNL d   1      28.249 -14.348   3.198  0.00  0.00     0.005 A 
ATOM     10  C   UNL d   1      27.780 -14.889   2.066  0.00  0.00     0.051 A 
ATOM     11  C   UNL d   1      27.503 -14.019   0.884  0.00  0.00     0.139 A 
ATOM     12  N   UNL d   1      27.012 -14.548  -0.198  0.00  0.00    -0.212 NA
ATOM     13  C   UNL d   1      26.726 -13.713  -1.285  0.00  0.00     0.149 A 
ATOM     14  N   UNL d   1      26.202 -14.286  -2.408  0.00  0.00    -0.312 N 
ATOM     15  C   UNL d   1      25.846 -13.529  -3.503  0.00  0.00     0.118 A 
ENDROOT
BRANCH   1  16
ATOM     16  C   UNL d   1      25.911 -11.353  -4.753  0.00  0.00     0.255 C 
ATOM     17  N   UNL d   1      26.329 -10.045  -4.785  0.00  0.00    -0.353 N 
ATOM     18  H   UNL d   1      26.862  -9.675  -4.016  0.00  0.00     0.163 HD
ATOM     19  O   UNL d   1      25.430 -11.925  -5.724  0.00  0.00    -0.268 OA
BRANCH  17  20
ATOM     20  C   UNL d   1      26.171  -9.214  -5.985  0.00  0.00     0.161 C 
BRANCH  20  21
ATOM     21  C   UNL d   1      24.947  -8.318  -5.996  0.00  0.00    -0.041 A 
ATOM     22  C   UNL d   1      24.781  -7.374  -7.029  0.00  0.00     0.009 A 
ATOM     23  C   UNL d   1      23.644  -6.551  -7.082  0.00  0.00     0.007 A 
ATOM     24  C   UNL d   1      22.652  -6.652  -6.103  0.00  0.00    -0.062 A 
ATOM     25  C   UNL d   1      21.411  -5.814  -6.132  0.00  0.00     0.048 C 
ATOM     26  C   UNL d   1      22.818  -7.571  -5.070  0.00  0.00     0.007 A 
ATOM     27  C   UNL d   1      23.947  -8.384  -5.016  0.00  0.00     0.009 A 
ENDBRANCH  20  21
ENDBRANCH  17  20
ENDBRANCH   1  16
BRANCH  15  28
ATOM     28  N   UNL d   1      25.339 -14.141  -4.642  0.00  0.00    -0.384 N 
ATOM     29  H   UNL d   1      25.830 -14.768  -5.259  0.00  0.00     0.157 HD
ATOM     30  H   UNL d   1      24.477 -13.746  -5.033  0.00  0.00     0.157 HD
ENDBRANCH  15  28
BRANCH  14  31
ATOM     31  C   UNL d   1      26.137 -15.771  -2.494  0.00  0.00     0.172 C 
BRANCH  31  32
ATOM     32  C   UNL d   1      25.144 -16.418  -1.531  0.00  0.00    -0.018 C 
ATOM     33  C   UNL d   1      23.791 -16.021  -1.646  0.00  0.00     0.010 C 
ATOM     34  C   UNL d   1      22.796 -16.612  -0.857  0.00  0.00     0.001 C 
ATOM     35  C   UNL d   1      23.112 -17.653   0.007  0.00  0.00     0.002 C 
ATOM     36  C   UNL d   1      24.426 -18.066   0.127  0.00  0.00     0.024 C 
ATOM     37  C   UNL d   1      25.440 -17.403  -0.560  0.00  0.00     0.042 C 
ATOM     38 CL   UNL d   1      27.013 -17.866  -0.007  0.00  0.00    -0.084 Cl
ENDBRANCH  31  32
ENDBRANCH  14  31
TORSDOF 6
ENDMDL
MODEL 8
REMARK VINA RESULT:    -7.964      4.865      7.502
REMARK INTER + INTRA:         -11.339
REMARK INTER:                  -9.754
REMARK INTRA:                  -1.585
REMARK CONF_INDEPENDENT:        1.790
REMARK UNBOUND:                -1.585
REMARK  6 active torsions:
REMARK  status: ('A' for Active; 'I' for Inactive)
REMARK    1  A    between atoms: C_5  and  C_6 
REMARK    2  A    between atoms: C_6  and  N_7 
REMARK       I    between atoms: N_7  and  C_8 
REMARK    3  A    between atoms: C_8  and  C_10 
REMARK    4  A    between atoms: N_23  and  C_24 
REMARK    5  A    between atoms: C_24  and  C_25 
REMARK    6  A    between atoms: C_32  and  N_33 
ROOT
ATOM      1  C   UNL d   1      29.599 -17.161  -1.941  0.00  0.00     0.076 A 
ATOM      2  C   UNL d   1      29.470 -16.870  -3.298  0.00  0.00     0.042 A 
ATOM      3  C   UNL d   1      30.373 -17.443  -4.194  0.00  0.00     0.080 A 
ATOM      4  C   UNL d   1      30.320 -17.139  -5.631  0.00  0.00     0.267 A 
ATOM      5  O   UNL d   1      29.455 -16.350  -6.015  0.00  0.00    -0.267 OA
ATOM      6  N   UNL d   1      31.264 -17.761  -6.442  0.00  0.00    -0.273 N 
ATOM      7  C   UNL d   1      31.276 -17.459  -7.802  0.00  0.00     0.102 A 
ATOM      8  C   UNL d   1      32.158 -18.012  -8.642  0.00  0.00     0.018 A 
ATOM      9  C   UNL d   1      33.123 -18.957  -8.148  0.00  0.00     0.005 A 
ATOM     10  C   UNL d   1      33.149 -19.288  -6.850  0.00  0.00     0.051 A 
ATOM     11  C   UNL d   1      32.181 -18.659  -5.903  0.00  0.00     0.139 A 
ATOM     12  N   UNL d   1      32.238 -18.958  -4.638  0.00  0.00    -0.212 NA
ATOM     13  C   UNL d   1      31.346 -18.334  -3.758  0.00  0.00     0.149 A 
ATOM     14  N   UNL d   1      31.429 -18.653  -2.433  0.00  0.00    -0.312 N 
ATOM     15  C   UNL d   1      30.623 -18.047  -1.495  0.00  0.00     0.118 A 
ENDROOT
BRANCH   1  16
ATOM     16  C   UNL d   1      28.625 -16.634  -0.936  0.00  0.00     0.255 C 
ATOM     17  N   UNL d   1      27.291 -16.902  -1.128  0.00  0.00    -0.353 N 
ATOM     18  H   UNL d   1      27.011 -17.515  -1.875  0.00  0.00     0.163 HD
ATOM     19  O   UNL d   1      29.055 -16.058   0.057  0.00  0.00    -0.268 OA
BRANCH  17  20
ATOM     20  C   UNL d   1      26.270 -16.458  -0.172  0.00  0.00     0.161 C 
BRANCH  20  21
ATOM     21  C   UNL d   1      24.910 -17.111  -0.325  0.00  0.00    -0.041 A 
ATOM     22  C   UNL d   1      23.793 -16.328  -0.677  0.00  0.00     0.009 A 
ATOM     23  C   UNL d   1      22.527 -16.910  -0.855  0.00  0.00     0.007 A 
ATOM     24  C   UNL d   1      22.351 -18.285  -0.680  0.00  0.00    -0.062 A 
ATOM     25  C   UNL d   1      21.026 -18.953  -0.883  0.00  0.00     0.048 C 
ATOM     26  C   UNL d   1      23.447 -19.062  -0.315  0.00  0.00     0.007 A 
ATOM     27  C   UNL d   1      24.701 -18.484  -0.136  0.00  0.00     0.009 A 
ENDBRANCH  20  21
ENDBRANCH  17  20
ENDBRANCH   1  16
BRANCH  15  28
ATOM     28  N   UNL d   1      30.711 -18.411  -0.158  0.00  0.00    -0.384 N 
ATOM     29  H   UNL d   1      30.823 -19.343   0.209  0.00  0.00     0.157 HD
ATOM     30  H   UNL d   1      30.395 -17.719   0.530  0.00  0.00     0.157 HD
ENDBRANCH  15  28
BRANCH  14  31
ATOM     31  C   UNL d   1      32.319 -19.773  -2.019  0.00  0.00     0.172 C 
BRANCH  31  32
ATOM     32  C   UNL d   1      31.603 -21.105  -1.807  0.00  0.00    -0.018 C 
ATOM     33  C   UNL d   1      31.326 -21.476  -0.470  0.00  0.00     0.010 C 
ATOM     34  C   UNL d   1      30.609 -22.643  -0.178  0.00  0.00     0.001 C 
ATOM     35  C   UNL d   1      30.095 -23.425  -1.205  0.00  0.00     0.002 C 
ATOM     36  C   UNL d   1      30.343 -23.076  -2.520  0.00  0.00     0.024 C 
ATOM     37  C   UNL d   1      31.158 -21.987  -2.819  0.00  0.00     0.042 C 
ATOM     38 CL   UNL d   1      31.597 -21.942  -4.492  0.00  0.00    -0.084 Cl
ENDBRANCH  31  32
ENDBRANCH  14  31
TORSDOF 6
ENDMDL
MODEL 9
REMARK VINA RESULT:    -7.907      4.730      7.447
REMARK INTER + INTRA:         -11.320
REMARK INTER:                  -9.696
REMARK INTRA:                  -1.624
REMARK CONF_INDEPENDENT:        1.790
REMARK UNBOUND:                -1.624
REMARK  6 active torsions:
REMARK  status: ('A' for Active; 'I' for Inactive)
REMARK    1  A    between atoms: C_5  and  C_6 
REMARK    2  A    between atoms: C_6  and  N_7 
REMARK       I    between atoms: N_7  and  C_8 
REMARK    3  A    between atoms: C_8  and  C_10 
REMARK    4  A    between atoms: N_23  and  C_24 
REMARK    5  A    between atoms: C_24  and  C_25 
REMARK    6  A    between atoms: C_32  and  N_33 
ROOT
ATOM      1  C   UNL d   1      27.680 -13.160   0.642  0.00  0.00     0.076 A 
ATOM      2  C   UNL d   1      27.745 -12.346  -0.488  0.00  0.00     0.042 A 
ATOM      3  C   UNL d   1      27.860 -12.950  -1.741  0.00  0.00     0.080 A 
ATOM      4  C   UNL d   1      27.980 -12.148  -2.966  0.00  0.00     0.267 A 
ATOM      5  O   UNL d   1      27.987 -10.922  -2.848  0.00  0.00    -0.267 OA
ATOM      6  N   UNL d   1      28.090 -12.844  -4.167  0.00  0.00    -0.273 N 
ATOM      7  C   UNL d   1      28.256 -12.119  -5.345  0.00  0.00     0.102 A 
ATOM      8  C   UNL d   1      28.375 -12.718  -6.535  0.00  0.00     0.018 A 
ATOM      9  C   UNL d   1      28.322 -14.152  -6.622  0.00  0.00     0.005 A 
ATOM     10  C   UNL d   1      28.155 -14.896  -5.521  0.00  0.00     0.051 A 
ATOM     11  C   UNL d   1      28.043 -14.235  -4.187  0.00  0.00     0.139 A 
ATOM     12  N   UNL d   1      27.919 -14.967  -3.119  0.00  0.00    -0.212 NA
ATOM     13  C   UNL d   1      27.850 -14.333  -1.873  0.00  0.00     0.149 A 
ATOM     14  N   UNL d   1      27.731 -15.120  -0.763  0.00  0.00    -0.312 N 
ATOM     15  C   UNL d   1      27.706 -14.578   0.503  0.00  0.00     0.118 A 
ENDROOT
BRANCH   1  16
ATOM     16  C   UNL d   1      27.489 -12.580   2.008  0.00  0.00     0.255 C 
ATOM     17  N   UNL d   1      28.215 -11.463   2.342  0.00  0.00    -0.353 N 
ATOM     18  H   UNL d   1      28.779 -11.011   1.643  0.00  0.00     0.163 HD
ATOM     19  O   UNL d   1      26.638 -13.070   2.742  0.00  0.00    -0.268 OA
BRANCH  17  20
ATOM     20  C   UNL d   1      28.062 -10.806   3.645  0.00  0.00     0.161 C 
BRANCH  20  21
ATOM     21  C   UNL d   1      28.407 -11.662   4.848  0.00  0.00    -0.041 A 
ATOM     22  C   UNL d   1      28.158 -11.176   6.148  0.00  0.00     0.009 A 
ATOM     23  C   UNL d   1      28.441 -11.959   7.280  0.00  0.00     0.007 A 
ATOM     24  C   UNL d   1      28.981 -13.239   7.137  0.00  0.00    -0.062 A 
ATOM     25  C   UNL d   1      29.274 -14.118   8.313  0.00  0.00     0.048 C 
ATOM     26  C   UNL d   1      29.246 -13.718   5.857  0.00  0.00     0.007 A 
ATOM     27  C   UNL d   1      28.968 -12.941   4.735  0.00  0.00     0.009 A 
ENDBRANCH  20  21
ENDBRANCH  17  20
ENDBRANCH   1  16
BRANCH  15  28
ATOM     28  N   UNL d   1      27.558 -15.400   1.613  0.00  0.00    -0.384 N 
ATOM     29  H   UNL d   1      27.031 -15.199   2.448  0.00  0.00     0.157 HD
ATOM     30  H   UNL d   1      28.227 -16.172   1.708  0.00  0.00     0.157 HD
ENDBRANCH  15  28
BRANCH  14  31
ATOM     31  C   UNL d   1      27.493 -16.579  -0.939  0.00  0.00     0.172 C 
BRANCH  31  32
ATOM     32  C   UNL d   1      26.032 -17.003  -0.801  0.00  0.00    -0.018 C 
ATOM     33  C   UNL d   1      25.771 -18.151  -0.015  0.00  0.00     0.010 C 
ATOM     34  C   UNL d   1      24.460 -18.575   0.230  0.00  0.00     0.001 C 
ATOM     35  C   UNL d   1      23.383 -17.832  -0.239  0.00  0.00     0.002 C 
ATOM     36  C   UNL d   1      23.614 -16.700  -0.998  0.00  0.00     0.024 C 
ATOM     37  C   UNL d   1      24.911 -16.339  -1.351  0.00  0.00     0.042 C 
ATOM     38 CL   UNL d   1      24.937 -15.105  -2.564  0.00  0.00    -0.084 Cl
ENDBRANCH  31  32
ENDBRANCH  14  31
TORSDOF 6
ENDMDL
