MODEL 1
REMARK VINA RESULT:   -10.380      0.000      0.000
REMARK INTER + INTRA:         -14.828
REMARK INTER:                 -12.766
REMARK INTRA:                  -2.062
REMARK CONF_INDEPENDENT:        2.386
REMARK UNBOUND:                -2.062
REMARK  8 active torsions:
REMARK  status: ('A' for Active; 'I' for Inactive)
REMARK    1  A    between atoms: C_2  and  C_3 
REMARK       I    between atoms: C_2  and  N_19 
REMARK    2  A    between atoms: C_3  and  C_4 
REMARK    3  A    between atoms: C_4  and  C_5 
REMARK    4  A    between atoms: C_8  and  C_9 
REMARK       I    between atoms: C_9  and  N_11 
REMARK    5  A    between atoms: N_11  and  C_12 
REMARK    6  A    between atoms: N_19  and  C_20 
REMARK    7  A    between atoms: C_20  and  C_21 
REMARK    8  A    between atoms: C_21  and  C_22 
ROOT
ATOM      1  C   UNL d   1      25.785 -16.828  -1.427  0.00  0.00     0.105 C 
ENDROOT
BRANCH   1   2
ATOM      2  C   UNL d   1      25.965 -17.608  -0.147  0.00  0.00     0.217 C 
ATOM      3  O   UNL d   1      26.947 -17.553   0.569  0.00  0.00    -0.274 OA
ATOM      4  N   UNL d   1      24.910 -18.409   0.196  0.00  0.00    -0.361 N 
ATOM      5  H   UNL d   1      25.067 -18.921   1.059  0.00  0.00     0.162 HD
BRANCH   4   6
ATOM      6  C   UNL d   1      23.696 -18.542  -0.568  0.00  0.00     0.127 C 
BRANCH   6   7
ATOM      7  C   UNL d   1      22.491 -18.344   0.306  0.00  0.00     0.056 C 
BRANCH   7   8
ATOM      8  C   UNL d   1      21.210 -18.920  -0.191  0.00  0.00    -0.048 A 
ATOM      9  C   UNL d   1      20.345 -19.433   0.680  0.00  0.00    -0.004 A 
ATOM     10  C   UNL d   1      20.441 -19.572   2.088  0.00  0.00     0.037 C 
ATOM     11  C   UNL d   1      19.232 -19.965  -0.103  0.00  0.00     0.038 A 
ATOM     12  C   UNL d   1      19.554 -20.363   2.697  0.00  0.00     0.035 C 
ATOM     13 CL   UNL d   1      19.832 -20.825   4.328  0.00  0.00    -0.084 Cl
ATOM     14  C   UNL d   1      18.406 -20.895   1.973  0.00  0.00     0.026 C 
ATOM     15  C   UNL d   1      18.200 -20.714   0.647  0.00  0.00     0.031 C 
ATOM     16  N   UNL d   1      19.367 -19.700  -1.349  0.00  0.00    -0.385 N 
ATOM     17  C   UNL d   1      20.708 -19.078  -1.599  0.00  0.00     0.155 A 
ATOM     18  H   UNL d   1      18.645 -19.905  -2.040  0.00  0.00     0.160 HD
ENDBRANCH   7   8
ENDBRANCH   6   7
ENDBRANCH   4   6
ENDBRANCH   1   2
BRANCH   1  19
ATOM     19  C   UNL d   1      25.521 -15.365  -1.149  0.00  0.00     0.041 C 
BRANCH  19  20
ATOM     20  C   UNL d   1      25.524 -14.513  -2.417  0.00  0.00     0.135 C 
ATOM     21  N   UNL d   1      24.259 -14.493  -3.191  0.00  0.00    -0.245 NA
ATOM     22  N   UNL d   1      24.542 -14.384  -4.641  0.00  0.00    -0.237 NA
ATOM     23  H   UNL d   1      23.662 -13.737  -2.845  0.00  0.00     0.142 HD
ATOM     24  C   UNL d   1      26.002 -14.302  -4.887  0.00  0.00     0.226 C 
ATOM     25  H   UNL d   1      24.061 -13.598  -5.078  0.00  0.00     0.142 HD
ATOM     26  S   UNL d   1      26.782 -15.170  -3.530  0.00  0.00    -0.117 SA
BRANCH  24  27
ATOM     27  C   UNL d   1      26.459 -12.822  -4.900  0.00  0.00     0.251 C 
ATOM     28  O   UNL d   1      27.582 -12.475  -5.273  0.00  0.00    -0.270 OA
ATOM     29  N   UNL d   1      25.531 -11.921  -4.384  0.00  0.00    -0.325 N 
ATOM     30  H   UNL d   1      24.712 -12.252  -3.891  0.00  0.00     0.169 HD
BRANCH  29  31
ATOM     31  C   UNL d   1      25.777 -10.532  -4.391  0.00  0.00     0.034 A 
ATOM     32  C   UNL d   1      25.921  -9.839  -3.189  0.00  0.00     0.029 A 
ATOM     33  C   UNL d   1      26.117  -8.454  -3.208  0.00  0.00     0.002 A 
ATOM     34  C   UNL d   1      26.197  -7.768  -4.422  0.00  0.00     0.000 A 
ATOM     35  C   UNL d   1      26.048  -8.459  -5.620  0.00  0.00     0.002 A 
ATOM     36  C   UNL d   1      25.839  -9.834  -5.603  0.00  0.00     0.029 A 
ENDBRANCH  29  31
ENDBRANCH  24  27
ENDBRANCH  19  20
ENDBRANCH   1  19
TORSDOF 8
ENDMDL
MODEL 2
REMARK VINA RESULT:    -9.161      4.855      8.194
REMARK INTER + INTRA:         -14.398
REMARK INTER:                 -11.547
REMARK INTRA:                  -2.851
REMARK CONF_INDEPENDENT:        2.386
REMARK UNBOUND:                -2.851
REMARK  8 active torsions:
REMARK  status: ('A' for Active; 'I' for Inactive)
REMARK    1  A    between atoms: C_2  and  C_3 
REMARK       I    between atoms: C_2  and  N_19 
REMARK    2  A    between atoms: C_3  and  C_4 
REMARK    3  A    between atoms: C_4  and  C_5 
REMARK    4  A    between atoms: C_8  and  C_9 
REMARK       I    between atoms: C_9  and  N_11 
REMARK    5  A    between atoms: N_11  and  C_12 
REMARK    6  A    between atoms: N_19  and  C_20 
REMARK    7  A    between atoms: C_20  and  C_21 
REMARK    8  A    between atoms: C_21  and  C_22 
ROOT
ATOM      1  C   UNL d   1      26.321 -12.738  -1.739  0.00  0.00     0.105 C 
ENDROOT
BRANCH   1   2
ATOM      2  C   UNL d   1      26.021 -12.090  -3.068  0.00  0.00     0.217 C 
ATOM      3  O   UNL d   1      26.475 -11.024  -3.441  0.00  0.00    -0.274 OA
ATOM      4  N   UNL d   1      25.184 -12.801  -3.884  0.00  0.00    -0.361 N 
ATOM      5  H   UNL d   1      25.001 -12.333  -4.767  0.00  0.00     0.162 HD
BRANCH   4   6
ATOM      6  C   UNL d   1      24.599 -14.075  -3.551  0.00  0.00     0.127 C 
BRANCH   6   7
ATOM      7  C   UNL d   1      25.530 -15.198  -3.908  0.00  0.00     0.056 C 
BRANCH   7   8
ATOM      8  C   UNL d   1      26.331 -15.775  -2.791  0.00  0.00    -0.048 A 
ATOM      9  C   UNL d   1      25.750 -16.620  -1.943  0.00  0.00    -0.004 A 
ATOM     10  C   UNL d   1      24.409 -17.077  -1.883  0.00  0.00     0.037 C 
ATOM     11  C   UNL d   1      26.758 -16.960  -0.940  0.00  0.00     0.038 A 
ATOM     12  C   UNL d   1      24.017 -17.712  -0.776  0.00  0.00     0.035 C 
ATOM     13 CL   UNL d   1      22.340 -17.980  -0.520  0.00  0.00    -0.084 Cl
ATOM     14  C   UNL d   1      24.983 -18.104   0.242  0.00  0.00     0.026 C 
ATOM     15  C   UNL d   1      26.299 -17.788   0.196  0.00  0.00     0.031 C 
ATOM     16  N   UNL d   1      27.893 -16.438  -1.222  0.00  0.00    -0.385 N 
ATOM     17  C   UNL d   1      27.758 -15.519  -2.398  0.00  0.00     0.155 A 
ATOM     18  H   UNL d   1      28.741 -16.641  -0.693  0.00  0.00     0.160 HD
ENDBRANCH   7   8
ENDBRANCH   6   7
ENDBRANCH   4   6
ENDBRANCH   1   2
BRANCH   1  19
ATOM     19  C   UNL d   1      27.781 -12.594  -1.373  0.00  0.00     0.041 C 
BRANCH  19  20
ATOM     20  C   UNL d   1      28.115 -13.211  -0.016  0.00  0.00     0.135 C 
ATOM     21  N   UNL d   1      29.170 -14.253  -0.016  0.00  0.00    -0.245 NA
ATOM     22  N   UNL d   1      28.882 -15.282   1.011  0.00  0.00    -0.237 NA
ATOM     23  H   UNL d   1      30.084 -13.810   0.113  0.00  0.00     0.142 HD
ATOM     24  C   UNL d   1      27.639 -14.952   1.749  0.00  0.00     0.226 C 
ATOM     25  H   UNL d   1      29.657 -15.419   1.659  0.00  0.00     0.142 HD
ATOM     26  S   UNL d   1      26.625 -14.008   0.617  0.00  0.00    -0.117 SA
BRANCH  24  27
ATOM     27  C   UNL d   1      27.971 -14.099   2.999  0.00  0.00     0.251 C 
ATOM     28  O   UNL d   1      27.878 -12.870   3.009  0.00  0.00    -0.270 OA
ATOM     29  N   UNL d   1      28.456 -14.822   4.085  0.00  0.00    -0.325 N 
ATOM     30  H   UNL d   1      28.724 -15.791   3.980  0.00  0.00     0.169 HD
BRANCH  29  31
ATOM     31  C   UNL d   1      28.739 -14.192   5.316  0.00  0.00     0.034 A 
ATOM     32  C   UNL d   1      27.841 -13.271   5.855  0.00  0.00     0.029 A 
ATOM     33  C   UNL d   1      28.155 -12.617   7.052  0.00  0.00     0.002 A 
ATOM     34  C   UNL d   1      29.347 -12.903   7.721  0.00  0.00     0.000 A 
ATOM     35  C   UNL d   1      30.244 -13.817   7.180  0.00  0.00     0.002 A 
ATOM     36  C   UNL d   1      29.940 -14.457   5.983  0.00  0.00     0.029 A 
ENDBRANCH  29  31
ENDBRANCH  24  27
ENDBRANCH  19  20
ENDBRANCH   1  19
TORSDOF 8
ENDMDL
MODEL 3
REMARK VINA RESULT:    -7.966      6.532      9.488
REMARK INTER + INTRA:         -13.330
REMARK INTER:                 -10.353
REMARK INTRA:                  -2.977
REMARK CONF_INDEPENDENT:        2.386
REMARK UNBOUND:                -2.977
REMARK  8 active torsions:
REMARK  status: ('A' for Active; 'I' for Inactive)
REMARK    1  A    between atoms: C_2  and  C_3 
REMARK       I    between atoms: C_2  and  N_19 
REMARK    2  A    between atoms: C_3  and  C_4 
REMARK    3  A    between atoms: C_4  and  C_5 
REMARK    4  A    between atoms: C_8  and  C_9 
REMARK       I    between atoms: C_9  and  N_11 
REMARK    5  A    between atoms: N_11  and  C_12 
REMARK    6  A    between atoms: N_19  and  C_20 
REMARK    7  A    between atoms: C_20  and  C_21 
REMARK    8  A    between atoms: C_21  and  C_22 
ROOT
ATOM      1  C   UNL d   1      27.926 -12.544   1.805  0.00  0.00     0.105 C 
ENDROOT
BRANCH   1   2
ATOM      2  C   UNL d   1      28.077 -14.044   1.868  0.00  0.00     0.217 C 
ATOM      3  O   UNL d   1      27.363 -14.840   1.287  0.00  0.00    -0.274 OA
ATOM      4  N   UNL d   1      29.118 -14.490   2.635  0.00  0.00    -0.361 N 
ATOM      5  H   UNL d   1      29.186 -15.504   2.657  0.00  0.00     0.162 HD
BRANCH   4   6
ATOM      6  C   UNL d   1      30.031 -13.640   3.355  0.00  0.00     0.127 C 
BRANCH   6   7
ATOM      7  C   UNL d   1      30.029 -13.975   4.819  0.00  0.00     0.056 C 
BRANCH   7   8
ATOM      8  C   UNL d   1      29.207 -13.097   5.698  0.00  0.00    -0.048 A 
ATOM      9  C   UNL d   1      29.330 -13.199   7.019  0.00  0.00    -0.004 A 
ATOM     10  C   UNL d   1      30.130 -14.075   7.797  0.00  0.00     0.037 C 
ATOM     11  C   UNL d   1      28.366 -12.267   7.600  0.00  0.00     0.038 A 
ATOM     12  C   UNL d   1      29.871 -14.158   9.104  0.00  0.00     0.035 C 
ATOM     13 CL   UNL d   1      30.576 -15.435  10.012  0.00  0.00    -0.084 Cl
ATOM     14  C   UNL d   1      28.943 -13.233   9.743  0.00  0.00     0.026 C 
ATOM     15  C   UNL d   1      28.223 -12.304   9.072  0.00  0.00     0.031 C 
ATOM     16  N   UNL d   1      27.777 -11.578   6.695  0.00  0.00    -0.385 N 
ATOM     17  C   UNL d   1      28.160 -12.082   5.336  0.00  0.00     0.155 A 
ATOM     18  H   UNL d   1      27.143 -10.809   6.911  0.00  0.00     0.160 HD
ENDBRANCH   7   8
ENDBRANCH   6   7
ENDBRANCH   4   6
ENDBRANCH   1   2
BRANCH   1  19
ATOM     19  C   UNL d   1      27.893 -12.053   0.375  0.00  0.00     0.041 C 
BRANCH  19  20
ATOM     20  C   UNL d   1      27.404 -13.117  -0.606  0.00  0.00     0.135 C 
ATOM     21  N   UNL d   1      28.444 -14.015  -1.164  0.00  0.00    -0.245 NA
ATOM     22  N   UNL d   1      28.108 -14.393  -2.557  0.00  0.00    -0.237 NA
ATOM     23  H   UNL d   1      28.557 -14.826  -0.550  0.00  0.00     0.142 HD
ATOM     24  C   UNL d   1      26.822 -13.782  -2.971  0.00  0.00     0.226 C 
ATOM     25  H   UNL d   1      28.086 -15.402  -2.697  0.00  0.00     0.142 HD
ATOM     26  S   UNL d   1      26.658 -12.277  -2.017  0.00  0.00    -0.117 SA
BRANCH  24  27
ATOM     27  C   UNL d   1      25.648 -14.741  -2.650  0.00  0.00     0.251 C 
ATOM     28  O   UNL d   1      24.644 -14.825  -3.361  0.00  0.00    -0.270 OA
ATOM     29  N   UNL d   1      25.780 -15.444  -1.455  0.00  0.00    -0.325 N 
ATOM     30  H   UNL d   1      26.503 -15.199  -0.792  0.00  0.00     0.169 HD
BRANCH  29  31
ATOM     31  C   UNL d   1      24.824 -16.404  -1.062  0.00  0.00     0.034 A 
ATOM     32  C   UNL d   1      25.235 -17.623  -0.523  0.00  0.00     0.029 A 
ATOM     33  C   UNL d   1      24.279 -18.586  -0.181  0.00  0.00     0.002 A 
ATOM     34  C   UNL d   1      22.918 -18.321  -0.350  0.00  0.00     0.000 A 
ATOM     35  C   UNL d   1      22.509 -17.108  -0.892  0.00  0.00     0.002 A 
ATOM     36  C   UNL d   1      23.459 -16.155  -1.246  0.00  0.00     0.029 A 
ENDBRANCH  29  31
ENDBRANCH  24  27
ENDBRANCH  19  20
ENDBRANCH   1  19
TORSDOF 8
ENDMDL
MODEL 4
REMARK VINA RESULT:    -7.859      4.788      9.245
REMARK INTER + INTRA:         -13.505
REMARK INTER:                 -10.245
REMARK INTRA:                  -3.259
REMARK CONF_INDEPENDENT:        2.386
REMARK UNBOUND:                -3.259
REMARK  8 active torsions:
REMARK  status: ('A' for Active; 'I' for Inactive)
REMARK    1  A    between atoms: C_2  and  C_3 
REMARK       I    between atoms: C_2  and  N_19 
REMARK    2  A    between atoms: C_3  and  C_4 
REMARK    3  A    between atoms: C_4  and  C_5 
REMARK    4  A    between atoms: C_8  and  C_9 
REMARK       I    between atoms: C_9  and  N_11 
REMARK    5  A    between atoms: N_11  and  C_12 
REMARK    6  A    between atoms: N_19  and  C_20 
REMARK    7  A    between atoms: C_20  and  C_21 
REMARK    8  A    between atoms: C_21  and  C_22 
ROOT
ATOM      1  C   UNL d   1      28.702 -15.270  -3.572  0.00  0.00     0.105 C 
ENDROOT
BRANCH   1   2
ATOM      2  C   UNL d   1      27.559 -15.005  -4.521  0.00  0.00     0.217 C 
ATOM      3  O   UNL d   1      27.391 -15.575  -5.583  0.00  0.00    -0.274 OA
ATOM      4  N   UNL d   1      26.665 -14.058  -4.102  0.00  0.00    -0.361 N 
ATOM      5  H   UNL d   1      25.912 -13.903  -4.767  0.00  0.00     0.162 HD
BRANCH   4   6
ATOM      6  C   UNL d   1      26.758 -13.331  -2.861  0.00  0.00     0.127 C 
BRANCH   6   7
ATOM      7  C   UNL d   1      25.905 -13.971  -1.804  0.00  0.00     0.056 C 
BRANCH   7   8
ATOM      8  C   UNL d   1      26.568 -14.995  -0.948  0.00  0.00    -0.048 A 
ATOM      9  C   UNL d   1      25.971 -16.169  -0.757  0.00  0.00    -0.004 A 
ATOM     10  C   UNL d   1      24.719 -16.644  -1.222  0.00  0.00     0.037 C 
ATOM     11  C   UNL d   1      26.823 -16.923   0.162  0.00  0.00     0.038 A 
ATOM     12  C   UNL d   1      24.230 -17.756  -0.668  0.00  0.00     0.035 C 
ATOM     13 CL   UNL d   1      22.589 -18.176  -0.952  0.00  0.00    -0.084 Cl
ATOM     14  C   UNL d   1      25.046 -18.565   0.229  0.00  0.00     0.026 C 
ATOM     15  C   UNL d   1      26.291 -18.220   0.634  0.00  0.00     0.031 C 
ATOM     16  N   UNL d   1      27.905 -16.290   0.423  0.00  0.00    -0.385 N 
ATOM     17  C   UNL d   1      27.853 -14.915  -0.173  0.00  0.00     0.155 A 
ATOM     18  H   UNL d   1      28.666 -16.696   0.967  0.00  0.00     0.160 HD
ENDBRANCH   7   8
ENDBRANCH   6   7
ENDBRANCH   4   6
ENDBRANCH   1   2
BRANCH   1  19
ATOM     19  C   UNL d   1      29.513 -16.470  -4.006  0.00  0.00     0.041 C 
BRANCH  19  20
ATOM     20  C   UNL d   1      30.078 -17.261  -2.828  0.00  0.00     0.135 C 
ATOM     21  N   UNL d   1      29.368 -17.100  -1.536  0.00  0.00    -0.245 NA
ATOM     22  N   UNL d   1      30.325 -17.177  -0.407  0.00  0.00    -0.237 NA
ATOM     23  H   UNL d   1      28.621 -17.795  -1.470  0.00  0.00     0.142 HD
ATOM     24  C   UNL d   1      31.702 -17.417  -0.902  0.00  0.00     0.226 C 
ATOM     25  H   UNL d   1      30.065 -17.882   0.282  0.00  0.00     0.142 HD
ATOM     26  S   UNL d   1      31.770 -16.706  -2.542  0.00  0.00    -0.117 SA
BRANCH  24  27
ATOM     27  C   UNL d   1      31.986 -18.939  -0.973  0.00  0.00     0.251 C 
ATOM     28  O   UNL d   1      32.975 -19.405  -1.542  0.00  0.00    -0.270 OA
ATOM     29  N   UNL d   1      30.998 -19.742  -0.411  0.00  0.00    -0.325 N 
ATOM     30  H   UNL d   1      30.104 -19.350  -0.146  0.00  0.00     0.169 HD
BRANCH  29  31
ATOM     31  C   UNL d   1      31.146 -21.144  -0.341  0.00  0.00     0.034 A 
ATOM     32  C   UNL d   1      31.327 -21.769   0.893  0.00  0.00     0.029 A 
ATOM     33  C   UNL d   1      31.521 -23.154   0.945  0.00  0.00     0.002 A 
ATOM     34  C   UNL d   1      31.507 -23.914  -0.226  0.00  0.00     0.000 A 
ATOM     35  C   UNL d   1      31.333 -23.289  -1.456  0.00  0.00     0.002 A 
ATOM     36  C   UNL d   1      31.154 -21.911  -1.511  0.00  0.00     0.029 A 
ENDBRANCH  29  31
ENDBRANCH  24  27
ENDBRANCH  19  20
ENDBRANCH   1  19
TORSDOF 8
ENDMDL
MODEL 5
REMARK VINA RESULT:    -7.720      4.588      7.748
REMARK INTER + INTRA:         -13.953
REMARK INTER:                 -10.106
REMARK INTRA:                  -3.847
REMARK CONF_INDEPENDENT:        2.386
REMARK UNBOUND:                -3.847
REMARK  8 active torsions:
REMARK  status: ('A' for Active; 'I' for Inactive)
REMARK    1  A    between atoms: C_2  and  C_3 
REMARK       I    between atoms: C_2  and  N_19 
REMARK    2  A    between atoms: C_3  and  C_4 
REMARK    3  A    between atoms: C_4  and  C_5 
REMARK    4  A    between atoms: C_8  and  C_9 
REMARK       I    between atoms: C_9  and  N_11 
REMARK    5  A    between atoms: N_11  and  C_12 
REMARK    6  A    between atoms: N_19  and  C_20 
REMARK    7  A    between atoms: C_20  and  C_21 
REMARK    8  A    between atoms: C_21  and  C_22 
ROOT
ATOM      1  C   UNL d   1      27.715 -13.329  -4.994  0.00  0.00     0.105 C 
ENDROOT
BRANCH   1   2
ATOM      2  C   UNL d   1      27.112 -14.670  -5.336  0.00  0.00     0.217 C 
ATOM      3  O   UNL d   1      27.702 -15.575  -5.896  0.00  0.00    -0.274 OA
ATOM      4  N   UNL d   1      25.810 -14.834  -4.952  0.00  0.00    -0.361 N 
ATOM      5  H   UNL d   1      25.436 -15.745  -5.201  0.00  0.00     0.162 HD
BRANCH   4   6
ATOM      6  C   UNL d   1      25.020 -13.837  -4.274  0.00  0.00     0.127 C 
BRANCH   6   7
ATOM      7  C   UNL d   1      24.508 -14.364  -2.964  0.00  0.00     0.056 C 
BRANCH   7   8
ATOM      8  C   UNL d   1      25.530 -14.897  -2.019  0.00  0.00    -0.048 A 
ATOM      9  C   UNL d   1      25.347 -16.094  -1.469  0.00  0.00    -0.004 A 
ATOM     10  C   UNL d   1      24.267 -17.003  -1.600  0.00  0.00     0.037 C 
ATOM     11  C   UNL d   1      26.469 -16.309  -0.557  0.00  0.00     0.038 A 
ATOM     12  C   UNL d   1      24.199 -18.018  -0.734  0.00  0.00     0.035 C 
ATOM     13 CL   UNL d   1      22.750 -18.936  -0.639  0.00  0.00    -0.084 Cl
ATOM     14  C   UNL d   1      25.302 -18.299   0.176  0.00  0.00     0.026 C 
ATOM     15  C   UNL d   1      26.410 -17.528   0.279  0.00  0.00     0.031 C 
ATOM     16  N   UNL d   1      27.321 -15.355  -0.630  0.00  0.00    -0.385 N 
ATOM     17  C   UNL d   1      26.791 -14.260  -1.506  0.00  0.00     0.155 A 
ATOM     18  H   UNL d   1      28.216 -15.375  -0.142  0.00  0.00     0.160 HD
ENDBRANCH   7   8
ENDBRANCH   6   7
ENDBRANCH   4   6
ENDBRANCH   1   2
BRANCH   1  19
ATOM     19  C   UNL d   1      28.838 -13.468  -3.991  0.00  0.00     0.041 C 
BRANCH  19  20
ATOM     20  C   UNL d   1      29.374 -14.896  -3.898  0.00  0.00     0.135 C 
ATOM     21  N   UNL d   1      28.510 -15.871  -3.190  0.00  0.00    -0.245 NA
ATOM     22  N   UNL d   1      29.336 -16.867  -2.469  0.00  0.00    -0.237 NA
ATOM     23  H   UNL d   1      27.866 -16.301  -3.860  0.00  0.00     0.142 HD
ATOM     24  C   UNL d   1      30.780 -16.608  -2.687  0.00  0.00     0.226 C 
ATOM     25  H   UNL d   1      29.104 -17.828  -2.719  0.00  0.00     0.142 HD
ATOM     26  S   UNL d   1      30.929 -14.850  -2.984  0.00  0.00    -0.117 SA
BRANCH  24  27
ATOM     27  C   UNL d   1      31.283 -17.397  -3.923  0.00  0.00     0.251 C 
ATOM     28  O   UNL d   1      32.447 -17.787  -4.035  0.00  0.00    -0.270 OA
ATOM     29  N   UNL d   1      30.338 -17.563  -4.931  0.00  0.00    -0.325 N 
ATOM     30  H   UNL d   1      29.465 -17.053  -4.908  0.00  0.00     0.169 HD
BRANCH  29  31
ATOM     31  C   UNL d   1      30.627 -18.317  -6.088  0.00  0.00     0.034 A 
ATOM     32  C   UNL d   1      30.444 -19.700  -6.088  0.00  0.00     0.029 A 
ATOM     33  C   UNL d   1      30.780 -20.443  -7.226  0.00  0.00     0.002 A 
ATOM     34  C   UNL d   1      31.270 -19.804  -8.367  0.00  0.00     0.000 A 
ATOM     35  C   UNL d   1      31.457 -18.426  -8.364  0.00  0.00     0.002 A 
ATOM     36  C   UNL d   1      31.137 -17.688  -7.230  0.00  0.00     0.029 A 
ENDBRANCH  29  31
ENDBRANCH  24  27
ENDBRANCH  19  20
ENDBRANCH   1  19
TORSDOF 8
ENDMDL
MODEL 6
REMARK VINA RESULT:    -7.473      5.130      7.657
REMARK INTER + INTRA:         -13.395
REMARK INTER:                  -9.860
REMARK INTRA:                  -3.536
REMARK CONF_INDEPENDENT:        2.386
REMARK UNBOUND:                -3.536
REMARK  8 active torsions:
REMARK  status: ('A' for Active; 'I' for Inactive)
REMARK    1  A    between atoms: C_2  and  C_3 
REMARK       I    between atoms: C_2  and  N_19 
REMARK    2  A    between atoms: C_3  and  C_4 
REMARK    3  A    between atoms: C_4  and  C_5 
REMARK    4  A    between atoms: C_8  and  C_9 
REMARK       I    between atoms: C_9  and  N_11 
REMARK    5  A    between atoms: N_11  and  C_12 
REMARK    6  A    between atoms: N_19  and  C_20 
REMARK    7  A    between atoms: C_20  and  C_21 
REMARK    8  A    between atoms: C_21  and  C_22 
ROOT
ATOM      1  C   UNL d   1      26.788 -15.655  -0.477  0.00  0.00     0.105 C 
ENDROOT
BRANCH   1   2
ATOM      2  C   UNL d   1      27.089 -17.062  -0.022  0.00  0.00     0.217 C 
ATOM      3  O   UNL d   1      26.257 -17.860   0.367  0.00  0.00    -0.274 OA
ATOM      4  N   UNL d   1      28.406 -17.423  -0.087  0.00  0.00    -0.361 N 
ATOM      5  H   UNL d   1      28.572 -18.374   0.230  0.00  0.00     0.162 HD
BRANCH   4   6
ATOM      6  C   UNL d   1      29.472 -16.566  -0.541  0.00  0.00     0.127 C 
BRANCH   6   7
ATOM      7  C   UNL d   1      29.969 -17.002  -1.890  0.00  0.00     0.056 C 
BRANCH   7   8
ATOM      8  C   UNL d   1      29.931 -15.979  -2.973  0.00  0.00    -0.048 A 
ATOM      9  C   UNL d   1      29.984 -16.374  -4.242  0.00  0.00    -0.004 A 
ATOM     10  C   UNL d   1      30.114 -17.675  -4.790  0.00  0.00     0.037 C 
ATOM     11  C   UNL d   1      29.990 -15.159  -5.055  0.00  0.00     0.038 A 
ATOM     12  C   UNL d   1      30.414 -17.778  -6.087  0.00  0.00     0.035 C 
ATOM     13 CL   UNL d   1      30.908 -19.301  -6.710  0.00  0.00    -0.084 Cl
ATOM     14  C   UNL d   1      30.403 -16.604  -6.952  0.00  0.00     0.026 C 
ATOM     15  C   UNL d   1      30.184 -15.344  -6.510  0.00  0.00     0.031 C 
ATOM     16  N   UNL d   1      29.846 -14.111  -4.332  0.00  0.00    -0.385 N 
ATOM     17  C   UNL d   1      29.888 -14.480  -2.880  0.00  0.00     0.155 A 
ATOM     18  H   UNL d   1      29.728 -13.179  -4.727  0.00  0.00     0.160 HD
ENDBRANCH   7   8
ENDBRANCH   6   7
ENDBRANCH   4   6
ENDBRANCH   1   2
BRANCH   1  19
ATOM     19  C   UNL d   1      25.469 -15.583  -1.213  0.00  0.00     0.041 C 
BRANCH  19  20
ATOM     20  C   UNL d   1      25.510 -14.634  -2.409  0.00  0.00     0.135 C 
ATOM     21  N   UNL d   1      24.262 -14.535  -3.205  0.00  0.00    -0.245 NA
ATOM     22  N   UNL d   1      24.578 -14.317  -4.637  0.00  0.00    -0.237 NA
ATOM     23  H   UNL d   1      23.668 -13.799  -2.814  0.00  0.00     0.142 HD
ATOM     24  C   UNL d   1      26.044 -14.238  -4.845  0.00  0.00     0.226 C 
ATOM     25  H   UNL d   1      24.117 -13.492  -5.020  0.00  0.00     0.142 HD
ATOM     26  S   UNL d   1      26.783 -15.220  -3.545  0.00  0.00    -0.117 SA
BRANCH  24  27
ATOM     27  C   UNL d   1      26.520 -12.768  -4.732  0.00  0.00     0.251 C 
ATOM     28  O   UNL d   1      27.696 -12.434  -4.899  0.00  0.00    -0.270 OA
ATOM     29  N   UNL d   1      25.533 -11.863  -4.352  0.00  0.00    -0.325 N 
ATOM     30  H   UNL d   1      24.638 -12.191  -4.014  0.00  0.00     0.169 HD
BRANCH  29  31
ATOM     31  C   UNL d   1      25.800 -10.480  -4.272  0.00  0.00     0.034 A 
ATOM     32  C   UNL d   1      26.283  -9.926  -3.086  0.00  0.00     0.029 A 
ATOM     33  C   UNL d   1      26.498  -8.546  -3.004  0.00  0.00     0.002 A 
ATOM     34  C   UNL d   1      26.258  -7.727  -4.109  0.00  0.00     0.000 A 
ATOM     35  C   UNL d   1      25.771  -8.279  -5.289  0.00  0.00     0.002 A 
ATOM     36  C   UNL d   1      25.544  -9.649  -5.368  0.00  0.00     0.029 A 
ENDBRANCH  29  31
ENDBRANCH  24  27
ENDBRANCH  19  20
ENDBRANCH   1  19
TORSDOF 8
ENDMDL
