MODEL 1
REMARK VINA RESULT:    -8.354      0.000      0.000
REMARK INTER + INTRA:          -9.847
REMARK INTER:                  -9.249
REMARK INTRA:                  -0.598
REMARK CONF_INDEPENDENT:        0.895
REMARK UNBOUND:                -0.598
REMARK  3 active torsions:
REMARK  status: ('A' for Active; 'I' for Inactive)
REMARK    1  A    between atoms: N_2  and  C_3 
REMARK    2  A    between atoms: C_8  and  C_9 
REMARK       I    between atoms: C_9  and  N_11 
REMARK    3  A    between atoms: N_11  and  C_12 
ROOT
ATOM      1  C   UNL d   1      23.534 -18.220  -0.979  0.00  0.00     0.258 C 
ATOM      2  O   UNL d   1      23.294 -18.854  -2.018  0.00  0.00    -0.267 OA
ATOM      3  N   UNL d   1      22.575 -17.884  -0.056  0.00  0.00    -0.323 N 
ATOM      4  H   UNL d   1      22.853 -17.160   0.607  0.00  0.00     0.169 HD
ENDROOT
BRANCH   1   5
ATOM      5  C   UNL d   1      24.933 -17.759  -0.724  0.00  0.00     0.058 A 
ATOM      6  C   UNL d   1      25.646 -18.513   0.238  0.00  0.00     0.019 A 
ATOM      7  C   UNL d   1      26.975 -18.243   0.547  0.00  0.00     0.001 A 
ATOM      8  C   UNL d   1      27.612 -17.190  -0.090  0.00  0.00     0.002 A 
ATOM      9  C   UNL d   1      26.904 -16.395  -1.011  0.00  0.00     0.030 A 
ATOM     10  C   UNL d   1      25.569 -16.692  -1.397  0.00  0.00     0.043 A 
BRANCH  10  11
ATOM     11  N   UNL d   1      24.991 -15.988  -2.461  0.00  0.00    -0.393 N 
ATOM     12  C   UNL d   1      25.734 -15.278  -3.505  0.00  0.00     0.146 C 
ATOM     13  H   UNL d   1      24.101 -16.376  -2.769  0.00  0.00     0.159 HD
ENDBRANCH  10  11
ENDBRANCH   1   5
BRANCH   3  14
ATOM     14  C   UNL d   1      21.401 -18.624   0.227  0.00  0.00     0.035 C 
ATOM     15  C   UNL d   1      20.533 -18.949  -0.822  0.00  0.00     0.031 C 
ATOM     16  C   UNL d   1      19.408 -19.747  -0.584  0.00  0.00     0.021 C 
ATOM     17  C   UNL d   1      19.171 -20.230   0.701  0.00  0.00     0.011 C 
ATOM     18 BR   UNL d   1      17.870 -21.574   0.976  0.00  0.00    -0.051 Br
ATOM     19  C   UNL d   1      19.937 -19.785   1.771  0.00  0.00     0.021 C 
ATOM     20  C   UNL d   1      21.031 -18.952   1.534  0.00  0.00     0.031 C 
ENDBRANCH   3  14
TORSDOF 3
ENDMDL
MODEL 2
REMARK VINA RESULT:    -7.779      1.403      2.496
REMARK INTER + INTRA:          -9.706
REMARK INTER:                  -8.674
REMARK INTRA:                  -1.032
REMARK CONF_INDEPENDENT:        0.895
REMARK UNBOUND:                -1.032
REMARK  3 active torsions:
REMARK  status: ('A' for Active; 'I' for Inactive)
REMARK    1  A    between atoms: N_2  and  C_3 
REMARK    2  A    between atoms: C_8  and  C_9 
REMARK       I    between atoms: C_9  and  N_11 
REMARK    3  A    between atoms: N_11  and  C_12 
ROOT
ATOM      1  C   UNL d   1      24.235 -17.779  -0.709  0.00  0.00     0.258 C 
ATOM      2  O   UNL d   1      24.633 -18.261   0.362  0.00  0.00    -0.267 OA
ATOM      3  N   UNL d   1      23.090 -18.188  -1.348  0.00  0.00    -0.323 N 
ATOM      4  H   UNL d   1      23.016 -17.898  -2.323  0.00  0.00     0.169 HD
ENDROOT
BRANCH   1   5
ATOM      5  C   UNL d   1      25.057 -16.719  -1.372  0.00  0.00     0.058 A 
ATOM      6  C   UNL d   1      24.314 -15.705  -2.022  0.00  0.00     0.019 A 
ATOM      7  C   UNL d   1      24.931 -14.622  -2.637  0.00  0.00     0.001 A 
ATOM      8  C   UNL d   1      26.315 -14.544  -2.633  0.00  0.00     0.002 A 
ATOM      9  C   UNL d   1      27.073 -15.571  -2.038  0.00  0.00     0.030 A 
ATOM     10  C   UNL d   1      26.468 -16.651  -1.341  0.00  0.00     0.043 A 
BRANCH  10  11
ATOM     11  N   UNL d   1      27.273 -17.527  -0.601  0.00  0.00    -0.393 N 
ATOM     12  C   UNL d   1      28.634 -17.238  -0.145  0.00  0.00     0.146 C 
ATOM     13  H   UNL d   1      26.745 -18.141   0.016  0.00  0.00     0.159 HD
ENDBRANCH  10  11
ENDBRANCH   1   5
BRANCH   3  14
ATOM     14  C   UNL d   1      21.928 -18.699  -0.720  0.00  0.00     0.035 C 
ATOM     15  C   UNL d   1      20.855 -19.117  -1.515  0.00  0.00     0.031 C 
ATOM     16  C   UNL d   1      19.727 -19.700  -0.926  0.00  0.00     0.021 C 
ATOM     17  C   UNL d   1      19.691 -19.878   0.455  0.00  0.00     0.011 C 
ATOM     18 BR   UNL d   1      18.349 -20.960   1.230  0.00  0.00    -0.051 Br
ATOM     19  C   UNL d   1      20.680 -19.326   1.260  0.00  0.00     0.021 C 
ATOM     20  C   UNL d   1      21.780 -18.704   0.669  0.00  0.00     0.031 C 
ENDBRANCH   3  14
TORSDOF 3
ENDMDL
MODEL 3
REMARK VINA RESULT:    -7.635      2.818      4.832
REMARK INTER + INTRA:          -9.552
REMARK INTER:                  -8.530
REMARK INTRA:                  -1.022
REMARK CONF_INDEPENDENT:        0.895
REMARK UNBOUND:                -1.022
REMARK  3 active torsions:
REMARK  status: ('A' for Active; 'I' for Inactive)
REMARK    1  A    between atoms: N_2  and  C_3 
REMARK    2  A    between atoms: C_8  and  C_9 
REMARK       I    between atoms: C_9  and  N_11 
REMARK    3  A    between atoms: N_11  and  C_12 
ROOT
ATOM      1  C   UNL d   1      25.210 -14.798  -3.172  0.00  0.00     0.258 C 
ATOM      2  O   UNL d   1      24.122 -14.260  -3.429  0.00  0.00    -0.267 OA
ATOM      3  N   UNL d   1      25.412 -15.629  -2.098  0.00  0.00    -0.323 N 
ATOM      4  H   UNL d   1      26.391 -15.794  -1.862  0.00  0.00     0.169 HD
ENDROOT
BRANCH   1   5
ATOM      5  C   UNL d   1      26.384 -14.504  -4.051  0.00  0.00     0.058 A 
ATOM      6  C   UNL d   1      27.296 -15.574  -4.209  0.00  0.00     0.019 A 
ATOM      7  C   UNL d   1      28.409 -15.476  -5.037  0.00  0.00     0.001 A 
ATOM      8  C   UNL d   1      28.643 -14.287  -5.710  0.00  0.00     0.002 A 
ATOM      9  C   UNL d   1      27.776 -13.193  -5.525  0.00  0.00     0.030 A 
ATOM     10  C   UNL d   1      26.594 -13.289  -4.741  0.00  0.00     0.043 A 
BRANCH  10  11
ATOM     11  N   UNL d   1      25.673 -12.234  -4.759  0.00  0.00    -0.393 N 
ATOM     12  C   UNL d   1      25.834 -10.987  -5.510  0.00  0.00     0.146 C 
ATOM     13  H   UNL d   1      24.707 -12.537  -4.650  0.00  0.00     0.159 HD
ENDBRANCH  10  11
ENDBRANCH   1   5
BRANCH   3  14
ATOM     14  C   UNL d   1      24.438 -16.469  -1.505  0.00  0.00     0.035 C 
ATOM     15  C   UNL d   1      23.165 -15.950  -1.241  0.00  0.00     0.031 C 
ATOM     16  C   UNL d   1      22.159 -16.779  -0.729  0.00  0.00     0.021 C 
ATOM     17  C   UNL d   1      22.431 -18.126  -0.504  0.00  0.00     0.011 C 
ATOM     18 BR   UNL d   1      21.014 -19.325  -0.145  0.00  0.00    -0.051 Br
ATOM     19  C   UNL d   1      23.729 -18.609  -0.614  0.00  0.00     0.021 C 
ATOM     20  C   UNL d   1      24.738 -17.766  -1.081  0.00  0.00     0.031 C 
ENDBRANCH   3  14
TORSDOF 3
ENDMDL
MODEL 4
REMARK VINA RESULT:    -7.391      2.503      4.460
REMARK INTER + INTRA:          -8.776
REMARK INTER:                  -8.286
REMARK INTRA:                  -0.490
REMARK CONF_INDEPENDENT:        0.895
REMARK UNBOUND:                -0.490
REMARK  3 active torsions:
REMARK  status: ('A' for Active; 'I' for Inactive)
REMARK    1  A    between atoms: N_2  and  C_3 
REMARK    2  A    between atoms: C_8  and  C_9 
REMARK       I    between atoms: C_9  and  N_11 
REMARK    3  A    between atoms: N_11  and  C_12 
ROOT
ATOM      1  C   UNL d   1      25.588 -15.479  -2.799  0.00  0.00     0.258 C 
ATOM      2  O   UNL d   1      24.594 -14.826  -3.150  0.00  0.00    -0.267 OA
ATOM      3  N   UNL d   1      25.617 -16.279  -1.683  0.00  0.00    -0.323 N 
ATOM      4  H   UNL d   1      26.550 -16.550  -1.373  0.00  0.00     0.169 HD
ENDROOT
BRANCH   1   5
ATOM      5  C   UNL d   1      26.844 -15.369  -3.605  0.00  0.00     0.058 A 
ATOM      6  C   UNL d   1      26.655 -15.018  -4.962  0.00  0.00     0.019 A 
ATOM      7  C   UNL d   1      27.727 -14.825  -5.827  0.00  0.00     0.001 A 
ATOM      8  C   UNL d   1      29.016 -15.002  -5.351  0.00  0.00     0.002 A 
ATOM      9  C   UNL d   1      29.222 -15.403  -4.018  0.00  0.00     0.030 A 
ATOM     10  C   UNL d   1      28.151 -15.538  -3.094  0.00  0.00     0.043 A 
BRANCH  10  11
ATOM     11  N   UNL d   1      28.436 -15.742  -1.738  0.00  0.00    -0.393 N 
ATOM     12  C   UNL d   1      28.877 -17.009  -1.150  0.00  0.00     0.146 C 
ATOM     13  H   UNL d   1      28.800 -14.913  -1.270  0.00  0.00     0.159 HD
ENDBRANCH  10  11
ENDBRANCH   1   5
BRANCH   3  14
ATOM     14  C   UNL d   1      24.511 -16.967  -1.128  0.00  0.00     0.035 C 
ATOM     15  C   UNL d   1      23.284 -16.301  -1.015  0.00  0.00     0.031 C 
ATOM     16  C   UNL d   1      22.155 -16.981  -0.545  0.00  0.00     0.021 C 
ATOM     17  C   UNL d   1      22.257 -18.329  -0.209  0.00  0.00     0.011 C 
ATOM     18 BR   UNL d   1      20.693 -19.345   0.096  0.00  0.00    -0.051 Br
ATOM     19  C   UNL d   1      23.500 -18.951  -0.170  0.00  0.00     0.021 C 
ATOM     20  C   UNL d   1      24.631 -18.253  -0.596  0.00  0.00     0.031 C 
ENDBRANCH   3  14
TORSDOF 3
ENDMDL
MODEL 5
REMARK VINA RESULT:    -7.051      2.699      3.984
REMARK INTER + INTRA:          -8.835
REMARK INTER:                  -7.946
REMARK INTRA:                  -0.889
REMARK CONF_INDEPENDENT:        0.895
REMARK UNBOUND:                -0.889
REMARK  3 active torsions:
REMARK  status: ('A' for Active; 'I' for Inactive)
REMARK    1  A    between atoms: N_2  and  C_3 
REMARK    2  A    between atoms: C_8  and  C_9 
REMARK       I    between atoms: C_9  and  N_11 
REMARK    3  A    between atoms: N_11  and  C_12 
ROOT
ATOM      1  C   UNL d   1      26.744 -17.308  -0.287  0.00  0.00     0.258 C 
ATOM      2  O   UNL d   1      26.943 -18.516  -0.088  0.00  0.00    -0.267 OA
ATOM      3  N   UNL d   1      25.586 -16.808  -0.830  0.00  0.00    -0.323 N 
ATOM      4  H   UNL d   1      25.651 -15.848  -1.170  0.00  0.00     0.169 HD
ENDROOT
BRANCH   1   5
ATOM      5  C   UNL d   1      27.831 -16.335   0.042  0.00  0.00     0.058 A 
ATOM      6  C   UNL d   1      27.391 -15.111   0.597  0.00  0.00     0.019 A 
ATOM      7  C   UNL d   1      28.283 -14.125   1.005  0.00  0.00     0.001 A 
ATOM      8  C   UNL d   1      29.642 -14.340   0.843  0.00  0.00     0.002 A 
ATOM      9  C   UNL d   1      30.098 -15.529   0.244  0.00  0.00     0.030 A 
ATOM     10  C   UNL d   1      29.214 -16.582  -0.117  0.00  0.00     0.043 A 
BRANCH  10  11
ATOM     11  N   UNL d   1      29.743 -17.814  -0.520  0.00  0.00    -0.393 N 
ATOM     12  C   UNL d   1      31.157 -18.073  -0.799  0.00  0.00     0.146 C 
ATOM     13  H   UNL d   1      29.235 -18.615  -0.150  0.00  0.00     0.159 HD
ENDBRANCH  10  11
ENDBRANCH   1   5
BRANCH   3  14
ATOM     14  C   UNL d   1      24.295 -17.376  -0.697  0.00  0.00     0.035 C 
ATOM     15  C   UNL d   1      23.172 -16.576  -0.936  0.00  0.00     0.031 C 
ATOM     16  C   UNL d   1      21.889 -17.131  -0.891  0.00  0.00     0.021 C 
ATOM     17  C   UNL d   1      21.740 -18.491  -0.624  0.00  0.00     0.011 C 
ATOM     18 BR   UNL d   1      20.066 -19.325  -0.894  0.00  0.00    -0.051 Br
ATOM     19  C   UNL d   1      22.834 -19.253  -0.233  0.00  0.00     0.021 C 
ATOM     20  C   UNL d   1      24.107 -18.682  -0.235  0.00  0.00     0.031 C 
ENDBRANCH   3  14
TORSDOF 3
ENDMDL
MODEL 6
REMARK VINA RESULT:    -6.933     10.317     12.996
REMARK INTER + INTRA:          -8.285
REMARK INTER:                  -7.828
REMARK INTRA:                  -0.457
REMARK CONF_INDEPENDENT:        0.895
REMARK UNBOUND:                -0.457
REMARK  3 active torsions:
REMARK  status: ('A' for Active; 'I' for Inactive)
REMARK    1  A    between atoms: N_2  and  C_3 
REMARK    2  A    between atoms: C_8  and  C_9 
REMARK       I    between atoms: C_9  and  N_11 
REMARK    3  A    between atoms: N_11  and  C_12 
ROOT
ATOM      1  C   UNL d   1      31.737 -21.391   5.604  0.00  0.00     0.258 C 
ATOM      2  O   UNL d   1      31.045 -21.214   6.617  0.00  0.00    -0.267 OA
ATOM      3  N   UNL d   1      33.111 -21.398   5.613  0.00  0.00    -0.323 N 
ATOM      4  H   UNL d   1      33.547 -21.299   4.697  0.00  0.00     0.169 HD
ENDROOT
BRANCH   1   5
ATOM      5  C   UNL d   1      31.053 -21.570   4.286  0.00  0.00     0.058 A 
ATOM      6  C   UNL d   1      29.693 -21.950   4.364  0.00  0.00     0.019 A 
ATOM      7  C   UNL d   1      28.905 -22.104   3.229  0.00  0.00     0.001 A 
ATOM      8  C   UNL d   1      29.476 -21.900   1.982  0.00  0.00     0.002 A 
ATOM      9  C   UNL d   1      30.842 -21.574   1.881  0.00  0.00     0.030 A 
ATOM     10  C   UNL d   1      31.651 -21.341   3.026  0.00  0.00     0.043 A 
BRANCH  10  11
ATOM     11  N   UNL d   1      32.943 -20.825   2.860  0.00  0.00    -0.393 N 
ATOM     12  C   UNL d   1      33.358 -19.465   3.209  0.00  0.00     0.146 C 
ATOM     13  H   UNL d   1      33.676 -21.525   2.956  0.00  0.00     0.159 HD
ENDBRANCH  10  11
ENDBRANCH   1   5
BRANCH   3  14
ATOM     14  C   UNL d   1      33.930 -21.805   6.695  0.00  0.00     0.035 C 
ATOM     15  C   UNL d   1      34.587 -20.830   7.454  0.00  0.00     0.031 C 
ATOM     16  C   UNL d   1      35.337 -21.199   8.576  0.00  0.00     0.021 C 
ATOM     17  C   UNL d   1      35.409 -22.541   8.942  0.00  0.00     0.011 C 
ATOM     18 BR   UNL d   1      36.120 -23.022  10.625  0.00  0.00    -0.051 Br
ATOM     19  C   UNL d   1      34.892 -23.524   8.107  0.00  0.00     0.021 C 
ATOM     20  C   UNL d   1      34.184 -23.153   6.963  0.00  0.00     0.031 C 
ENDBRANCH   3  14
TORSDOF 3
ENDMDL
MODEL 7
REMARK VINA RESULT:    -6.906      2.577      3.749
REMARK INTER + INTRA:          -8.815
REMARK INTER:                  -7.801
REMARK INTRA:                  -1.014
REMARK CONF_INDEPENDENT:        0.895
REMARK UNBOUND:                -1.014
REMARK  3 active torsions:
REMARK  status: ('A' for Active; 'I' for Inactive)
REMARK    1  A    between atoms: N_2  and  C_3 
REMARK    2  A    between atoms: C_8  and  C_9 
REMARK       I    between atoms: C_9  and  N_11 
REMARK    3  A    between atoms: N_11  and  C_12 
ROOT
ATOM      1  C   UNL d   1      26.039 -15.980  -2.345  0.00  0.00     0.258 C 
ATOM      2  O   UNL d   1      25.262 -15.468  -3.165  0.00  0.00    -0.267 OA
ATOM      3  N   UNL d   1      25.630 -16.548  -1.164  0.00  0.00    -0.323 N 
ATOM      4  H   UNL d   1      26.372 -16.697  -0.480  0.00  0.00     0.169 HD
ENDROOT
BRANCH   1   5
ATOM      5  C   UNL d   1      27.508 -15.950  -2.628  0.00  0.00     0.058 A 
ATOM      6  C   UNL d   1      28.318 -16.571  -1.648  0.00  0.00     0.019 A 
ATOM      7  C   UNL d   1      29.697 -16.673  -1.792  0.00  0.00     0.001 A 
ATOM      8  C   UNL d   1      30.298 -16.131  -2.918  0.00  0.00     0.002 A 
ATOM      9  C   UNL d   1      29.515 -15.462  -3.877  0.00  0.00     0.030 A 
ATOM     10  C   UNL d   1      28.097 -15.405  -3.791  0.00  0.00     0.043 A 
BRANCH  10  11
ATOM     11  N   UNL d   1      27.364 -14.904  -4.873  0.00  0.00    -0.393 N 
ATOM     12  C   UNL d   1      27.937 -14.453  -6.143  0.00  0.00     0.146 C 
ATOM     13  H   UNL d   1      26.431 -15.306  -4.953  0.00  0.00     0.159 HD
ENDBRANCH  10  11
ENDBRANCH   1   5
BRANCH   3  14
ATOM     14  C   UNL d   1      24.385 -17.182  -0.936  0.00  0.00     0.035 C 
ATOM     15  C   UNL d   1      23.210 -16.428  -1.035  0.00  0.00     0.031 C 
ATOM     16  C   UNL d   1      21.962 -17.046  -0.895  0.00  0.00     0.021 C 
ATOM     17  C   UNL d   1      21.899 -18.420  -0.676  0.00  0.00     0.011 C 
ATOM     18 BR   UNL d   1      20.245 -19.323  -0.825  0.00  0.00    -0.051 Br
ATOM     19  C   UNL d   1      23.058 -19.145  -0.422  0.00  0.00     0.021 C 
ATOM     20  C   UNL d   1      24.298 -18.513  -0.517  0.00  0.00     0.031 C 
ENDBRANCH   3  14
TORSDOF 3
ENDMDL
MODEL 8
REMARK VINA RESULT:    -6.810      1.168      2.566
REMARK INTER + INTRA:          -8.231
REMARK INTER:                  -7.705
REMARK INTRA:                  -0.525
REMARK CONF_INDEPENDENT:        0.895
REMARK UNBOUND:                -0.525
REMARK  3 active torsions:
REMARK  status: ('A' for Active; 'I' for Inactive)
REMARK    1  A    between atoms: N_2  and  C_3 
REMARK    2  A    between atoms: C_8  and  C_9 
REMARK       I    between atoms: C_9  and  N_11 
REMARK    3  A    between atoms: N_11  and  C_12 
ROOT
ATOM      1  C   UNL d   1      23.428 -17.770  -1.412  0.00  0.00     0.258 C 
ATOM      2  O   UNL d   1      23.361 -18.559  -2.366  0.00  0.00    -0.267 OA
ATOM      3  N   UNL d   1      22.412 -17.584  -0.507  0.00  0.00    -0.323 N 
ATOM      4  H   UNL d   1      22.494 -16.741   0.063  0.00  0.00     0.169 HD
ENDROOT
BRANCH   1   5
ATOM      5  C   UNL d   1      24.663 -16.942  -1.247  0.00  0.00     0.058 A 
ATOM      6  C   UNL d   1      24.745 -15.814  -2.096  0.00  0.00     0.019 A 
ATOM      7  C   UNL d   1      25.804 -14.916  -2.027  0.00  0.00     0.001 A 
ATOM      8  C   UNL d   1      26.821 -15.146  -1.113  0.00  0.00     0.002 A 
ATOM      9  C   UNL d   1      26.784 -16.291  -0.296  0.00  0.00     0.030 A 
ATOM     10  C   UNL d   1      25.680 -17.186  -0.297  0.00  0.00     0.043 A 
BRANCH  10  11
ATOM     11  N   UNL d   1      25.611 -18.190   0.677  0.00  0.00    -0.393 N 
ATOM     12  C   UNL d   1      26.765 -18.866   1.275  0.00  0.00     0.146 C 
ATOM     13  H   UNL d   1      24.810 -18.099   1.299  0.00  0.00     0.159 HD
ENDBRANCH  10  11
ENDBRANCH   1   5
BRANCH   3  14
ATOM     14  C   UNL d   1      21.465 -18.559  -0.111  0.00  0.00     0.035 C 
ATOM     15  C   UNL d   1      21.404 -18.941   1.234  0.00  0.00     0.031 C 
ATOM     16  C   UNL d   1      20.425 -19.843   1.666  0.00  0.00     0.021 C 
ATOM     17  C   UNL d   1      19.501 -20.342   0.751  0.00  0.00     0.011 C 
ATOM     18 BR   UNL d   1      17.979 -21.279   1.365  0.00  0.00    -0.051 Br
ATOM     19  C   UNL d   1      19.652 -20.090  -0.607  0.00  0.00     0.021 C 
ATOM     20  C   UNL d   1      20.660 -19.226  -1.038  0.00  0.00     0.031 C 
ENDBRANCH   3  14
TORSDOF 3
ENDMDL
MODEL 9
REMARK VINA RESULT:    -6.390      2.905      4.302
REMARK INTER + INTRA:          -8.306
REMARK INTER:                  -7.285
REMARK INTRA:                  -1.021
REMARK CONF_INDEPENDENT:        0.895
REMARK UNBOUND:                -1.021
REMARK  3 active torsions:
REMARK  status: ('A' for Active; 'I' for Inactive)
REMARK    1  A    between atoms: N_2  and  C_3 
REMARK    2  A    between atoms: C_8  and  C_9 
REMARK       I    between atoms: C_9  and  N_11 
REMARK    3  A    between atoms: N_11  and  C_12 
ROOT
ATOM      1  C   UNL d   1      26.668 -16.492  -0.213  0.00  0.00     0.258 C 
ATOM      2  O   UNL d   1      26.829 -17.141   0.831  0.00  0.00    -0.267 OA
ATOM      3  N   UNL d   1      25.704 -16.780  -1.147  0.00  0.00    -0.323 N 
ATOM      4  H   UNL d   1      25.843 -16.341  -2.057  0.00  0.00     0.169 HD
ENDROOT
BRANCH   1   5
ATOM      5  C   UNL d   1      27.593 -15.352  -0.502  0.00  0.00     0.058 A 
ATOM      6  C   UNL d   1      27.582 -14.898  -1.842  0.00  0.00     0.019 A 
ATOM      7  C   UNL d   1      28.346 -13.812  -2.257  0.00  0.00     0.001 A 
ATOM      8  C   UNL d   1      29.158 -13.171  -1.335  0.00  0.00     0.002 A 
ATOM      9  C   UNL d   1      29.224 -13.641  -0.010  0.00  0.00     0.030 A 
ATOM     10  C   UNL d   1      28.402 -14.702   0.457  0.00  0.00     0.043 A 
BRANCH  10  11
ATOM     11  N   UNL d   1      28.366 -14.990   1.828  0.00  0.00    -0.393 N 
ATOM     12  C   UNL d   1      27.805 -14.113   2.858  0.00  0.00     0.146 C 
ATOM     13  H   UNL d   1      28.285 -15.984   2.033  0.00  0.00     0.159 HD
ENDBRANCH  10  11
ENDBRANCH   1   5
BRANCH   3  14
ATOM     14  C   UNL d   1      24.443 -17.368  -0.882  0.00  0.00     0.035 C 
ATOM     15  C   UNL d   1      23.301 -16.559  -0.895  0.00  0.00     0.031 C 
ATOM     16  C   UNL d   1      22.034 -17.126  -0.716  0.00  0.00     0.021 C 
ATOM     17  C   UNL d   1      21.918 -18.504  -0.544  0.00  0.00     0.011 C 
ATOM     18 BR   UNL d   1      20.220 -19.327  -0.645  0.00  0.00    -0.051 Br
ATOM     19  C   UNL d   1      23.053 -19.288  -0.375  0.00  0.00     0.021 C 
ATOM     20  C   UNL d   1      24.315 -18.708  -0.508  0.00  0.00     0.031 C 
ENDBRANCH   3  14
TORSDOF 3
ENDMDL
