MODEL 1
REMARK VINA RESULT:   -29.591      0.000      0.000
REMARK INTER + INTRA:         -33.415
REMARK INTER:                 -32.275
REMARK INTRA:                  -1.139
REMARK CONF_INDEPENDENT:        2.685
REMARK UNBOUND:                -1.139
REMARK  9 active torsions:
REMARK  status: ('A' for Active; 'I' for Inactive)
REMARK       I    between atoms: C_2  and  N_3 
REMARK    1  A    between atoms: C_2  and  C_26 
REMARK    2  A    between atoms: N_3  and  N_4 
REMARK    3  A    between atoms: N_4  and  C_5 
REMARK    4  A    between atoms: C_5  and  N_7 
REMARK       I    between atoms: N_7  and  C_8 
REMARK    5  A    between atoms: C_8  and  C_10 
REMARK    6  A    between atoms: C_13  and  O_14 
REMARK    7  A    between atoms: O_14  and  C_15 
REMARK    8  A    between atoms: C_15  and  C_16 
REMARK    9  A    between atoms: C_16  and  C_17 
ROOT
ATOM      1  N   UNL d   1      27.340 -15.745   0.212  0.00  0.00    -0.298 N 
ATOM      2  C   UNL d   1      27.131 -14.364   0.439  0.00  0.00     0.257 C 
ATOM      3  O   UNL d   1      26.570 -13.596  -0.345  0.00  0.00    -0.267 OA
ATOM      4  H   UNL d   1      27.760 -16.261   0.972  0.00  0.00     0.171 HD
ENDROOT
BRANCH   2   5
ATOM      5  C   UNL d   1      27.550 -13.714   1.716  0.00  0.00     0.033 A 
ATOM      6  C   UNL d   1      28.513 -14.218   2.581  0.00  0.00     0.020 A 
ATOM      7  C   UNL d   1      28.917 -13.453   3.699  0.00  0.00     0.039 A 
ATOM      8  C   UNL d   1      28.388 -12.167   3.969  0.00  0.00     0.086 A 
ATOM      9  C   UNL d   1      27.444 -11.651   3.064  0.00  0.00     0.045 A 
ATOM     10 BR   UNL d   1      26.554  -9.956   3.097  0.00  0.00    -0.048 Br
ATOM     11  C   UNL d   1      27.053 -12.422   1.956  0.00  0.00     0.039 A 
BRANCH   8  12
ATOM     12  O   UNL d   1      28.916 -11.606   5.114  0.00  0.00    -0.349 OA
BRANCH  12  13
ATOM     13  C   UNL d   1      29.005 -12.457   6.255  0.00  0.00     0.180 C 
BRANCH  13  14
ATOM     14  C   UNL d   1      28.892 -11.716   7.578  0.00  0.00     0.065 C 
BRANCH  14  15
ATOM     15  C   UNL d   1      28.797 -12.672   8.750  0.00  0.00    -0.056 A 
ATOM     16  C   UNL d   1      28.896 -14.054   8.551  0.00  0.00     0.007 A 
ATOM     17  C   UNL d   1      28.551 -14.935   9.578  0.00  0.00     0.001 A 
ATOM     18  C   UNL d   1      28.211 -14.449  10.839  0.00  0.00     0.000 A 
ATOM     19  C   UNL d   1      28.203 -13.078  11.076  0.00  0.00     0.001 A 
ATOM     20  C   UNL d   1      28.489 -12.195  10.036  0.00  0.00     0.007 A 
ENDBRANCH  14  15
ENDBRANCH  13  14
ENDBRANCH  12  13
ENDBRANCH   8  12
ENDBRANCH   2   5
BRANCH   1  21
ATOM     21  C   UNL d   1      26.933 -16.474  -0.934  0.00  0.00     0.193 C 
ATOM     22  S   UNL d   1      27.061 -15.923  -2.528  0.00  0.00    -0.039 SA
BRANCH  21  23
ATOM     23  N   UNL d   1      26.395 -17.755  -0.693  0.00  0.00    -0.273 N 
ATOM     24  H   UNL d   1      26.904 -18.568  -0.348  0.00  0.00     0.189 HD
BRANCH  23  25
ATOM     25  N   UNL d   1      24.977 -17.986  -0.964  0.00  0.00    -0.264 N 
ATOM     26  C   UNL d   1      24.080 -18.370   0.022  0.00  0.00     0.270 C 
ATOM     27  O   UNL d   1      24.418 -18.571   1.191  0.00  0.00    -0.266 OA
ATOM     28  H   UNL d   1      24.671 -17.706  -1.898  0.00  0.00     0.190 HD
BRANCH  26  29
ATOM     29  C   UNL d   1      22.632 -18.520  -0.375  0.00  0.00     0.036 A 
ATOM     30  C   UNL d   1      21.948 -17.433  -0.936  0.00  0.00     0.036 A 
ATOM     31  C   UNL d   1      20.607 -17.581  -1.270  0.00  0.00     0.117 A 
ATOM     32  N   UNL d   1      19.906 -18.713  -1.058  0.00  0.00    -0.273 NA
ATOM     33  C   UNL d   1      20.570 -19.740  -0.487  0.00  0.00     0.117 A 
ATOM     34  C   UNL d   1      21.917 -19.699  -0.138  0.00  0.00     0.036 A 
ENDBRANCH  26  29
ENDBRANCH  23  25
ENDBRANCH  21  23
ENDBRANCH   1  21
TORSDOF 9
ENDMDL
MODEL 2
REMARK VINA RESULT:   -29.351      1.488      1.880
REMARK INTER + INTRA:         -33.842
REMARK INTER:                 -32.035
REMARK INTRA:                  -1.806
REMARK CONF_INDEPENDENT:        2.685
REMARK UNBOUND:                -1.806
REMARK  9 active torsions:
REMARK  status: ('A' for Active; 'I' for Inactive)
REMARK       I    between atoms: C_2  and  N_3 
REMARK    1  A    between atoms: C_2  and  C_26 
REMARK    2  A    between atoms: N_3  and  N_4 
REMARK    3  A    between atoms: N_4  and  C_5 
REMARK    4  A    between atoms: C_5  and  N_7 
REMARK       I    between atoms: N_7  and  C_8 
REMARK    5  A    between atoms: C_8  and  C_10 
REMARK    6  A    between atoms: C_13  and  O_14 
REMARK    7  A    between atoms: O_14  and  C_15 
REMARK    8  A    between atoms: C_15  and  C_16 
REMARK    9  A    between atoms: C_16  and  C_17 
ROOT
ATOM      1  N   UNL d   1      26.637 -14.367  -0.207  0.00  0.00    -0.298 N 
ATOM      2  C   UNL d   1      27.340 -14.833   0.929  0.00  0.00     0.257 C 
ATOM      3  O   UNL d   1      27.635 -16.010   1.145  0.00  0.00    -0.267 OA
ATOM      4  H   UNL d   1      26.521 -13.366  -0.278  0.00  0.00     0.171 HD
ENDROOT
BRANCH   2   5
ATOM      5  C   UNL d   1      27.840 -13.891   1.974  0.00  0.00     0.033 A 
ATOM      6  C   UNL d   1      27.851 -12.507   1.851  0.00  0.00     0.020 A 
ATOM      7  C   UNL d   1      28.231 -11.711   2.956  0.00  0.00     0.039 A 
ATOM      8  C   UNL d   1      28.589 -12.271   4.208  0.00  0.00     0.086 A 
ATOM      9  C   UNL d   1      28.534 -13.669   4.331  0.00  0.00     0.045 A 
ATOM     10 BR   UNL d   1      28.914 -14.753   5.863  0.00  0.00    -0.048 Br
ATOM     11  C   UNL d   1      28.153 -14.448   3.225  0.00  0.00     0.039 A 
BRANCH   8  12
ATOM     12  O   UNL d   1      28.933 -11.311   5.138  0.00  0.00    -0.349 OA
BRANCH  12  13
ATOM     13  C   UNL d   1      28.328 -11.426   6.423  0.00  0.00     0.180 C 
BRANCH  13  14
ATOM     14  C   UNL d   1      29.272 -11.112   7.572  0.00  0.00     0.065 C 
BRANCH  14  15
ATOM     15  C   UNL d   1      29.170 -12.141   8.680  0.00  0.00    -0.056 A 
ATOM     16  C   UNL d   1      30.026 -13.249   8.704  0.00  0.00     0.007 A 
ATOM     17  C   UNL d   1      29.764 -14.317   9.563  0.00  0.00     0.001 A 
ATOM     18  C   UNL d   1      28.715 -14.244  10.479  0.00  0.00     0.000 A 
ATOM     19  C   UNL d   1      27.917 -13.106  10.531  0.00  0.00     0.001 A 
ATOM     20  C   UNL d   1      28.140 -12.063   9.633  0.00  0.00     0.007 A 
ENDBRANCH  14  15
ENDBRANCH  13  14
ENDBRANCH  12  13
ENDBRANCH   8  12
ENDBRANCH   2   5
BRANCH   1  21
ATOM     21  C   UNL d   1      26.170 -15.162  -1.284  0.00  0.00     0.193 C 
ATOM     22  S   UNL d   1      25.943 -14.613  -2.867  0.00  0.00    -0.039 SA
BRANCH  21  23
ATOM     23  N   UNL d   1      25.896 -16.512  -0.982  0.00  0.00    -0.273 N 
ATOM     24  H   UNL d   1      26.572 -17.213  -0.681  0.00  0.00     0.189 HD
BRANCH  23  25
ATOM     25  N   UNL d   1      24.523 -16.997  -1.111  0.00  0.00    -0.264 N 
ATOM     26  C   UNL d   1      24.005 -18.001  -0.304  0.00  0.00     0.270 C 
ATOM     27  O   UNL d   1      24.672 -18.574   0.560  0.00  0.00    -0.266 OA
ATOM     28  H   UNL d   1      23.934 -16.447  -1.739  0.00  0.00     0.190 HD
BRANCH  26  29
ATOM     29  C   UNL d   1      22.555 -18.371  -0.500  0.00  0.00     0.036 A 
ATOM     30  C   UNL d   1      22.115 -19.660  -0.166  0.00  0.00     0.036 A 
ATOM     31  C   UNL d   1      20.782 -19.992  -0.379  0.00  0.00     0.117 A 
ATOM     32  N   UNL d   1      19.881 -19.149  -0.923  0.00  0.00    -0.273 NA
ATOM     33  C   UNL d   1      20.328 -17.924  -1.269  0.00  0.00     0.117 A 
ATOM     34  C   UNL d   1      21.636 -17.488  -1.074  0.00  0.00     0.036 A 
ENDBRANCH  26  29
ENDBRANCH  23  25
ENDBRANCH  21  23
ENDBRANCH   1  21
TORSDOF 9
ENDMDL
MODEL 3
REMARK VINA RESULT:   -29.196      1.569      1.956
REMARK INTER + INTRA:         -32.981
REMARK INTER:                 -31.881
REMARK INTRA:                  -1.100
REMARK CONF_INDEPENDENT:        2.685
REMARK UNBOUND:                -1.100
REMARK  9 active torsions:
REMARK  status: ('A' for Active; 'I' for Inactive)
REMARK       I    between atoms: C_2  and  N_3 
REMARK    1  A    between atoms: C_2  and  C_26 
REMARK    2  A    between atoms: N_3  and  N_4 
REMARK    3  A    between atoms: N_4  and  C_5 
REMARK    4  A    between atoms: C_5  and  N_7 
REMARK       I    between atoms: N_7  and  C_8 
REMARK    5  A    between atoms: C_8  and  C_10 
REMARK    6  A    between atoms: C_13  and  O_14 
REMARK    7  A    between atoms: O_14  and  C_15 
REMARK    8  A    between atoms: C_15  and  C_16 
REMARK    9  A    between atoms: C_16  and  C_17 
ROOT
ATOM      1  N   UNL d   1      27.256 -15.488   0.106  0.00  0.00    -0.298 N 
ATOM      2  C   UNL d   1      27.098 -14.240   0.753  0.00  0.00     0.257 C 
ATOM      3  O   UNL d   1      26.289 -13.370   0.424  0.00  0.00    -0.267 OA
ATOM      4  H   UNL d   1      27.919 -16.125   0.526  0.00  0.00     0.171 HD
ENDROOT
BRANCH   2   5
ATOM      5  C   UNL d   1      27.901 -13.884   1.960  0.00  0.00     0.033 A 
ATOM      6  C   UNL d   1      27.379 -13.328   3.122  0.00  0.00     0.020 A 
ATOM      7  C   UNL d   1      28.216 -13.150   4.248  0.00  0.00     0.039 A 
ATOM      8  C   UNL d   1      29.580 -13.534   4.248  0.00  0.00     0.086 A 
ATOM      9  C   UNL d   1      30.085 -14.132   3.081  0.00  0.00     0.045 A 
ATOM     10 BR   UNL d   1      31.849 -14.797   2.742  0.00  0.00    -0.048 Br
ATOM     11  C   UNL d   1      29.242 -14.306   1.970  0.00  0.00     0.039 A 
BRANCH   8  12
ATOM     12  O   UNL d   1      30.207 -13.259   5.446  0.00  0.00    -0.349 OA
BRANCH  12  13
ATOM     13  C   UNL d   1      29.491 -13.598   6.631  0.00  0.00     0.180 C 
BRANCH  13  14
ATOM     14  C   UNL d   1      30.128 -13.061   7.903  0.00  0.00     0.065 C 
BRANCH  14  15
ATOM     15  C   UNL d   1      29.259 -13.316   9.118  0.00  0.00    -0.056 A 
ATOM     16  C   UNL d   1      28.660 -12.250   9.799  0.00  0.00     0.007 A 
ATOM     17  C   UNL d   1      28.083 -12.458  11.054  0.00  0.00     0.001 A 
ATOM     18  C   UNL d   1      28.001 -13.742  11.588  0.00  0.00     0.000 A 
ATOM     19  C   UNL d   1      28.507 -14.824  10.874  0.00  0.00     0.001 A 
ATOM     20  C   UNL d   1      29.137 -14.611   9.649  0.00  0.00     0.007 A 
ENDBRANCH  14  15
ENDBRANCH  13  14
ENDBRANCH  12  13
ENDBRANCH   8  12
ENDBRANCH   2   5
BRANCH   1  21
ATOM     21  C   UNL d   1      26.510 -15.952  -1.007  0.00  0.00     0.193 C 
ATOM     22  S   UNL d   1      26.060 -15.004  -2.334  0.00  0.00    -0.039 SA
BRANCH  21  23
ATOM     23  N   UNL d   1      26.143 -17.312  -0.982  0.00  0.00    -0.273 N 
ATOM     24  H   UNL d   1      26.770 -18.106  -0.856  0.00  0.00     0.189 HD
BRANCH  23  25
ATOM     25  N   UNL d   1      24.735 -17.665  -1.161  0.00  0.00    -0.264 N 
ATOM     26  C   UNL d   1      23.973 -18.234  -0.151  0.00  0.00     0.270 C 
ATOM     27  O   UNL d   1      24.432 -18.509   0.960  0.00  0.00    -0.266 OA
ATOM     28  H   UNL d   1      24.320 -17.331  -2.032  0.00  0.00     0.190 HD
BRANCH  26  29
ATOM     29  C   UNL d   1      22.515 -18.498  -0.445  0.00  0.00     0.036 A 
ATOM     30  C   UNL d   1      21.732 -17.495  -1.033  0.00  0.00     0.036 A 
ATOM     31  C   UNL d   1      20.385 -17.746  -1.270  0.00  0.00     0.117 A 
ATOM     32  N   UNL d   1      19.771 -18.899  -0.938  0.00  0.00    -0.273 NA
ATOM     33  C   UNL d   1      20.532 -19.842  -0.342  0.00  0.00     0.117 A 
ATOM     34  C   UNL d   1      21.892 -19.697  -0.084  0.00  0.00     0.036 A 
ENDBRANCH  26  29
ENDBRANCH  23  25
ENDBRANCH  21  23
ENDBRANCH   1  21
TORSDOF 9
ENDMDL
MODEL 4
REMARK VINA RESULT:   -28.717      6.471      9.605
REMARK INTER + INTRA:         -33.346
REMARK INTER:                 -31.401
REMARK INTRA:                  -1.944
REMARK CONF_INDEPENDENT:        2.685
REMARK UNBOUND:                -1.944
REMARK  9 active torsions:
REMARK  status: ('A' for Active; 'I' for Inactive)
REMARK       I    between atoms: C_2  and  N_3 
REMARK    1  A    between atoms: C_2  and  C_26 
REMARK    2  A    between atoms: N_3  and  N_4 
REMARK    3  A    between atoms: N_4  and  C_5 
REMARK    4  A    between atoms: C_5  and  N_7 
REMARK       I    between atoms: N_7  and  C_8 
REMARK    5  A    between atoms: C_8  and  C_10 
REMARK    6  A    between atoms: C_13  and  O_14 
REMARK    7  A    between atoms: O_14  and  C_15 
REMARK    8  A    between atoms: C_15  and  C_16 
REMARK    9  A    between atoms: C_16  and  C_17 
ROOT
ATOM      1  N   UNL d   1      27.004 -15.608  -1.800  0.00  0.00    -0.298 N 
ATOM      2  C   UNL d   1      25.911 -15.187  -2.594  0.00  0.00     0.257 C 
ATOM      3  O   UNL d   1      24.735 -15.506  -2.406  0.00  0.00    -0.267 OA
ATOM      4  H   UNL d   1      27.903 -15.216  -2.039  0.00  0.00     0.171 HD
ENDROOT
BRANCH   2   5
ATOM      5  C   UNL d   1      26.100 -14.249  -3.741  0.00  0.00     0.033 A 
ATOM      6  C   UNL d   1      25.386 -13.072  -3.926  0.00  0.00     0.020 A 
ATOM      7  C   UNL d   1      25.739 -12.200  -4.982  0.00  0.00     0.039 A 
ATOM      8  C   UNL d   1      26.817 -12.470  -5.861  0.00  0.00     0.086 A 
ATOM      9  C   UNL d   1      27.556 -13.644  -5.638  0.00  0.00     0.045 A 
ATOM     10 BR   UNL d   1      29.077 -14.303  -6.597  0.00  0.00    -0.048 Br
ATOM     11  C   UNL d   1      27.196 -14.500  -4.584  0.00  0.00     0.039 A 
BRANCH   8  12
ATOM     12  O   UNL d   1      26.975 -11.492  -6.821  0.00  0.00    -0.349 OA
BRANCH  12  13
ATOM     13  C   UNL d   1      26.095 -10.373  -6.739  0.00  0.00     0.180 C 
BRANCH  13  14
ATOM     14  C   UNL d   1      26.798  -9.069  -6.395  0.00  0.00     0.065 C 
BRANCH  14  15
ATOM     15  C   UNL d   1      25.840  -8.052  -5.807  0.00  0.00    -0.056 A 
ATOM     16  C   UNL d   1      24.519  -8.408  -5.511  0.00  0.00     0.007 A 
ATOM     17  C   UNL d   1      23.577  -7.420  -5.221  0.00  0.00     0.001 A 
ATOM     18  C   UNL d   1      23.965  -6.085  -5.116  0.00  0.00     0.000 A 
ATOM     19  C   UNL d   1      25.297  -5.732  -5.313  0.00  0.00     0.001 A 
ATOM     20  C   UNL d   1      26.227  -6.710  -5.662  0.00  0.00     0.007 A 
ENDBRANCH  14  15
ENDBRANCH  13  14
ENDBRANCH  12  13
ENDBRANCH   8  12
ENDBRANCH   2   5
BRANCH   1  21
ATOM     21  C   UNL d   1      26.932 -16.446  -0.659  0.00  0.00     0.193 C 
ATOM     22  S   UNL d   1      27.405 -16.000   0.902  0.00  0.00    -0.039 SA
BRANCH  21  23
ATOM     23  N   UNL d   1      26.409 -17.738  -0.873  0.00  0.00    -0.273 N 
ATOM     24  H   UNL d   1      26.943 -18.606  -0.920  0.00  0.00     0.189 HD
BRANCH  23  25
ATOM     25  N   UNL d   1      24.968 -17.892  -1.061  0.00  0.00    -0.264 N 
ATOM     26  C   UNL d   1      24.119 -18.301  -0.042  0.00  0.00     0.270 C 
ATOM     27  O   UNL d   1      24.521 -18.590   1.087  0.00  0.00    -0.266 OA
ATOM     28  H   UNL d   1      24.615 -17.541  -1.953  0.00  0.00     0.190 HD
BRANCH  26  29
ATOM     29  C   UNL d   1      22.643 -18.365  -0.350  0.00  0.00     0.036 A 
ATOM     30  C   UNL d   1      21.925 -19.538  -0.078  0.00  0.00     0.036 A 
ATOM     31  C   UNL d   1      20.573 -19.588  -0.394  0.00  0.00     0.117 A 
ATOM     32  N   UNL d   1      19.906 -18.575  -0.982  0.00  0.00    -0.273 NA
ATOM     33  C   UNL d   1      20.618 -17.465  -1.268  0.00  0.00     0.117 A 
ATOM     34  C   UNL d   1      21.969 -17.308  -0.970  0.00  0.00     0.036 A 
ENDBRANCH  26  29
ENDBRANCH  23  25
ENDBRANCH  21  23
ENDBRANCH   1  21
TORSDOF 9
ENDMDL
MODEL 5
REMARK VINA RESULT:   -28.520      6.423      8.639
REMARK INTER + INTRA:         -33.528
REMARK INTER:                 -31.205
REMARK INTRA:                  -2.323
REMARK CONF_INDEPENDENT:        2.685
REMARK UNBOUND:                -2.323
REMARK  9 active torsions:
REMARK  status: ('A' for Active; 'I' for Inactive)
REMARK       I    between atoms: C_2  and  N_3 
REMARK    1  A    between atoms: C_2  and  C_26 
REMARK    2  A    between atoms: N_3  and  N_4 
REMARK    3  A    between atoms: N_4  and  C_5 
REMARK    4  A    between atoms: C_5  and  N_7 
REMARK       I    between atoms: N_7  and  C_8 
REMARK    5  A    between atoms: C_8  and  C_10 
REMARK    6  A    between atoms: C_13  and  O_14 
REMARK    7  A    between atoms: O_14  and  C_15 
REMARK    8  A    between atoms: C_15  and  C_16 
REMARK    9  A    between atoms: C_16  and  C_17 
ROOT
ATOM      1  N   UNL d   1      26.956 -15.630  -1.715  0.00  0.00    -0.298 N 
ATOM      2  C   UNL d   1      25.833 -15.215  -2.469  0.00  0.00     0.257 C 
ATOM      3  O   UNL d   1      24.667 -15.541  -2.240  0.00  0.00    -0.267 OA
ATOM      4  H   UNL d   1      27.844 -15.232  -1.984  0.00  0.00     0.171 HD
ENDROOT
BRANCH   2   5
ATOM      5  C   UNL d   1      25.976 -14.274  -3.620  0.00  0.00     0.033 A 
ATOM      6  C   UNL d   1      25.221 -13.122  -3.799  0.00  0.00     0.020 A 
ATOM      7  C   UNL d   1      25.530 -12.242  -4.861  0.00  0.00     0.039 A 
ATOM      8  C   UNL d   1      26.604 -12.479  -5.754  0.00  0.00     0.086 A 
ATOM      9  C   UNL d   1      27.386 -13.626  -5.538  0.00  0.00     0.045 A 
ATOM     10 BR   UNL d   1      28.915 -14.237  -6.516  0.00  0.00    -0.048 Br
ATOM     11  C   UNL d   1      27.068 -14.491  -4.477  0.00  0.00     0.039 A 
BRANCH   8  12
ATOM     12  O   UNL d   1      26.717 -11.498  -6.718  0.00  0.00    -0.349 OA
BRANCH  12  13
ATOM     13  C   UNL d   1      25.780 -10.427  -6.648  0.00  0.00     0.180 C 
BRANCH  13  14
ATOM     14  C   UNL d   1      26.396  -9.105  -6.218  0.00  0.00     0.065 C 
BRANCH  14  15
ATOM     15  C   UNL d   1      26.556  -9.022  -4.713  0.00  0.00    -0.056 A 
ATOM     16  C   UNL d   1      25.533  -8.493  -3.918  0.00  0.00     0.007 A 
ATOM     17  C   UNL d   1      25.779  -8.178  -2.580  0.00  0.00     0.001 A 
ATOM     18  C   UNL d   1      27.006  -8.487  -1.997  0.00  0.00     0.000 A 
ATOM     19  C   UNL d   1      27.999  -9.103  -2.755  0.00  0.00     0.001 A 
ATOM     20  C   UNL d   1      27.776  -9.363  -4.106  0.00  0.00     0.007 A 
ENDBRANCH  14  15
ENDBRANCH  13  14
ENDBRANCH  12  13
ENDBRANCH   8  12
ENDBRANCH   2   5
BRANCH   1  21
ATOM     21  C   UNL d   1      26.929 -16.470  -0.572  0.00  0.00     0.193 C 
ATOM     22  S   UNL d   1      27.457 -16.023   0.971  0.00  0.00    -0.039 SA
BRANCH  21  23
ATOM     23  N   UNL d   1      26.406 -17.764  -0.769  0.00  0.00    -0.273 N 
ATOM     24  H   UNL d   1      26.936 -18.635  -0.782  0.00  0.00     0.189 HD
BRANCH  23  25
ATOM     25  N   UNL d   1      24.969 -17.917  -0.993  0.00  0.00    -0.264 N 
ATOM     26  C   UNL d   1      24.093 -18.304   0.011  0.00  0.00     0.270 C 
ATOM     27  O   UNL d   1      24.465 -18.574   1.156  0.00  0.00    -0.266 OA
ATOM     28  H   UNL d   1      24.641 -17.580  -1.900  0.00  0.00     0.190 HD
BRANCH  26  29
ATOM     29  C   UNL d   1      22.625 -18.368  -0.334  0.00  0.00     0.036 A 
ATOM     30  C   UNL d   1      21.911 -19.555  -0.117  0.00  0.00     0.036 A 
ATOM     31  C   UNL d   1      20.566 -19.604  -0.467  0.00  0.00     0.117 A 
ATOM     32  N   UNL d   1      19.905 -18.577  -1.037  0.00  0.00    -0.273 NA
ATOM     33  C   UNL d   1      20.615 -17.453  -1.270  0.00  0.00     0.117 A 
ATOM     34  C   UNL d   1      21.958 -17.296  -0.935  0.00  0.00     0.036 A 
ENDBRANCH  26  29
ENDBRANCH  23  25
ENDBRANCH  21  23
ENDBRANCH   1  21
TORSDOF 9
ENDMDL
MODEL 6
REMARK VINA RESULT:   -28.299      6.439     10.241
REMARK INTER + INTRA:         -33.197
REMARK INTER:                 -30.983
REMARK INTRA:                  -2.213
REMARK CONF_INDEPENDENT:        2.685
REMARK UNBOUND:                -2.213
REMARK  9 active torsions:
REMARK  status: ('A' for Active; 'I' for Inactive)
REMARK       I    between atoms: C_2  and  N_3 
REMARK    1  A    between atoms: C_2  and  C_26 
REMARK    2  A    between atoms: N_3  and  N_4 
REMARK    3  A    between atoms: N_4  and  C_5 
REMARK    4  A    between atoms: C_5  and  N_7 
REMARK       I    between atoms: N_7  and  C_8 
REMARK    5  A    between atoms: C_8  and  C_10 
REMARK    6  A    between atoms: C_13  and  O_14 
REMARK    7  A    between atoms: O_14  and  C_15 
REMARK    8  A    between atoms: C_15  and  C_16 
REMARK    9  A    between atoms: C_16  and  C_17 
ROOT
ATOM      1  N   UNL d   1      26.991 -15.627  -1.727  0.00  0.00    -0.298 N 
ATOM      2  C   UNL d   1      25.897 -15.229  -2.532  0.00  0.00     0.257 C 
ATOM      3  O   UNL d   1      24.726 -15.566  -2.351  0.00  0.00    -0.267 OA
ATOM      4  H   UNL d   1      27.886 -15.223  -1.961  0.00  0.00     0.171 HD
ENDROOT
BRANCH   2   5
ATOM      5  C   UNL d   1      26.081 -14.296  -3.684  0.00  0.00     0.033 A 
ATOM      6  C   UNL d   1      25.437 -13.073  -3.822  0.00  0.00     0.020 A 
ATOM      7  C   UNL d   1      25.784 -12.218  -4.893  0.00  0.00     0.039 A 
ATOM      8  C   UNL d   1      26.788 -12.551  -5.835  0.00  0.00     0.086 A 
ATOM      9  C   UNL d   1      27.460 -13.773  -5.661  0.00  0.00     0.045 A 
ATOM     10 BR   UNL d   1      28.876 -14.522  -6.711  0.00  0.00    -0.048 Br
ATOM     11  C   UNL d   1      27.107 -14.612  -4.591  0.00  0.00     0.039 A 
BRANCH   8  12
ATOM     12  O   UNL d   1      26.954 -11.577  -6.799  0.00  0.00    -0.349 OA
BRANCH  12  13
ATOM     13  C   UNL d   1      27.288 -10.272  -6.332  0.00  0.00     0.180 C 
BRANCH  13  14
ATOM     14  C   UNL d   1      28.424  -9.621  -7.104  0.00  0.00     0.065 C 
BRANCH  14  15
ATOM     15  C   UNL d   1      29.217 -10.638  -7.901  0.00  0.00    -0.056 A 
ATOM     16  C   UNL d   1      30.601 -10.755  -7.728  0.00  0.00     0.007 A 
ATOM     17  C   UNL d   1      31.359 -11.496  -8.636  0.00  0.00     0.001 A 
ATOM     18  C   UNL d   1      30.735 -12.214  -9.655  0.00  0.00     0.000 A 
ATOM     19  C   UNL d   1      29.350 -12.183  -9.777  0.00  0.00     0.001 A 
ATOM     20  C   UNL d   1      28.596 -11.396  -8.908  0.00  0.00     0.007 A 
ENDBRANCH  14  15
ENDBRANCH  13  14
ENDBRANCH  12  13
ENDBRANCH   8  12
ENDBRANCH   2   5
BRANCH   1  21
ATOM     21  C   UNL d   1      26.923 -16.459  -0.580  0.00  0.00     0.193 C 
ATOM     22  S   UNL d   1      27.396 -16.001   0.977  0.00  0.00    -0.039 SA
BRANCH  21  23
ATOM     23  N   UNL d   1      26.405 -17.754  -0.786  0.00  0.00    -0.273 N 
ATOM     24  H   UNL d   1      26.942 -18.620  -0.826  0.00  0.00     0.189 HD
BRANCH  23  25
ATOM     25  N   UNL d   1      24.965 -17.915  -0.977  0.00  0.00    -0.264 N 
ATOM     26  C   UNL d   1      24.107 -18.261   0.058  0.00  0.00     0.270 C 
ATOM     27  O   UNL d   1      24.500 -18.486   1.205  0.00  0.00    -0.266 OA
ATOM     28  H   UNL d   1      24.620 -17.615  -1.890  0.00  0.00     0.190 HD
BRANCH  26  29
ATOM     29  C   UNL d   1      22.633 -18.339  -0.258  0.00  0.00     0.036 A 
ATOM     30  C   UNL d   1      21.902 -19.478   0.108  0.00  0.00     0.036 A 
ATOM     31  C   UNL d   1      20.552 -19.543  -0.215  0.00  0.00     0.117 A 
ATOM     32  N   UNL d   1      19.900 -18.579  -0.895  0.00  0.00    -0.273 NA
ATOM     33  C   UNL d   1      20.625 -17.504  -1.270  0.00  0.00     0.117 A 
ATOM     34  C   UNL d   1      21.975 -17.334  -0.973  0.00  0.00     0.036 A 
ENDBRANCH  26  29
ENDBRANCH  23  25
ENDBRANCH  21  23
ENDBRANCH   1  21
TORSDOF 9
ENDMDL
MODEL 7
REMARK VINA RESULT:   -28.234      1.875      2.322
REMARK INTER + INTRA:         -33.346
REMARK INTER:                 -30.919
REMARK INTRA:                  -2.427
REMARK CONF_INDEPENDENT:        2.685
REMARK UNBOUND:                -2.427
REMARK  9 active torsions:
REMARK  status: ('A' for Active; 'I' for Inactive)
REMARK       I    between atoms: C_2  and  N_3 
REMARK    1  A    between atoms: C_2  and  C_26 
REMARK    2  A    between atoms: N_3  and  N_4 
REMARK    3  A    between atoms: N_4  and  C_5 
REMARK    4  A    between atoms: C_5  and  N_7 
REMARK       I    between atoms: N_7  and  C_8 
REMARK    5  A    between atoms: C_8  and  C_10 
REMARK    6  A    between atoms: C_13  and  O_14 
REMARK    7  A    between atoms: O_14  and  C_15 
REMARK    8  A    between atoms: C_15  and  C_16 
REMARK    9  A    between atoms: C_16  and  C_17 
ROOT
ATOM      1  N   UNL d   1      26.790 -14.196  -0.628  0.00  0.00    -0.298 N 
ATOM      2  C   UNL d   1      27.260 -14.320   0.700  0.00  0.00     0.257 C 
ATOM      3  O   UNL d   1      27.332 -15.377   1.329  0.00  0.00    -0.267 OA
ATOM      4  H   UNL d   1      26.846 -13.273  -1.035  0.00  0.00     0.171 HD
ENDROOT
BRANCH   2   5
ATOM      5  C   UNL d   1      27.767 -13.137   1.458  0.00  0.00     0.033 A 
ATOM      6  C   UNL d   1      29.091 -12.945   1.831  0.00  0.00     0.020 A 
ATOM      7  C   UNL d   1      29.476 -11.727   2.437  0.00  0.00     0.039 A 
ATOM      8  C   UNL d   1      28.560 -10.671   2.667  0.00  0.00     0.086 A 
ATOM      9  C   UNL d   1      27.232 -10.862   2.249  0.00  0.00     0.045 A 
ATOM     10 BR   UNL d   1      25.751  -9.654   2.370  0.00  0.00    -0.048 Br
ATOM     11  C   UNL d   1      26.863 -12.077   1.646  0.00  0.00     0.039 A 
BRANCH   8  12
ATOM     12  O   UNL d   1      29.149  -9.582   3.277  0.00  0.00    -0.349 OA
BRANCH  12  13
ATOM     13  C   UNL d   1      29.679  -9.796   4.583  0.00  0.00     0.180 C 
BRANCH  13  14
ATOM     14  C   UNL d   1      28.626 -10.161   5.617  0.00  0.00     0.065 C 
BRANCH  14  15
ATOM     15  C   UNL d   1      28.587 -11.654   5.876  0.00  0.00    -0.056 A 
ATOM     16  C   UNL d   1      29.484 -12.243   6.776  0.00  0.00     0.007 A 
ATOM     17  C   UNL d   1      29.622 -13.631   6.818  0.00  0.00     0.001 A 
ATOM     18  C   UNL d   1      28.794 -14.445   6.047  0.00  0.00     0.000 A 
ATOM     19  C   UNL d   1      27.831 -13.873   5.221  0.00  0.00     0.001 A 
ATOM     20  C   UNL d   1      27.733 -12.485   5.133  0.00  0.00     0.007 A 
ENDBRANCH  14  15
ENDBRANCH  13  14
ENDBRANCH  12  13
ENDBRANCH   8  12
ENDBRANCH   2   5
BRANCH   1  21
ATOM     21  C   UNL d   1      26.342 -15.255  -1.458  0.00  0.00     0.193 C 
ATOM     22  S   UNL d   1      26.274 -15.202  -3.146  0.00  0.00    -0.039 SA
BRANCH  21  23
ATOM     23  N   UNL d   1      25.943 -16.433  -0.793  0.00  0.00    -0.273 N 
ATOM     24  H   UNL d   1      26.526 -17.019  -0.197  0.00  0.00     0.189 HD
BRANCH  23  25
ATOM     25  N   UNL d   1      24.568 -16.903  -0.959  0.00  0.00    -0.264 N 
ATOM     26  C   UNL d   1      24.104 -18.076  -0.381  0.00  0.00     0.270 C 
ATOM     27  O   UNL d   1      24.822 -18.820   0.291  0.00  0.00    -0.266 OA
ATOM     28  H   UNL d   1      23.941 -16.235  -1.410  0.00  0.00     0.190 HD
BRANCH  26  29
ATOM     29  C   UNL d   1      22.647 -18.420  -0.580  0.00  0.00     0.036 A 
ATOM     30  C   UNL d   1      21.775 -17.466  -1.121  0.00  0.00     0.036 A 
ATOM     31  C   UNL d   1      20.432 -17.791  -1.271  0.00  0.00     0.117 A 
ATOM     32  N   UNL d   1      19.903 -18.973  -0.895  0.00  0.00    -0.273 NA
ATOM     33  C   UNL d   1      20.750 -19.869  -0.346  0.00  0.00     0.117 A 
ATOM     34  C   UNL d   1      22.114 -19.648  -0.175  0.00  0.00     0.036 A 
ENDBRANCH  26  29
ENDBRANCH  23  25
ENDBRANCH  21  23
ENDBRANCH   1  21
TORSDOF 9
ENDMDL
MODEL 8
REMARK VINA RESULT:   -28.214      6.280     10.559
REMARK INTER + INTRA:         -33.108
REMARK INTER:                 -30.899
REMARK INTRA:                  -2.210
REMARK CONF_INDEPENDENT:        2.685
REMARK UNBOUND:                -2.210
REMARK  9 active torsions:
REMARK  status: ('A' for Active; 'I' for Inactive)
REMARK       I    between atoms: C_2  and  N_3 
REMARK    1  A    between atoms: C_2  and  C_26 
REMARK    2  A    between atoms: N_3  and  N_4 
REMARK    3  A    between atoms: N_4  and  C_5 
REMARK    4  A    between atoms: C_5  and  N_7 
REMARK       I    between atoms: N_7  and  C_8 
REMARK    5  A    between atoms: C_8  and  C_10 
REMARK    6  A    between atoms: C_13  and  O_14 
REMARK    7  A    between atoms: O_14  and  C_15 
REMARK    8  A    between atoms: C_15  and  C_16 
REMARK    9  A    between atoms: C_16  and  C_17 
ROOT
ATOM      1  N   UNL d   1      27.237 -15.251  -1.770  0.00  0.00    -0.298 N 
ATOM      2  C   UNL d   1      26.629 -15.447  -3.032  0.00  0.00     0.257 C 
ATOM      3  O   UNL d   1      25.470 -15.824  -3.208  0.00  0.00    -0.267 OA
ATOM      4  H   UNL d   1      28.177 -14.880  -1.781  0.00  0.00     0.171 HD
ENDROOT
BRANCH   2   5
ATOM      5  C   UNL d   1      27.363 -15.157  -4.300  0.00  0.00     0.033 A 
ATOM      6  C   UNL d   1      26.980 -14.205  -5.236  0.00  0.00     0.020 A 
ATOM      7  C   UNL d   1      27.822 -13.931  -6.339  0.00  0.00     0.039 A 
ATOM      8  C   UNL d   1      29.067 -14.582  -6.523  0.00  0.00     0.086 A 
ATOM      9  C   UNL d   1      29.462 -15.514  -5.548  0.00  0.00     0.045 A 
ATOM     10 BR   UNL d   1      31.072 -16.545  -5.459  0.00  0.00    -0.048 Br
ATOM     11  C   UNL d   1      28.616 -15.775  -4.456  0.00  0.00     0.039 A 
BRANCH   8  12
ATOM     12  O   UNL d   1      29.716 -14.169  -7.669  0.00  0.00    -0.349 OA
BRANCH  12  13
ATOM     13  C   UNL d   1      30.891 -13.384  -7.485  0.00  0.00     0.180 C 
BRANCH  13  14
ATOM     14  C   UNL d   1      30.872 -12.070  -8.250  0.00  0.00     0.065 C 
BRANCH  14  15
ATOM     15  C   UNL d   1      29.462 -11.658  -8.624  0.00  0.00    -0.056 A 
ATOM     16  C   UNL d   1      28.669 -10.937  -7.723  0.00  0.00     0.007 A 
ATOM     17  C   UNL d   1      27.301 -10.787  -7.961  0.00  0.00     0.001 A 
ATOM     18  C   UNL d   1      26.735 -11.257  -9.144  0.00  0.00     0.000 A 
ATOM     19  C   UNL d   1      27.534 -11.891 -10.092  0.00  0.00     0.001 A 
ATOM     20  C   UNL d   1      28.888 -12.094  -9.830  0.00  0.00     0.007 A 
ENDBRANCH  14  15
ENDBRANCH  13  14
ENDBRANCH  12  13
ENDBRANCH   8  12
ENDBRANCH   2   5
BRANCH   1  21
ATOM     21  C   UNL d   1      26.618 -15.438  -0.508  0.00  0.00     0.193 C 
ATOM     22  S   UNL d   1      26.400 -14.228   0.654  0.00  0.00    -0.039 SA
BRANCH  21  23
ATOM     23  N   UNL d   1      26.148 -16.740  -0.237  0.00  0.00    -0.273 N 
ATOM     24  H   UNL d   1      26.690 -17.507   0.159  0.00  0.00     0.189 HD
BRANCH  23  25
ATOM     25  N   UNL d   1      24.758 -17.066  -0.550  0.00  0.00    -0.264 N 
ATOM     26  C   UNL d   1      24.010 -17.957   0.206  0.00  0.00     0.270 C 
ATOM     27  O   UNL d   1      24.470 -18.559   1.180  0.00  0.00    -0.266 OA
ATOM     28  H   UNL d   1      24.337 -16.484  -1.276  0.00  0.00     0.190 HD
BRANCH  26  29
ATOM     29  C   UNL d   1      22.567 -18.164  -0.188  0.00  0.00     0.036 A 
ATOM     30  C   UNL d   1      21.936 -19.383   0.096  0.00  0.00     0.036 A 
ATOM     31  C   UNL d   1      20.617 -19.565  -0.299  0.00  0.00     0.117 A 
ATOM     32  N   UNL d   1      19.905 -18.641  -0.975  0.00  0.00    -0.273 NA
ATOM     33  C   UNL d   1      20.537 -17.485  -1.270  0.00  0.00     0.117 A 
ATOM     34  C   UNL d   1      21.848 -17.197  -0.897  0.00  0.00     0.036 A 
ENDBRANCH  26  29
ENDBRANCH  23  25
ENDBRANCH  21  23
ENDBRANCH   1  21
TORSDOF 9
ENDMDL
MODEL 9
REMARK VINA RESULT:   -27.874      2.548      2.831
REMARK INTER + INTRA:         -32.900
REMARK INTER:                 -30.558
REMARK INTRA:                  -2.342
REMARK CONF_INDEPENDENT:        2.685
REMARK UNBOUND:                -2.342
REMARK  9 active torsions:
REMARK  status: ('A' for Active; 'I' for Inactive)
REMARK       I    between atoms: C_2  and  N_3 
REMARK    1  A    between atoms: C_2  and  C_26 
REMARK    2  A    between atoms: N_3  and  N_4 
REMARK    3  A    between atoms: N_4  and  C_5 
REMARK    4  A    between atoms: C_5  and  N_7 
REMARK       I    between atoms: N_7  and  C_8 
REMARK    5  A    between atoms: C_8  and  C_10 
REMARK    6  A    between atoms: C_13  and  O_14 
REMARK    7  A    between atoms: O_14  and  C_15 
REMARK    8  A    between atoms: C_15  and  C_16 
REMARK    9  A    between atoms: C_16  and  C_17 
ROOT
ATOM      1  N   UNL d   1      26.676 -14.485  -0.813  0.00  0.00    -0.298 N 
ATOM      2  C   UNL d   1      27.414 -14.794   0.354  0.00  0.00     0.257 C 
ATOM      3  O   UNL d   1      27.620 -15.932   0.781  0.00  0.00    -0.267 OA
ATOM      4  H   UNL d   1      26.643 -13.510  -1.073  0.00  0.00     0.171 HD
ENDROOT
BRANCH   2   5
ATOM      5  C   UNL d   1      28.067 -13.724   1.166  0.00  0.00     0.033 A 
ATOM      6  C   UNL d   1      27.399 -12.651   1.743  0.00  0.00     0.020 A 
ATOM      7  C   UNL d   1      28.102 -11.768   2.595  0.00  0.00     0.039 A 
ATOM      8  C   UNL d   1      29.473 -11.944   2.906  0.00  0.00     0.086 A 
ATOM      9  C   UNL d   1      30.126 -13.056   2.349  0.00  0.00     0.045 A 
ATOM     10 BR   UNL d   1      31.943 -13.616   2.575  0.00  0.00    -0.048 Br
ATOM     11  C   UNL d   1      29.415 -13.927   1.505  0.00  0.00     0.039 A 
BRANCH   8  12
ATOM     12  O   UNL d   1      29.955 -10.962   3.747  0.00  0.00    -0.349 OA
BRANCH  12  13
ATOM     13  C   UNL d   1      31.127 -11.282   4.491  0.00  0.00     0.180 C 
BRANCH  13  14
ATOM     14  C   UNL d   1      30.838 -11.957   5.823  0.00  0.00     0.065 C 
BRANCH  14  15
ATOM     15  C   UNL d   1      29.733 -12.987   5.703  0.00  0.00    -0.056 A 
ATOM     16  C   UNL d   1      30.030 -14.312   5.361  0.00  0.00     0.007 A 
ATOM     17  C   UNL d   1      29.005 -15.187   4.998  0.00  0.00     0.001 A 
ATOM     18  C   UNL d   1      27.673 -14.784   5.078  0.00  0.00     0.000 A 
ATOM     19  C   UNL d   1      27.361 -13.499   5.510  0.00  0.00     0.001 A 
ATOM     20  C   UNL d   1      28.386 -12.605   5.815  0.00  0.00     0.007 A 
ENDBRANCH  14  15
ENDBRANCH  13  14
ENDBRANCH  12  13
ENDBRANCH   8  12
ENDBRANCH   2   5
BRANCH   1  21
ATOM     21  C   UNL d   1      26.067 -15.421  -1.687  0.00  0.00     0.193 C 
ATOM     22  S   UNL d   1      25.661 -15.118  -3.301  0.00  0.00    -0.039 SA
BRANCH  21  23
ATOM     23  N   UNL d   1      25.803 -16.694  -1.142  0.00  0.00    -0.273 N 
ATOM     24  H   UNL d   1      26.477 -17.307  -0.684  0.00  0.00     0.189 HD
BRANCH  23  25
ATOM     25  N   UNL d   1      24.446 -17.232  -1.233  0.00  0.00    -0.264 N 
ATOM     26  C   UNL d   1      23.947 -18.158  -0.329  0.00  0.00     0.270 C 
ATOM     27  O   UNL d   1      24.618 -18.616   0.599  0.00  0.00    -0.266 OA
ATOM     28  H   UNL d   1      23.851 -16.770  -1.922  0.00  0.00     0.190 HD
BRANCH  26  29
ATOM     29  C   UNL d   1      22.511 -18.591  -0.499  0.00  0.00     0.036 A 
ATOM     30  C   UNL d   1      22.038 -18.952  -1.769  0.00  0.00     0.036 A 
ATOM     31  C   UNL d   1      20.706 -19.321  -1.911  0.00  0.00     0.117 A 
ATOM     32  N   UNL d   1      19.820 -19.325  -0.895  0.00  0.00    -0.273 NA
ATOM     33  C   UNL d   1      20.282 -18.943   0.314  0.00  0.00     0.117 A 
ATOM     34  C   UNL d   1      21.603 -18.580   0.564  0.00  0.00     0.036 A 
ENDBRANCH  26  29
ENDBRANCH  23  25
ENDBRANCH  21  23
ENDBRANCH   1  21
TORSDOF 9
ENDMDL
