MODEL 1
REMARK VINA RESULT:    -7.730      0.000      0.000
REMARK INTER + INTRA:         -10.927
REMARK INTER:                  -9.819
REMARK INTRA:                  -1.109
REMARK CONF_INDEPENDENT:        2.088
REMARK UNBOUND:                -1.109
REMARK  7 active torsions:
REMARK  status: ('A' for Active; 'I' for Inactive)
REMARK    1  A    between atoms: C_2  and  CA_3 
REMARK    2  A    between atoms: CA_3  and  C_4 
REMARK    3  A    between atoms: CA_3  and  N_6 
REMARK    4  A    between atoms: C_4  and  O_5 
REMARK       I    between atoms: N_6  and  C_7 
REMARK       I    between atoms: C_7  and  N_9 
REMARK    5  A    between atoms: N_9  and  C_10 
REMARK    6  A    between atoms: C_10  and  C_11 
REMARK    7  A    between atoms: C_14  and  N_15 
ROOT
ATOM      1  C   UNL d   1      25.545 -16.890  -0.565  0.00  0.00    -0.040 A 
ATOM      2  C   UNL d   1      25.665 -15.501  -0.682  0.00  0.00     0.011 A 
ATOM      3  C   UNL d   1      26.809 -14.832  -0.205  0.00  0.00     0.030 A 
ATOM      4  C   UNL d   1      27.841 -15.508   0.458  0.00  0.00     0.030 A 
ATOM      5  C   UNL d   1      27.726 -16.899   0.548  0.00  0.00     0.030 A 
ATOM      6  C   UNL d   1      26.596 -17.581   0.054  0.00  0.00     0.011 A 
ENDROOT
BRANCH   1   7
ATOM      7  C   UNL d   1      24.379 -17.635  -1.175  0.00  0.00     0.162 C 
BRANCH   7   8
ATOM      8  N   UNL d   1      23.492 -18.276  -0.213  0.00  0.00    -0.339 N 
ATOM      9  C   UNL d   1      22.368 -18.921  -0.658  0.00  0.00     0.316 C 
ATOM     10  N   UNL d   1      21.570 -19.456   0.327  0.00  0.00    -0.336 N 
ATOM     11  O   UNL d   1      22.080 -18.982  -1.854  0.00  0.00    -0.247 OA
ATOM     12  H   UNL d   1      21.879 -19.419   1.287  0.00  0.00     0.164 HD
ATOM     13  H   UNL d   1      23.756 -18.292   0.759  0.00  0.00     0.164 HD
BRANCH  10  14
ATOM     14  CA  UNL d   1      20.276 -20.109   0.002  0.00  0.00     0.109 C 
BRANCH  14  15
ATOM     15  C   UNL d   1      19.487 -20.512   1.277  0.00  0.00     0.023 C 
ATOM     16  C   UNL d   1      18.141 -21.188   1.001  0.00  0.00     0.007 C 
ENDBRANCH  14  15
BRANCH  14  17
ATOM     17  C   UNL d   1      19.422 -19.201  -0.924  0.00  0.00     0.189 C 
BRANCH  17  18
ATOM     18  O   UNL d   1      19.786 -17.825  -0.900  0.00  0.00    -0.399 OA
ATOM     19  H   UNL d   1      20.240 -17.623  -1.735  0.00  0.00     0.209 HD
ENDBRANCH  17  18
ENDBRANCH  14  17
ENDBRANCH  10  14
ENDBRANCH   7   8
ENDBRANCH   1   7
BRANCH   4  20
ATOM     20  N   UNL d   1      28.885 -14.833   1.055  0.00  0.00    -0.370 N 
ATOM     21  C   UNL d   1      28.646 -13.807   2.070  0.00  0.00     0.143 C 
ATOM     22  C   UNL d   1      29.432 -14.217   3.325  0.00  0.00     0.142 C 
ATOM     23  N   UNL d   1      30.845 -14.375   3.034  0.00  0.00    -0.358 N 
ATOM     24  C   UNL d   1      31.297 -14.874   1.835  0.00  0.00     0.235 C 
ATOM     25  H   UNL d   1      31.534 -14.316   3.772  0.00  0.00     0.162 HD
ATOM     26  O   UNL d   1      32.499 -15.108   1.699  0.00  0.00    -0.272 OA
ATOM     27  C   UNL d   1      30.293 -15.032   0.666  0.00  0.00     0.225 C 
ENDBRANCH   4  20
TORSDOF 7
ENDMDL
MODEL 2
REMARK VINA RESULT:    -7.537      3.739      4.817
REMARK INTER + INTRA:         -10.285
REMARK INTER:                  -9.625
REMARK INTRA:                  -0.661
REMARK CONF_INDEPENDENT:        2.088
REMARK UNBOUND:                -0.661
REMARK  7 active torsions:
REMARK  status: ('A' for Active; 'I' for Inactive)
REMARK    1  A    between atoms: C_2  and  CA_3 
REMARK    2  A    between atoms: CA_3  and  C_4 
REMARK    3  A    between atoms: CA_3  and  N_6 
REMARK    4  A    between atoms: C_4  and  O_5 
REMARK       I    between atoms: N_6  and  C_7 
REMARK       I    between atoms: C_7  and  N_9 
REMARK    5  A    between atoms: N_9  and  C_10 
REMARK    6  A    between atoms: C_10  and  C_11 
REMARK    7  A    between atoms: C_14  and  N_15 
ROOT
ATOM      1  C   UNL d   1      25.449 -16.483  -1.260  0.00  0.00    -0.040 A 
ATOM      2  C   UNL d   1      24.731 -16.041  -2.375  0.00  0.00     0.011 A 
ATOM      3  C   UNL d   1      25.132 -14.891  -3.084  0.00  0.00     0.030 A 
ATOM      4  C   UNL d   1      26.219 -14.108  -2.673  0.00  0.00     0.030 A 
ATOM      5  C   UNL d   1      26.947 -14.572  -1.572  0.00  0.00     0.030 A 
ATOM      6  C   UNL d   1      26.568 -15.733  -0.870  0.00  0.00     0.011 A 
ENDROOT
BRANCH   1   7
ATOM      7  C   UNL d   1      25.101 -17.778  -0.559  0.00  0.00     0.162 C 
BRANCH   7   8
ATOM      8  N   UNL d   1      23.819 -17.774   0.133  0.00  0.00    -0.339 N 
ATOM      9  C   UNL d   1      22.923 -18.785  -0.101  0.00  0.00     0.316 C 
ATOM     10  N   UNL d   1      21.724 -18.671   0.564  0.00  0.00    -0.336 N 
ATOM     11  O   UNL d   1      23.168 -19.707  -0.879  0.00  0.00    -0.247 OA
ATOM     12  H   UNL d   1      21.596 -17.920   1.226  0.00  0.00     0.164 HD
ATOM     13  H   UNL d   1      23.639 -17.062   0.822  0.00  0.00     0.164 HD
BRANCH  10  14
ATOM     14  CA  UNL d   1      20.624 -19.645   0.344  0.00  0.00     0.109 C 
BRANCH  14  15
ATOM     15  C   UNL d   1      19.738 -19.822   1.606  0.00  0.00     0.023 C 
ATOM     16  C   UNL d   1      18.481 -20.667   1.383  0.00  0.00     0.007 C 
ENDBRANCH  14  15
BRANCH  14  17
ATOM     17  C   UNL d   1      19.772 -19.239  -0.889  0.00  0.00     0.189 C 
BRANCH  17  18
ATOM     18  O   UNL d   1      20.281 -19.701  -2.136  0.00  0.00    -0.399 OA
ATOM     19  H   UNL d   1      19.724 -19.330  -2.840  0.00  0.00     0.209 HD
ENDBRANCH  17  18
ENDBRANCH  14  17
ENDBRANCH  10  14
ENDBRANCH   7   8
ENDBRANCH   1   7
BRANCH   4  20
ATOM     20  N   UNL d   1      26.516 -12.905  -3.277  0.00  0.00    -0.370 N 
ATOM     21  C   UNL d   1      26.876 -12.834  -4.693  0.00  0.00     0.143 C 
ATOM     22  C   UNL d   1      25.901 -11.854  -5.361  0.00  0.00     0.142 C 
ATOM     23  N   UNL d   1      25.943 -10.551  -4.723  0.00  0.00    -0.358 N 
ATOM     24  C   UNL d   1      26.134 -10.401  -3.370  0.00  0.00     0.235 C 
ATOM     25  H   UNL d   1      25.632  -9.723  -5.216  0.00  0.00     0.162 HD
ATOM     26  O   UNL d   1      26.027  -9.279  -2.870  0.00  0.00    -0.272 OA
ATOM     27  C   UNL d   1      26.573 -11.631  -2.537  0.00  0.00     0.225 C 
ENDBRANCH   4  20
TORSDOF 7
ENDMDL
MODEL 3
REMARK VINA RESULT:    -7.457      1.950      2.548
REMARK INTER + INTRA:         -10.811
REMARK INTER:                  -9.545
REMARK INTRA:                  -1.266
REMARK CONF_INDEPENDENT:        2.088
REMARK UNBOUND:                -1.266
REMARK  7 active torsions:
REMARK  status: ('A' for Active; 'I' for Inactive)
REMARK    1  A    between atoms: C_2  and  CA_3 
REMARK    2  A    between atoms: CA_3  and  C_4 
REMARK    3  A    between atoms: CA_3  and  N_6 
REMARK    4  A    between atoms: C_4  and  O_5 
REMARK       I    between atoms: N_6  and  C_7 
REMARK       I    between atoms: C_7  and  N_9 
REMARK    5  A    between atoms: N_9  and  C_10 
REMARK    6  A    between atoms: C_10  and  C_11 
REMARK    7  A    between atoms: C_14  and  N_15 
ROOT
ATOM      1  C   UNL d   1      24.523 -17.634  -1.194  0.00  0.00    -0.040 A 
ATOM      2  C   UNL d   1      24.814 -16.449  -1.878  0.00  0.00     0.011 A 
ATOM      3  C   UNL d   1      25.927 -15.663  -1.519  0.00  0.00     0.030 A 
ATOM      4  C   UNL d   1      26.748 -15.991  -0.434  0.00  0.00     0.030 A 
ATOM      5  C   UNL d   1      26.466 -17.191   0.228  0.00  0.00     0.030 A 
ATOM      6  C   UNL d   1      25.369 -17.997  -0.136  0.00  0.00     0.011 A 
ENDROOT
BRANCH   1   7
ATOM      7  C   UNL d   1      23.403 -18.548  -1.640  0.00  0.00     0.162 C 
BRANCH   7   8
ATOM      8  N   UNL d   1      22.720 -19.250  -0.562  0.00  0.00    -0.339 N 
ATOM      9  C   UNL d   1      21.362 -19.122  -0.427  0.00  0.00     0.316 C 
ATOM     10  N   UNL d   1      20.814 -19.785   0.646  0.00  0.00    -0.336 N 
ATOM     11  O   UNL d   1      20.692 -18.431  -1.195  0.00  0.00    -0.247 OA
ATOM     12  H   UNL d   1      21.403 -20.377   1.215  0.00  0.00     0.164 HD
ATOM     13  H   UNL d   1      23.250 -19.872   0.027  0.00  0.00     0.164 HD
BRANCH  10  14
ATOM     14  CA  UNL d   1      19.369 -19.670   0.970  0.00  0.00     0.109 C 
BRANCH  14  15
ATOM     15  C   UNL d   1      18.484 -20.501   0.002  0.00  0.00     0.023 C 
ATOM     16  C   UNL d   1      17.693 -21.625   0.676  0.00  0.00     0.007 C 
ENDBRANCH  14  15
BRANCH  14  17
ATOM     17  C   UNL d   1      19.106 -20.063   2.449  0.00  0.00     0.189 C 
BRANCH  17  18
ATOM     18  O   UNL d   1      20.249 -20.552   3.141  0.00  0.00    -0.399 OA
ATOM     19  H   UNL d   1      21.033 -20.121   2.763  0.00  0.00     0.209 HD
ENDBRANCH  17  18
ENDBRANCH  14  17
ENDBRANCH  10  14
ENDBRANCH   7   8
ENDBRANCH   1   7
BRANCH   4  20
ATOM     20  N   UNL d   1      27.743 -15.144   0.007  0.00  0.00    -0.370 N 
ATOM     21  C   UNL d   1      28.988 -15.663   0.572  0.00  0.00     0.143 C 
ATOM     22  C   UNL d   1      30.143 -15.067  -0.247  0.00  0.00     0.142 C 
ATOM     23  N   UNL d   1      30.103 -13.616  -0.235  0.00  0.00    -0.358 N 
ATOM     24  C   UNL d   1      28.921 -12.913  -0.236  0.00  0.00     0.235 C 
ATOM     25  H   UNL d   1      30.936 -13.074  -0.430  0.00  0.00     0.162 HD
ATOM     26  O   UNL d   1      28.954 -11.687  -0.360  0.00  0.00    -0.272 OA
ATOM     27  C   UNL d   1      27.598 -13.678   0.016  0.00  0.00     0.225 C 
ENDBRANCH   4  20
TORSDOF 7
ENDMDL
MODEL 4
REMARK VINA RESULT:    -7.378      1.322      1.582
REMARK INTER + INTRA:         -10.641
REMARK INTER:                  -9.466
REMARK INTRA:                  -1.175
REMARK CONF_INDEPENDENT:        2.088
REMARK UNBOUND:                -1.175
REMARK  7 active torsions:
REMARK  status: ('A' for Active; 'I' for Inactive)
REMARK    1  A    between atoms: C_2  and  CA_3 
REMARK    2  A    between atoms: CA_3  and  C_4 
REMARK    3  A    between atoms: CA_3  and  N_6 
REMARK    4  A    between atoms: C_4  and  O_5 
REMARK       I    between atoms: N_6  and  C_7 
REMARK       I    between atoms: C_7  and  N_9 
REMARK    5  A    between atoms: N_9  and  C_10 
REMARK    6  A    between atoms: C_10  and  C_11 
REMARK    7  A    between atoms: C_14  and  N_15 
ROOT
ATOM      1  C   UNL d   1      25.097 -17.149  -0.761  0.00  0.00    -0.040 A 
ATOM      2  C   UNL d   1      25.157 -15.855  -1.288  0.00  0.00     0.011 A 
ATOM      3  C   UNL d   1      26.159 -14.954  -0.878  0.00  0.00     0.030 A 
ATOM      4  C   UNL d   1      27.095 -15.284   0.111  0.00  0.00     0.030 A 
ATOM      5  C   UNL d   1      27.044 -16.589   0.613  0.00  0.00     0.030 A 
ATOM      6  C   UNL d   1      26.060 -17.506   0.194  0.00  0.00     0.011 A 
ENDROOT
BRANCH   1   7
ATOM      7  C   UNL d   1      24.101 -18.165  -1.275  0.00  0.00     0.162 C 
BRANCH   7   8
ATOM      8  N   UNL d   1      23.199 -18.702  -0.266  0.00  0.00    -0.339 N 
ATOM      9  C   UNL d   1      22.008 -19.259  -0.654  0.00  0.00     0.316 C 
ATOM     10  N   UNL d   1      21.204 -19.697   0.373  0.00  0.00    -0.336 N 
ATOM     11  O   UNL d   1      21.672 -19.325  -1.837  0.00  0.00    -0.247 OA
ATOM     12  H   UNL d   1      21.549 -19.662   1.320  0.00  0.00     0.164 HD
ATOM     13  H   UNL d   1      23.495 -18.715   0.696  0.00  0.00     0.164 HD
BRANCH  10  14
ATOM     14  CA  UNL d   1      19.848 -20.244   0.111  0.00  0.00     0.109 C 
BRANCH  14  15
ATOM     15  C   UNL d   1      19.051 -20.487   1.422  0.00  0.00     0.023 C 
ATOM     16  C   UNL d   1      17.980 -21.577   1.318  0.00  0.00     0.007 C 
ENDBRANCH  14  15
BRANCH  14  17
ATOM     17  C   UNL d   1      19.063 -19.321  -0.860  0.00  0.00     0.189 C 
BRANCH  17  18
ATOM     18  O   UNL d   1      19.524 -17.975  -0.896  0.00  0.00    -0.399 OA
ATOM     19  H   UNL d   1      20.052 -17.863  -1.704  0.00  0.00     0.209 HD
ENDBRANCH  17  18
ENDBRANCH  14  17
ENDBRANCH  10  14
ENDBRANCH   7   8
ENDBRANCH   1   7
BRANCH   4  20
ATOM     20  N   UNL d   1      27.977 -14.353   0.617  0.00  0.00    -0.370 N 
ATOM     21  C   UNL d   1      28.098 -13.021   0.025  0.00  0.00     0.143 C 
ATOM     22  C   UNL d   1      27.844 -12.001   1.145  0.00  0.00     0.142 C 
ATOM     23  N   UNL d   1      28.766 -12.191   2.250  0.00  0.00    -0.358 N 
ATOM     24  C   UNL d   1      29.201 -13.437   2.639  0.00  0.00     0.235 C 
ATOM     25  H   UNL d   1      28.961 -11.437   2.897  0.00  0.00     0.162 HD
ATOM     26  O   UNL d   1      29.876 -13.542   3.664  0.00  0.00    -0.272 OA
ATOM     27  C   UNL d   1      28.907 -14.650   1.721  0.00  0.00     0.225 C 
ENDBRANCH   4  20
TORSDOF 7
ENDMDL
MODEL 5
REMARK VINA RESULT:    -6.974      1.452      2.006
REMARK INTER + INTRA:         -10.271
REMARK INTER:                  -9.063
REMARK INTRA:                  -1.208
REMARK CONF_INDEPENDENT:        2.088
REMARK UNBOUND:                -1.208
REMARK  7 active torsions:
REMARK  status: ('A' for Active; 'I' for Inactive)
REMARK    1  A    between atoms: C_2  and  CA_3 
REMARK    2  A    between atoms: CA_3  and  C_4 
REMARK    3  A    between atoms: CA_3  and  N_6 
REMARK    4  A    between atoms: C_4  and  O_5 
REMARK       I    between atoms: N_6  and  C_7 
REMARK       I    between atoms: C_7  and  N_9 
REMARK    5  A    between atoms: N_9  and  C_10 
REMARK    6  A    between atoms: C_10  and  C_11 
REMARK    7  A    between atoms: C_14  and  N_15 
ROOT
ATOM      1  C   UNL d   1      25.328 -17.146  -1.156  0.00  0.00    -0.040 A 
ATOM      2  C   UNL d   1      25.987 -17.581  -0.002  0.00  0.00     0.011 A 
ATOM      3  C   UNL d   1      27.139 -16.919   0.466  0.00  0.00     0.030 A 
ATOM      4  C   UNL d   1      27.711 -15.846  -0.228  0.00  0.00     0.030 A 
ATOM      5  C   UNL d   1      27.031 -15.400  -1.367  0.00  0.00     0.030 A 
ATOM      6  C   UNL d   1      25.865 -16.041  -1.831  0.00  0.00     0.011 A 
ENDROOT
BRANCH   1   7
ATOM      7  C   UNL d   1      24.026 -17.772  -1.605  0.00  0.00     0.162 C 
BRANCH   7   8
ATOM      8  N   UNL d   1      23.232 -18.365  -0.538  0.00  0.00    -0.339 N 
ATOM      9  C   UNL d   1      22.079 -19.039  -0.850  0.00  0.00     0.316 C 
ATOM     10  N   UNL d   1      21.374 -19.524   0.227  0.00  0.00    -0.336 N 
ATOM     11  O   UNL d   1      21.690 -19.165  -2.011  0.00  0.00    -0.247 OA
ATOM     12  H   UNL d   1      21.764 -19.434   1.154  0.00  0.00     0.164 HD
ATOM     13  H   UNL d   1      23.578 -18.327   0.407  0.00  0.00     0.164 HD
BRANCH  10  14
ATOM     14  CA  UNL d   1      20.063 -20.200   0.050  0.00  0.00     0.109 C 
BRANCH  14  15
ATOM     15  C   UNL d   1      19.391 -20.539   1.408  0.00  0.00     0.023 C 
ATOM     16  C   UNL d   1      18.084 -21.328   1.287  0.00  0.00     0.007 C 
ENDBRANCH  14  15
BRANCH  14  17
ATOM     17  C   UNL d   1      19.124 -19.347  -0.844  0.00  0.00     0.189 C 
BRANCH  17  18
ATOM     18  O   UNL d   1      19.455 -17.963  -0.896  0.00  0.00    -0.399 OA
ATOM     19  H   UNL d   1      19.968 -17.810  -1.707  0.00  0.00     0.209 HD
ENDBRANCH  17  18
ENDBRANCH  14  17
ENDBRANCH  10  14
ENDBRANCH   7   8
ENDBRANCH   1   7
BRANCH   4  20
ATOM     20  N   UNL d   1      28.918 -15.298   0.148  0.00  0.00    -0.370 N 
ATOM     21  C   UNL d   1      30.168 -16.046   0.010  0.00  0.00     0.143 C 
ATOM     22  C   UNL d   1      31.117 -15.191  -0.845  0.00  0.00     0.142 C 
ATOM     23  N   UNL d   1      31.328 -13.884  -0.251  0.00  0.00    -0.358 N 
ATOM     24  C   UNL d   1      30.334 -13.213   0.422  0.00  0.00     0.235 C 
ATOM     25  H   UNL d   1      32.147 -13.336  -0.484  0.00  0.00     0.162 HD
ATOM     26  O   UNL d   1      30.535 -12.053   0.787  0.00  0.00    -0.272 OA
ATOM     27  C   UNL d   1      29.032 -13.972   0.782  0.00  0.00     0.225 C 
ENDBRANCH   4  20
TORSDOF 7
ENDMDL
MODEL 6
REMARK VINA RESULT:    -6.874      4.062      9.278
REMARK INTER + INTRA:         -10.269
REMARK INTER:                  -8.963
REMARK INTRA:                  -1.306
REMARK CONF_INDEPENDENT:        2.088
REMARK UNBOUND:                -1.306
REMARK  7 active torsions:
REMARK  status: ('A' for Active; 'I' for Inactive)
REMARK    1  A    between atoms: C_2  and  CA_3 
REMARK    2  A    between atoms: CA_3  and  C_4 
REMARK    3  A    between atoms: CA_3  and  N_6 
REMARK    4  A    between atoms: C_4  and  O_5 
REMARK       I    between atoms: N_6  and  C_7 
REMARK       I    between atoms: C_7  and  N_9 
REMARK    5  A    between atoms: N_9  and  C_10 
REMARK    6  A    between atoms: C_10  and  C_11 
REMARK    7  A    between atoms: C_14  and  N_15 
ROOT
ATOM      1  C   UNL d   1      24.550 -17.526  -0.851  0.00  0.00    -0.040 A 
ATOM      2  C   UNL d   1      24.346 -18.864  -0.498  0.00  0.00     0.011 A 
ATOM      3  C   UNL d   1      23.058 -19.338  -0.179  0.00  0.00     0.030 A 
ATOM      4  C   UNL d   1      21.944 -18.490  -0.139  0.00  0.00     0.030 A 
ATOM      5  C   UNL d   1      22.153 -17.160  -0.519  0.00  0.00     0.030 A 
ATOM      6  C   UNL d   1      23.432 -16.680  -0.862  0.00  0.00     0.011 A 
ENDROOT
BRANCH   1   7
ATOM      7  C   UNL d   1      25.904 -17.028  -1.308  0.00  0.00     0.162 C 
BRANCH   7   8
ATOM      8  N   UNL d   1      25.954 -15.612  -1.645  0.00  0.00    -0.339 N 
ATOM      9  C   UNL d   1      25.843 -15.227  -2.956  0.00  0.00     0.316 C 
ATOM     10  N   UNL d   1      25.946 -13.874  -3.180  0.00  0.00    -0.336 N 
ATOM     11  O   UNL d   1      25.698 -16.043  -3.866  0.00  0.00    -0.247 OA
ATOM     12  H   UNL d   1      26.016 -13.247  -2.392  0.00  0.00     0.164 HD
ATOM     13  H   UNL d   1      26.002 -14.935  -0.902  0.00  0.00     0.164 HD
BRANCH  10  14
ATOM     14  CA  UNL d   1      25.931 -13.316  -4.557  0.00  0.00     0.109 C 
BRANCH  14  15
ATOM     15  C   UNL d   1      25.905 -11.764  -4.560  0.00  0.00     0.023 C 
ATOM     16  C   UNL d   1      25.861 -11.134  -5.955  0.00  0.00     0.007 C 
ENDBRANCH  14  15
BRANCH  14  17
ATOM     17  C   UNL d   1      27.130 -13.859  -5.380  0.00  0.00     0.189 C 
BRANCH  17  18
ATOM     18  O   UNL d   1      26.975 -15.199  -5.836  0.00  0.00    -0.399 OA
ATOM     19  H   UNL d   1      26.060 -15.471  -5.652  0.00  0.00     0.209 HD
ENDBRANCH  17  18
ENDBRANCH  14  17
ENDBRANCH  10  14
ENDBRANCH   7   8
ENDBRANCH   1   7
BRANCH   4  20
ATOM     20  N   UNL d   1      20.718 -18.923   0.317  0.00  0.00    -0.370 N 
ATOM     21  C   UNL d   1      19.558 -18.997  -0.572  0.00  0.00     0.143 C 
ATOM     22  C   UNL d   1      19.034 -20.440  -0.517  0.00  0.00     0.142 C 
ATOM     23  N   UNL d   1      18.704 -20.830   0.841  0.00  0.00    -0.358 N 
ATOM     24  C   UNL d   1      19.428 -20.397   1.927  0.00  0.00     0.235 C 
ATOM     25  H   UNL d   1      18.059 -21.590   1.018  0.00  0.00     0.162 HD
ATOM     26  O   UNL d   1      19.180 -20.869   3.038  0.00  0.00    -0.272 OA
ATOM     27  C   UNL d   1      20.464 -19.263   1.729  0.00  0.00     0.225 C 
ENDBRANCH   4  20
TORSDOF 7
ENDMDL
MODEL 7
REMARK VINA RESULT:    -6.799      2.224      2.536
REMARK INTER + INTRA:          -9.965
REMARK INTER:                  -8.887
REMARK INTRA:                  -1.078
REMARK CONF_INDEPENDENT:        2.088
REMARK UNBOUND:                -1.078
REMARK  7 active torsions:
REMARK  status: ('A' for Active; 'I' for Inactive)
REMARK    1  A    between atoms: C_2  and  CA_3 
REMARK    2  A    between atoms: CA_3  and  C_4 
REMARK    3  A    between atoms: CA_3  and  N_6 
REMARK    4  A    between atoms: C_4  and  O_5 
REMARK       I    between atoms: N_6  and  C_7 
REMARK       I    between atoms: C_7  and  N_9 
REMARK    5  A    between atoms: N_9  and  C_10 
REMARK    6  A    between atoms: C_10  and  C_11 
REMARK    7  A    between atoms: C_14  and  N_15 
ROOT
ATOM      1  C   UNL d   1      25.016 -16.495  -0.780  0.00  0.00    -0.040 A 
ATOM      2  C   UNL d   1      25.563 -15.383  -1.426  0.00  0.00     0.011 A 
ATOM      3  C   UNL d   1      26.944 -15.311  -1.697  0.00  0.00     0.030 A 
ATOM      4  C   UNL d   1      27.834 -16.309  -1.280  0.00  0.00     0.030 A 
ATOM      5  C   UNL d   1      27.275 -17.430  -0.658  0.00  0.00     0.030 A 
ATOM      6  C   UNL d   1      25.892 -17.522  -0.403  0.00  0.00     0.011 A 
ENDROOT
BRANCH   1   7
ATOM      7  C   UNL d   1      23.522 -16.640  -0.587  0.00  0.00     0.162 C 
BRANCH   7   8
ATOM      8  N   UNL d   1      23.089 -17.951  -0.123  0.00  0.00    -0.339 N 
ATOM      9  C   UNL d   1      21.793 -18.346  -0.332  0.00  0.00     0.316 C 
ATOM     10  N   UNL d   1      21.467 -19.580   0.180  0.00  0.00    -0.336 N 
ATOM     11  O   UNL d   1      20.976 -17.626  -0.906  0.00  0.00    -0.247 OA
ATOM     12  H   UNL d   1      22.189 -20.148   0.599  0.00  0.00     0.164 HD
ATOM     13  H   UNL d   1      23.768 -18.573   0.284  0.00  0.00     0.164 HD
BRANCH  10  14
ATOM     14  CA  UNL d   1      20.079 -20.104   0.106  0.00  0.00     0.109 C 
BRANCH  14  15
ATOM     15  C   UNL d   1      19.218 -19.654   1.318  0.00  0.00     0.023 C 
ATOM     16  C   UNL d   1      19.471 -20.447   2.603  0.00  0.00     0.007 C 
ENDBRANCH  14  15
BRANCH  14  17
ATOM     17  C   UNL d   1      19.413 -19.700  -1.237  0.00  0.00     0.189 C 
BRANCH  17  18
ATOM     18  O   UNL d   1      20.263 -19.808  -2.373  0.00  0.00    -0.399 OA
ATOM     19  H   UNL d   1      21.064 -19.288  -2.196  0.00  0.00     0.209 HD
ENDBRANCH  17  18
ENDBRANCH  14  17
ENDBRANCH  10  14
ENDBRANCH   7   8
ENDBRANCH   1   7
BRANCH   4  20
ATOM     20  N   UNL d   1      29.199 -16.166  -1.413  0.00  0.00    -0.370 N 
ATOM     21  C   UNL d   1      29.956 -15.263  -0.546  0.00  0.00     0.143 C 
ATOM     22  C   UNL d   1      31.056 -16.096   0.130  0.00  0.00     0.142 C 
ATOM     23  N   UNL d   1      31.904 -16.745  -0.853  0.00  0.00    -0.358 N 
ATOM     24  C   UNL d   1      31.414 -17.225  -2.045  0.00  0.00     0.235 C 
ATOM     25  H   UNL d   1      32.839 -17.048  -0.610  0.00  0.00     0.162 HD
ATOM     26  O   UNL d   1      32.156 -17.883  -2.777  0.00  0.00    -0.272 OA
ATOM     27  C   UNL d   1      29.975 -16.839  -2.470  0.00  0.00     0.225 C 
ENDBRANCH   4  20
TORSDOF 7
ENDMDL
MODEL 8
REMARK VINA RESULT:    -6.664      2.201      9.072
REMARK INTER + INTRA:         -10.053
REMARK INTER:                  -8.752
REMARK INTRA:                  -1.300
REMARK CONF_INDEPENDENT:        2.088
REMARK UNBOUND:                -1.300
REMARK  7 active torsions:
REMARK  status: ('A' for Active; 'I' for Inactive)
REMARK    1  A    between atoms: C_2  and  CA_3 
REMARK    2  A    between atoms: CA_3  and  C_4 
REMARK    3  A    between atoms: CA_3  and  N_6 
REMARK    4  A    between atoms: C_4  and  O_5 
REMARK       I    between atoms: N_6  and  C_7 
REMARK       I    between atoms: C_7  and  N_9 
REMARK    5  A    between atoms: N_9  and  C_10 
REMARK    6  A    between atoms: C_10  and  C_11 
REMARK    7  A    between atoms: C_14  and  N_15 
ROOT
ATOM      1  C   UNL d   1      25.657 -17.046  -0.635  0.00  0.00    -0.040 A 
ATOM      2  C   UNL d   1      24.577 -16.279  -1.084  0.00  0.00     0.011 A 
ATOM      3  C   UNL d   1      23.251 -16.695  -0.855  0.00  0.00     0.030 A 
ATOM      4  C   UNL d   1      22.953 -17.912  -0.230  0.00  0.00     0.030 A 
ATOM      5  C   UNL d   1      24.038 -18.660   0.239  0.00  0.00     0.030 A 
ATOM      6  C   UNL d   1      25.368 -18.243   0.035  0.00  0.00     0.011 A 
ENDROOT
BRANCH   1   7
ATOM      7  C   UNL d   1      27.082 -16.557  -0.771  0.00  0.00     0.162 C 
BRANCH   7   8
ATOM      8  N   UNL d   1      27.748 -16.256   0.489  0.00  0.00    -0.339 N 
ATOM      9  C   UNL d   1      27.684 -14.985   1.000  0.00  0.00     0.316 C 
ATOM     10  N   UNL d   1      28.380 -14.787   2.169  0.00  0.00    -0.336 N 
ATOM     11  O   UNL d   1      27.073 -14.082   0.427  0.00  0.00    -0.247 OA
ATOM     12  H   UNL d   1      28.822 -15.574   2.620  0.00  0.00     0.164 HD
ATOM     13  H   UNL d   1      28.190 -17.004   0.998  0.00  0.00     0.164 HD
BRANCH  10  14
ATOM     14  CA  UNL d   1      28.472 -13.443   2.794  0.00  0.00     0.109 C 
BRANCH  14  15
ATOM     15  C   UNL d   1      27.074 -12.827   3.067  0.00  0.00     0.023 C 
ATOM     16  C   UNL d   1      26.723 -11.632   2.176  0.00  0.00     0.007 C 
ENDBRANCH  14  15
BRANCH  14  17
ATOM     17  C   UNL d   1      29.324 -13.500   4.091  0.00  0.00     0.189 C 
BRANCH  17  18
ATOM     18  O   UNL d   1      29.640 -14.816   4.532  0.00  0.00    -0.399 OA
ATOM     19  H   UNL d   1      29.526 -15.418   3.778  0.00  0.00     0.209 HD
ENDBRANCH  17  18
ENDBRANCH  14  17
ENDBRANCH  10  14
ENDBRANCH   7   8
ENDBRANCH   1   7
BRANCH   4  20
ATOM     20  N   UNL d   1      21.661 -18.386  -0.141  0.00  0.00    -0.370 N 
ATOM     21  C   UNL d   1      20.734 -18.281  -1.268  0.00  0.00     0.143 C 
ATOM     22  C   UNL d   1      20.233 -19.700  -1.578  0.00  0.00     0.142 C 
ATOM     23  N   UNL d   1      19.609 -20.304  -0.415  0.00  0.00    -0.358 N 
ATOM     24  C   UNL d   1      20.062 -20.077   0.863  0.00  0.00     0.235 C 
ATOM     25  H   UNL d   1      18.953 -21.067  -0.518  0.00  0.00     0.162 HD
ATOM     26  O   UNL d   1      19.576 -20.722   1.794  0.00  0.00    -0.272 OA
ATOM     27  C   UNL d   1      21.100 -18.951   1.099  0.00  0.00     0.225 C 
ENDBRANCH   4  20
TORSDOF 7
ENDMDL
MODEL 9
REMARK VINA RESULT:    -6.334      3.876      4.723
REMARK INTER + INTRA:          -9.708
REMARK INTER:                  -8.422
REMARK INTRA:                  -1.286
REMARK CONF_INDEPENDENT:        2.088
REMARK UNBOUND:                -1.286
REMARK  7 active torsions:
REMARK  status: ('A' for Active; 'I' for Inactive)
REMARK    1  A    between atoms: C_2  and  CA_3 
REMARK    2  A    between atoms: CA_3  and  C_4 
REMARK    3  A    between atoms: CA_3  and  N_6 
REMARK    4  A    between atoms: C_4  and  O_5 
REMARK       I    between atoms: N_6  and  C_7 
REMARK       I    between atoms: C_7  and  N_9 
REMARK    5  A    between atoms: N_9  and  C_10 
REMARK    6  A    between atoms: C_10  and  C_11 
REMARK    7  A    between atoms: C_14  and  N_15 
ROOT
ATOM      1  C   UNL d   1      25.132 -15.974  -1.532  0.00  0.00    -0.040 A 
ATOM      2  C   UNL d   1      26.308 -16.705  -1.337  0.00  0.00     0.011 A 
ATOM      3  C   UNL d   1      27.460 -16.438  -2.104  0.00  0.00     0.030 A 
ATOM      4  C   UNL d   1      27.464 -15.482  -3.128  0.00  0.00     0.030 A 
ATOM      5  C   UNL d   1      26.291 -14.738  -3.298  0.00  0.00     0.030 A 
ATOM      6  C   UNL d   1      25.141 -14.982  -2.522  0.00  0.00     0.011 A 
ENDROOT
BRANCH   1   7
ATOM      7  C   UNL d   1      23.925 -16.170  -0.640  0.00  0.00     0.162 C 
BRANCH   7   8
ATOM      8  N   UNL d   1      23.635 -17.555  -0.298  0.00  0.00    -0.339 N 
ATOM      9  C   UNL d   1      22.339 -18.000  -0.327  0.00  0.00     0.316 C 
ATOM     10  N   UNL d   1      22.159 -19.309   0.055  0.00  0.00    -0.336 N 
ATOM     11  O   UNL d   1      21.403 -17.263  -0.640  0.00  0.00    -0.247 OA
ATOM     12  H   UNL d   1      22.966 -19.881   0.254  0.00  0.00     0.164 HD
ATOM     13  H   UNL d   1      24.400 -18.182  -0.109  0.00  0.00     0.164 HD
BRANCH  10  14
ATOM     14  CA  UNL d   1      20.802 -19.904   0.154  0.00  0.00     0.109 C 
BRANCH  14  15
ATOM     15  C   UNL d   1      20.017 -19.372   1.384  0.00  0.00     0.023 C 
ATOM     16  C   UNL d   1      19.926 -20.359   2.551  0.00  0.00     0.007 C 
ENDBRANCH  14  15
BRANCH  14  17
ATOM     17  C   UNL d   1      20.007 -19.677  -1.160  0.00  0.00     0.189 C 
BRANCH  17  18
ATOM     18  O   UNL d   1      19.008 -18.666  -1.078  0.00  0.00    -0.399 OA
ATOM     19  H   UNL d   1      19.430 -17.814  -1.276  0.00  0.00     0.209 HD
ENDBRANCH  17  18
ENDBRANCH  14  17
ENDBRANCH  10  14
ENDBRANCH   7   8
ENDBRANCH   1   7
BRANCH   4  20
ATOM     20  N   UNL d   1      28.542 -15.328  -3.973  0.00  0.00    -0.370 N 
ATOM     21  C   UNL d   1      29.733 -16.169  -3.847  0.00  0.00     0.143 C 
ATOM     22  C   UNL d   1      29.960 -16.842  -5.210  0.00  0.00     0.142 C 
ATOM     23  N   UNL d   1      30.098 -15.858  -6.267  0.00  0.00    -0.358 N 
ATOM     24  C   UNL d   1      29.387 -14.681  -6.273  0.00  0.00     0.235 C 
ATOM     25  H   UNL d   1      30.566 -16.092  -7.134  0.00  0.00     0.162 HD
ATOM     26  O   UNL d   1      29.449 -13.949  -7.264  0.00  0.00    -0.272 OA
ATOM     27  C   UNL d   1      28.611 -14.271  -4.997  0.00  0.00     0.225 C 
ENDBRANCH   4  20
TORSDOF 7
ENDMDL
