MODEL 1
REMARK VINA RESULT:    -7.865      0.000      0.000
REMARK INTER + INTRA:         -10.047
REMARK INTER:                  -9.357
REMARK INTRA:                  -0.690
REMARK CONF_INDEPENDENT:        1.492
REMARK UNBOUND:                -0.690
REMARK  5 active torsions:
REMARK  status: ('A' for Active; 'I' for Inactive)
REMARK       I    between atoms: C_2  and  N_3 
REMARK       I    between atoms: C_2  and  N_12 
REMARK    1  A    between atoms: N_3  and  O_4 
REMARK    2  A    between atoms: O_4  and  C_5 
REMARK    3  A    between atoms: C_5  and  C_6 
REMARK    4  A    between atoms: C_13  and  N_12 
REMARK    5  A    between atoms: C_15  and  C_16 
ROOT
ATOM      1  O   UNL d   1      23.580 -17.192  -1.616  0.00  0.00    -0.245 OA
ATOM      2  C   UNL d   1      23.860 -17.990  -0.716  0.00  0.00     0.340 C 
ATOM      3  N   UNL d   1      23.120 -19.122  -0.462  0.00  0.00    -0.216 N 
ATOM      4  N   UNL d   1      24.958 -17.786   0.126  0.00  0.00    -0.336 N 
ATOM      5  H   UNL d   1      23.357 -19.838   0.206  0.00  0.00     0.199 HD
ATOM      6  H   UNL d   1      25.269 -18.537   0.726  0.00  0.00     0.164 HD
ENDROOT
BRANCH   3   7
ATOM      7  O   UNL d   1      22.004 -19.325  -1.333  0.00  0.00    -0.272 OA
BRANCH   7   8
ATOM      8  C   UNL d   1      20.857 -18.586  -0.892  0.00  0.00     0.240 C 
BRANCH   8   9
ATOM      9  C   UNL d   1      19.968 -19.414   0.016  0.00  0.00    -0.032 A 
ATOM     10  C   UNL d   1      20.243 -19.501   1.392  0.00  0.00     0.009 A 
ATOM     11  C   UNL d   1      19.463 -20.303   2.232  0.00  0.00     0.001 A 
ATOM     12  C   UNL d   1      18.344 -20.959   1.727  0.00  0.00     0.000 A 
ATOM     13  C   UNL d   1      18.030 -20.848   0.374  0.00  0.00     0.001 A 
ATOM     14  C   UNL d   1      18.841 -20.088  -0.478  0.00  0.00     0.009 A 
ENDBRANCH   8   9
ENDBRANCH   7   8
ENDBRANCH   3   7
BRANCH   4  15
ATOM     15  C   UNL d   1      25.878 -16.714  -0.207  0.00  0.00     0.095 A 
ATOM     16  C   UNL d   1      27.370 -16.929  -0.197  0.00  0.00     0.037 A 
ATOM     17  C   UNL d   1      26.686 -16.494  -1.474  0.00  0.00     0.043 A 
BRANCH  17  18
ATOM     18  C   UNL d   1      26.827 -15.051  -1.981  0.00  0.00    -0.049 A 
ATOM     19  C   UNL d   1      27.871 -14.217  -1.532  0.00  0.00     0.008 A 
ATOM     20  C   UNL d   1      27.988 -12.884  -1.955  0.00  0.00     0.004 A 
ATOM     21  C   UNL d   1      27.105 -12.370  -2.899  0.00  0.00     0.042 A 
ATOM     22  C   UNL d   1      26.083 -13.175  -3.369  0.00  0.00     0.116 A 
ATOM     23  F   UNL d   1      25.206 -12.688  -4.258  0.00  0.00    -0.206 F 
ATOM     24  C   UNL d   1      25.938 -14.484  -2.916  0.00  0.00     0.049 A 
ENDBRANCH  17  18
ENDBRANCH   4  15
TORSDOF 5
ENDMDL
MODEL 2
REMARK VINA RESULT:    -7.783      1.336      1.686
REMARK INTER + INTRA:          -9.898
REMARK INTER:                  -9.275
REMARK INTRA:                  -0.623
REMARK CONF_INDEPENDENT:        1.492
REMARK UNBOUND:                -0.623
REMARK  5 active torsions:
REMARK  status: ('A' for Active; 'I' for Inactive)
REMARK       I    between atoms: C_2  and  N_3 
REMARK       I    between atoms: C_2  and  N_12 
REMARK    1  A    between atoms: N_3  and  O_4 
REMARK    2  A    between atoms: O_4  and  C_5 
REMARK    3  A    between atoms: C_5  and  C_6 
REMARK    4  A    between atoms: C_13  and  N_12 
REMARK    5  A    between atoms: C_15  and  C_16 
ROOT
ATOM      1  O   UNL d   1      23.669 -17.364  -1.627  0.00  0.00    -0.245 OA
ATOM      2  C   UNL d   1      23.729 -18.153  -0.678  0.00  0.00     0.340 C 
ATOM      3  N   UNL d   1      22.849 -19.200  -0.518  0.00  0.00    -0.216 N 
ATOM      4  N   UNL d   1      24.701 -18.026   0.319  0.00  0.00    -0.336 N 
ATOM      5  H   UNL d   1      22.909 -19.910   0.193  0.00  0.00     0.199 HD
ATOM      6  H   UNL d   1      24.840 -18.782   0.975  0.00  0.00     0.164 HD
ENDROOT
BRANCH   3   7
ATOM      7  O   UNL d   1      21.863 -19.325  -1.547  0.00  0.00    -0.272 OA
BRANCH   7   8
ATOM      8  C   UNL d   1      20.629 -18.703  -1.166  0.00  0.00     0.240 C 
BRANCH   8   9
ATOM      9  C   UNL d   1      19.952 -19.443  -0.028  0.00  0.00    -0.032 A 
ATOM     10  C   UNL d   1      20.458 -19.350   1.280  0.00  0.00     0.009 A 
ATOM     11  C   UNL d   1      19.875 -20.070   2.329  0.00  0.00     0.001 A 
ATOM     12  C   UNL d   1      18.725 -20.822   2.105  0.00  0.00     0.000 A 
ATOM     13  C   UNL d   1      18.184 -20.889   0.822  0.00  0.00     0.001 A 
ATOM     14  C   UNL d   1      18.797 -20.212  -0.239  0.00  0.00     0.009 A 
ENDBRANCH   8   9
ENDBRANCH   7   8
ENDBRANCH   3   7
BRANCH   4  15
ATOM     15  C   UNL d   1      25.763 -17.060   0.110  0.00  0.00     0.095 A 
ATOM     16  C   UNL d   1      27.188 -17.496  -0.117  0.00  0.00     0.037 A 
ATOM     17  C   UNL d   1      26.481 -16.675  -1.172  0.00  0.00     0.043 A 
BRANCH  17  18
ATOM     18  C   UNL d   1      26.831 -15.193  -1.370  0.00  0.00    -0.049 A 
ATOM     19  C   UNL d   1      26.113 -14.387  -2.276  0.00  0.00     0.008 A 
ATOM     20  C   UNL d   1      26.448 -13.042  -2.498  0.00  0.00     0.004 A 
ATOM     21  C   UNL d   1      27.466 -12.445  -1.762  0.00  0.00     0.042 A 
ATOM     22  C   UNL d   1      28.174 -13.211  -0.853  0.00  0.00     0.116 A 
ATOM     23  F   UNL d   1      29.176 -12.660  -0.155  0.00  0.00    -0.206 F 
ATOM     24  C   UNL d   1      27.873 -14.558  -0.664  0.00  0.00     0.049 A 
ENDBRANCH  17  18
ENDBRANCH   4  15
TORSDOF 5
ENDMDL
MODEL 3
REMARK VINA RESULT:    -7.690      2.119      2.384
REMARK INTER + INTRA:          -9.644
REMARK INTER:                  -9.181
REMARK INTRA:                  -0.463
REMARK CONF_INDEPENDENT:        1.492
REMARK UNBOUND:                -0.463
REMARK  5 active torsions:
REMARK  status: ('A' for Active; 'I' for Inactive)
REMARK       I    between atoms: C_2  and  N_3 
REMARK       I    between atoms: C_2  and  N_12 
REMARK    1  A    between atoms: N_3  and  O_4 
REMARK    2  A    between atoms: O_4  and  C_5 
REMARK    3  A    between atoms: C_5  and  C_6 
REMARK    4  A    between atoms: C_13  and  N_12 
REMARK    5  A    between atoms: C_15  and  C_16 
ROOT
ATOM      1  O   UNL d   1      23.919 -17.440  -1.634  0.00  0.00    -0.245 OA
ATOM      2  C   UNL d   1      23.858 -18.190  -0.655  0.00  0.00     0.340 C 
ATOM      3  N   UNL d   1      22.888 -19.156  -0.510  0.00  0.00    -0.216 N 
ATOM      4  N   UNL d   1      24.778 -18.098   0.395  0.00  0.00    -0.336 N 
ATOM      5  H   UNL d   1      22.848 -19.838   0.230  0.00  0.00     0.199 HD
ATOM      6  H   UNL d   1      24.816 -18.834   1.087  0.00  0.00     0.164 HD
ENDROOT
BRANCH   3   7
ATOM      7  O   UNL d   1      21.957 -19.246  -1.592  0.00  0.00    -0.272 OA
BRANCH   7   8
ATOM      8  C   UNL d   1      20.713 -18.615  -1.264  0.00  0.00     0.240 C 
BRANCH   8   9
ATOM      9  C   UNL d   1      19.950 -19.386  -0.204  0.00  0.00    -0.032 A 
ATOM     10  C   UNL d   1      20.375 -19.361   1.136  0.00  0.00     0.009 A 
ATOM     11  C   UNL d   1      19.712 -20.111   2.114  0.00  0.00     0.001 A 
ATOM     12  C   UNL d   1      18.563 -20.825   1.786  0.00  0.00     0.000 A 
ATOM     13  C   UNL d   1      18.102 -20.825   0.471  0.00  0.00     0.001 A 
ATOM     14  C   UNL d   1      18.795 -20.118  -0.520  0.00  0.00     0.009 A 
ENDBRANCH   8   9
ENDBRANCH   7   8
ENDBRANCH   3   7
BRANCH   4  15
ATOM     15  C   UNL d   1      25.926 -17.229   0.215  0.00  0.00     0.095 A 
ATOM     16  C   UNL d   1      26.671 -17.172  -1.094  0.00  0.00     0.037 A 
ATOM     17  C   UNL d   1      26.035 -15.916  -0.542  0.00  0.00     0.043 A 
BRANCH  17  18
ATOM     18  C   UNL d   1      26.903 -14.812   0.078  0.00  0.00    -0.049 A 
ATOM     19  C   UNL d   1      28.272 -14.696  -0.234  0.00  0.00     0.008 A 
ATOM     20  C   UNL d   1      29.087 -13.718   0.357  0.00  0.00     0.004 A 
ATOM     21  C   UNL d   1      28.535 -12.778   1.222  0.00  0.00     0.042 A 
ATOM     22  C   UNL d   1      27.188 -12.860   1.530  0.00  0.00     0.116 A 
ATOM     23  F   UNL d   1      26.646 -11.981   2.383  0.00  0.00    -0.206 F 
ATOM     24  C   UNL d   1      26.388 -13.858   0.980  0.00  0.00     0.049 A 
ENDBRANCH  17  18
ENDBRANCH   4  15
TORSDOF 5
ENDMDL
MODEL 4
REMARK VINA RESULT:    -7.500      2.995      8.461
REMARK INTER + INTRA:          -9.361
REMARK INTER:                  -8.992
REMARK INTRA:                  -0.369
REMARK CONF_INDEPENDENT:        1.492
REMARK UNBOUND:                -0.369
REMARK  5 active torsions:
REMARK  status: ('A' for Active; 'I' for Inactive)
REMARK       I    between atoms: C_2  and  N_3 
REMARK       I    between atoms: C_2  and  N_12 
REMARK    1  A    between atoms: N_3  and  O_4 
REMARK    2  A    between atoms: O_4  and  C_5 
REMARK    3  A    between atoms: C_5  and  C_6 
REMARK    4  A    between atoms: C_13  and  N_12 
REMARK    5  A    between atoms: C_15  and  C_16 
ROOT
ATOM      1  O   UNL d   1      24.812 -17.351  -1.603  0.00  0.00    -0.245 OA
ATOM      2  C   UNL d   1      25.343 -17.715  -0.549  0.00  0.00     0.340 C 
ATOM      3  N   UNL d   1      26.699 -17.632  -0.325  0.00  0.00    -0.216 N 
ATOM      4  N   UNL d   1      24.592 -18.255   0.500  0.00  0.00    -0.336 N 
ATOM      5  H   UNL d   1      27.162 -17.842   0.544  0.00  0.00     0.199 HD
ATOM      6  H   UNL d   1      25.020 -18.372   1.408  0.00  0.00     0.164 HD
ENDROOT
BRANCH   3   7
ATOM      7  O   UNL d   1      27.457 -17.072  -1.401  0.00  0.00    -0.272 OA
BRANCH   7   8
ATOM      8  C   UNL d   1      27.455 -15.639  -1.351  0.00  0.00     0.240 C 
BRANCH   8   9
ATOM      9  C   UNL d   1      26.671 -15.035  -2.500  0.00  0.00    -0.032 A 
ATOM     10  C   UNL d   1      25.435 -14.407  -2.265  0.00  0.00     0.009 A 
ATOM     11  C   UNL d   1      24.677 -13.893  -3.323  0.00  0.00     0.001 A 
ATOM     12  C   UNL d   1      25.181 -13.920  -4.620  0.00  0.00     0.000 A 
ATOM     13  C   UNL d   1      26.425 -14.500  -4.865  0.00  0.00     0.001 A 
ATOM     14  C   UNL d   1      27.161 -15.062  -3.815  0.00  0.00     0.009 A 
ENDBRANCH   8   9
ENDBRANCH   7   8
ENDBRANCH   3   7
BRANCH   4  15
ATOM     15  C   UNL d   1      23.146 -18.199   0.396  0.00  0.00     0.095 A 
ATOM     16  C   UNL d   1      22.467 -17.371  -0.666  0.00  0.00     0.037 A 
ATOM     17  C   UNL d   1      22.222 -18.863  -0.611  0.00  0.00     0.043 A 
BRANCH  17  18
ATOM     18  C   UNL d   1      20.887 -19.415  -0.090  0.00  0.00    -0.049 A 
ATOM     19  C   UNL d   1      19.819 -19.693  -0.967  0.00  0.00     0.008 A 
ATOM     20  C   UNL d   1      18.580 -20.158  -0.500  0.00  0.00     0.004 A 
ATOM     21  C   UNL d   1      18.399 -20.429   0.852  0.00  0.00     0.042 A 
ATOM     22  C   UNL d   1      19.439 -20.181   1.731  0.00  0.00     0.116 A 
ATOM     23  F   UNL d   1      19.274 -20.410   3.040  0.00  0.00    -0.206 F 
ATOM     24  C   UNL d   1      20.655 -19.677   1.276  0.00  0.00     0.049 A 
ENDBRANCH  17  18
ENDBRANCH   4  15
TORSDOF 5
ENDMDL
MODEL 5
REMARK VINA RESULT:    -7.479      2.420      3.131
REMARK INTER + INTRA:          -9.467
REMARK INTER:                  -8.971
REMARK INTRA:                  -0.496
REMARK CONF_INDEPENDENT:        1.492
REMARK UNBOUND:                -0.496
REMARK  5 active torsions:
REMARK  status: ('A' for Active; 'I' for Inactive)
REMARK       I    between atoms: C_2  and  N_3 
REMARK       I    between atoms: C_2  and  N_12 
REMARK    1  A    between atoms: N_3  and  O_4 
REMARK    2  A    between atoms: O_4  and  C_5 
REMARK    3  A    between atoms: C_5  and  C_6 
REMARK    4  A    between atoms: C_13  and  N_12 
REMARK    5  A    between atoms: C_15  and  C_16 
ROOT
ATOM      1  O   UNL d   1      23.896 -17.543  -1.979  0.00  0.00    -0.245 OA
ATOM      2  C   UNL d   1      23.983 -18.205  -0.940  0.00  0.00     0.340 C 
ATOM      3  N   UNL d   1      23.041 -19.136  -0.564  0.00  0.00    -0.216 N 
ATOM      4  N   UNL d   1      25.056 -18.042  -0.057  0.00  0.00    -0.336 N 
ATOM      5  H   UNL d   1      23.112 -19.752   0.230  0.00  0.00     0.199 HD
ATOM      6  H   UNL d   1      25.196 -18.717   0.682  0.00  0.00     0.164 HD
ENDROOT
BRANCH   3   7
ATOM      7  O   UNL d   1      21.953 -19.300  -1.477  0.00  0.00    -0.272 OA
BRANCH   7   8
ATOM      8  C   UNL d   1      20.794 -18.577  -1.043  0.00  0.00     0.240 C 
BRANCH   8   9
ATOM      9  C   UNL d   1      19.946 -19.391  -0.084  0.00  0.00    -0.032 A 
ATOM     10  C   UNL d   1      20.280 -19.456   1.280  0.00  0.00     0.009 A 
ATOM     11  C   UNL d   1      19.538 -20.246   2.164  0.00  0.00     0.001 A 
ATOM     12  C   UNL d   1      18.401 -20.914   1.718  0.00  0.00     0.000 A 
ATOM     13  C   UNL d   1      18.030 -20.825   0.378  0.00  0.00     0.001 A 
ATOM     14  C   UNL d   1      18.802 -20.077  -0.520  0.00  0.00     0.009 A 
ENDBRANCH   8   9
ENDBRANCH   7   8
ENDBRANCH   3   7
BRANCH   4  15
ATOM     15  C   UNL d   1      26.167 -17.214  -0.486  0.00  0.00     0.095 A 
ATOM     16  C   UNL d   1      26.084 -15.710  -0.453  0.00  0.00     0.037 A 
ATOM     17  C   UNL d   1      27.156 -16.416   0.346  0.00  0.00     0.043 A 
BRANCH  17  18
ATOM     18  C   UNL d   1      28.618 -16.394  -0.122  0.00  0.00    -0.049 A 
ATOM     19  C   UNL d   1      29.159 -17.450  -0.882  0.00  0.00     0.008 A 
ATOM     20  C   UNL d   1      30.505 -17.462  -1.281  0.00  0.00     0.004 A 
ATOM     21  C   UNL d   1      31.329 -16.379  -0.993  0.00  0.00     0.042 A 
ATOM     22  C   UNL d   1      30.816 -15.322  -0.263  0.00  0.00     0.116 A 
ATOM     23  F   UNL d   1      31.603 -14.283   0.048  0.00  0.00    -0.206 F 
ATOM     24  C   UNL d   1      29.493 -15.328   0.173  0.00  0.00     0.049 A 
ENDBRANCH  17  18
ENDBRANCH   4  15
TORSDOF 5
ENDMDL
MODEL 6
REMARK VINA RESULT:    -7.437      2.569      3.139
REMARK INTER + INTRA:          -9.525
REMARK INTER:                  -8.929
REMARK INTRA:                  -0.596
REMARK CONF_INDEPENDENT:        1.492
REMARK UNBOUND:                -0.596
REMARK  5 active torsions:
REMARK  status: ('A' for Active; 'I' for Inactive)
REMARK       I    between atoms: C_2  and  N_3 
REMARK       I    between atoms: C_2  and  N_12 
REMARK    1  A    between atoms: N_3  and  O_4 
REMARK    2  A    between atoms: O_4  and  C_5 
REMARK    3  A    between atoms: C_5  and  C_6 
REMARK    4  A    between atoms: C_13  and  N_12 
REMARK    5  A    between atoms: C_15  and  C_16 
ROOT
ATOM      1  O   UNL d   1      24.033 -18.244   0.282  0.00  0.00    -0.245 OA
ATOM      2  C   UNL d   1      24.331 -17.945  -0.878  0.00  0.00     0.340 C 
ATOM      3  N   UNL d   1      23.565 -18.302  -1.964  0.00  0.00    -0.216 N 
ATOM      4  N   UNL d   1      25.492 -17.221  -1.171  0.00  0.00    -0.336 N 
ATOM      5  H   UNL d   1      23.728 -18.013  -2.915  0.00  0.00     0.199 HD
ATOM      6  H   UNL d   1      25.616 -16.836  -2.097  0.00  0.00     0.164 HD
ENDROOT
BRANCH   3   7
ATOM      7  O   UNL d   1      22.377 -19.035  -1.653  0.00  0.00    -0.272 OA
BRANCH   7   8
ATOM      8  C   UNL d   1      21.456 -18.239  -0.897  0.00  0.00     0.240 C 
BRANCH   8   9
ATOM      9  C   UNL d   1      20.458 -19.095  -0.140  0.00  0.00    -0.032 A 
ATOM     10  C   UNL d   1      19.384 -19.700  -0.817  0.00  0.00     0.009 A 
ATOM     11  C   UNL d   1      18.427 -20.447  -0.122  0.00  0.00     0.001 A 
ATOM     12  C   UNL d   1      18.577 -20.677   1.243  0.00  0.00     0.000 A 
ATOM     13  C   UNL d   1      19.660 -20.122   1.921  0.00  0.00     0.001 A 
ATOM     14  C   UNL d   1      20.590 -19.329   1.237  0.00  0.00     0.009 A 
ENDBRANCH   8   9
ENDBRANCH   7   8
ENDBRANCH   3   7
BRANCH   4  15
ATOM     15  C   UNL d   1      26.239 -16.661  -0.061  0.00  0.00     0.095 A 
ATOM     16  C   UNL d   1      27.656 -17.088   0.227  0.00  0.00     0.037 A 
ATOM     17  C   UNL d   1      27.360 -15.636  -0.070  0.00  0.00     0.043 A 
BRANCH  17  18
ATOM     18  C   UNL d   1      27.373 -14.592   1.056  0.00  0.00    -0.049 A 
ATOM     19  C   UNL d   1      28.065 -14.825   2.261  0.00  0.00     0.008 A 
ATOM     20  C   UNL d   1      28.051 -13.898   3.315  0.00  0.00     0.004 A 
ATOM     21  C   UNL d   1      27.404 -12.676   3.162  0.00  0.00     0.042 A 
ATOM     22  C   UNL d   1      26.732 -12.416   1.981  0.00  0.00     0.116 A 
ATOM     23  F   UNL d   1      26.080 -11.256   1.827  0.00  0.00    -0.206 F 
ATOM     24  C   UNL d   1      26.707 -13.353   0.951  0.00  0.00     0.049 A 
ENDBRANCH  17  18
ENDBRANCH   4  15
TORSDOF 5
ENDMDL
MODEL 7
REMARK VINA RESULT:    -7.408      5.546      8.837
REMARK INTER + INTRA:          -9.385
REMARK INTER:                  -8.900
REMARK INTRA:                  -0.485
REMARK CONF_INDEPENDENT:        1.492
REMARK UNBOUND:                -0.485
REMARK  5 active torsions:
REMARK  status: ('A' for Active; 'I' for Inactive)
REMARK       I    between atoms: C_2  and  N_3 
REMARK       I    between atoms: C_2  and  N_12 
REMARK    1  A    between atoms: N_3  and  O_4 
REMARK    2  A    between atoms: O_4  and  C_5 
REMARK    3  A    between atoms: C_5  and  C_6 
REMARK    4  A    between atoms: C_13  and  N_12 
REMARK    5  A    between atoms: C_15  and  C_16 
ROOT
ATOM      1  O   UNL d   1      26.868 -14.022   1.664  0.00  0.00    -0.245 OA
ATOM      2  C   UNL d   1      27.854 -14.752   1.802  0.00  0.00     0.340 C 
ATOM      3  N   UNL d   1      28.827 -14.527   2.749  0.00  0.00    -0.216 N 
ATOM      4  N   UNL d   1      28.058 -15.868   0.983  0.00  0.00    -0.336 N 
ATOM      5  H   UNL d   1      29.603 -15.138   2.948  0.00  0.00     0.199 HD
ATOM      6  H   UNL d   1      28.766 -16.544   1.233  0.00  0.00     0.164 HD
ENDROOT
BRANCH   3   7
ATOM      7  O   UNL d   1      28.606 -13.388   3.585  0.00  0.00    -0.272 OA
BRANCH   7   8
ATOM      8  C   UNL d   1      27.648 -13.673   4.613  0.00  0.00     0.240 C 
BRANCH   8   9
ATOM      9  C   UNL d   1      28.192 -13.359   5.994  0.00  0.00    -0.032 A 
ATOM     10  C   UNL d   1      28.905 -14.333   6.715  0.00  0.00     0.009 A 
ATOM     11  C   UNL d   1      29.364 -14.074   8.011  0.00  0.00     0.001 A 
ATOM     12  C   UNL d   1      29.197 -12.811   8.572  0.00  0.00     0.000 A 
ATOM     13  C   UNL d   1      28.531 -11.819   7.853  0.00  0.00     0.001 A 
ATOM     14  C   UNL d   1      28.024 -12.093   6.577  0.00  0.00     0.009 A 
ENDBRANCH   8   9
ENDBRANCH   7   8
ENDBRANCH   3   7
BRANCH   4  15
ATOM     15  C   UNL d   1      26.981 -16.260   0.093  0.00  0.00     0.095 A 
ATOM     16  C   UNL d   1      27.254 -17.001  -1.191  0.00  0.00     0.037 A 
ATOM     17  C   UNL d   1      26.371 -17.632  -0.139  0.00  0.00     0.043 A 
BRANCH  17  18
ATOM     18  C   UNL d   1      24.850 -17.704  -0.340  0.00  0.00    -0.049 A 
ATOM     19  C   UNL d   1      24.143 -18.908  -0.145  0.00  0.00     0.008 A 
ATOM     20  C   UNL d   1      22.760 -19.000  -0.366  0.00  0.00     0.004 A 
ATOM     21  C   UNL d   1      22.032 -17.867  -0.716  0.00  0.00     0.042 A 
ATOM     22  C   UNL d   1      22.701 -16.669  -0.895  0.00  0.00     0.116 A 
ATOM     23  F   UNL d   1      22.020 -15.574  -1.260  0.00  0.00    -0.206 F 
ATOM     24  C   UNL d   1      24.080 -16.587  -0.721  0.00  0.00     0.049 A 
ENDBRANCH  17  18
ENDBRANCH   4  15
TORSDOF 5
ENDMDL
MODEL 8
REMARK VINA RESULT:    -6.888      5.380      7.401
REMARK INTER + INTRA:          -9.153
REMARK INTER:                  -8.379
REMARK INTRA:                  -0.774
REMARK CONF_INDEPENDENT:        1.492
REMARK UNBOUND:                -0.774
REMARK  5 active torsions:
REMARK  status: ('A' for Active; 'I' for Inactive)
REMARK       I    between atoms: C_2  and  N_3 
REMARK       I    between atoms: C_2  and  N_12 
REMARK    1  A    between atoms: N_3  and  O_4 
REMARK    2  A    between atoms: O_4  and  C_5 
REMARK    3  A    between atoms: C_5  and  C_6 
REMARK    4  A    between atoms: C_13  and  N_12 
REMARK    5  A    between atoms: C_15  and  C_16 
ROOT
ATOM      1  O   UNL d   1      26.281 -15.921  -5.770  0.00  0.00    -0.245 OA
ATOM      2  C   UNL d   1      26.806 -14.949  -5.219  0.00  0.00     0.340 C 
ATOM      3  N   UNL d   1      26.121 -14.108  -4.371  0.00  0.00    -0.216 N 
ATOM      4  N   UNL d   1      28.150 -14.625  -5.432  0.00  0.00    -0.336 N 
ATOM      5  H   UNL d   1      26.528 -13.354  -3.841  0.00  0.00     0.199 HD
ATOM      6  H   UNL d   1      28.597 -13.944  -4.834  0.00  0.00     0.164 HD
ENDROOT
BRANCH   3   7
ATOM      7  O   UNL d   1      24.750 -14.451  -4.155  0.00  0.00    -0.272 OA
BRANCH   7   8
ATOM      8  C   UNL d   1      24.395 -14.335  -2.771  0.00  0.00     0.240 C 
BRANCH   8   9
ATOM      9  C   UNL d   1      24.810 -15.559  -1.976  0.00  0.00    -0.032 A 
ATOM     10  C   UNL d   1      23.841 -16.355  -1.341  0.00  0.00     0.009 A 
ATOM     11  C   UNL d   1      24.214 -17.455  -0.561  0.00  0.00     0.001 A 
ATOM     12  C   UNL d   1      25.553 -17.829  -0.477  0.00  0.00     0.000 A 
ATOM     13  C   UNL d   1      26.522 -17.077  -1.137  0.00  0.00     0.001 A 
ATOM     14  C   UNL d   1      26.155 -15.944  -1.875  0.00  0.00     0.009 A 
ENDBRANCH   8   9
ENDBRANCH   7   8
ENDBRANCH   3   7
BRANCH   4  15
ATOM     15  C   UNL d   1      28.967 -15.574  -6.164  0.00  0.00     0.095 A 
ATOM     16  C   UNL d   1      30.230 -15.145  -6.867  0.00  0.00     0.037 A 
ATOM     17  C   UNL d   1      30.298 -16.199  -5.784  0.00  0.00     0.043 A 
BRANCH  17  18
ATOM     18  C   UNL d   1      30.516 -17.676  -6.147  0.00  0.00    -0.049 A 
ATOM     19  C   UNL d   1      30.405 -18.691  -5.177  0.00  0.00     0.008 A 
ATOM     20  C   UNL d   1      30.643 -20.040  -5.485  0.00  0.00     0.004 A 
ATOM     21  C   UNL d   1      30.925 -20.418  -6.793  0.00  0.00     0.042 A 
ATOM     22  C   UNL d   1      31.022 -19.441  -7.768  0.00  0.00     0.116 A 
ATOM     23  F   UNL d   1      31.321 -19.784  -9.028  0.00  0.00    -0.206 F 
ATOM     24  C   UNL d   1      30.831 -18.098  -7.455  0.00  0.00     0.049 A 
ENDBRANCH  17  18
ENDBRANCH   4  15
TORSDOF 5
ENDMDL
MODEL 9
REMARK VINA RESULT:    -6.619      4.526      8.393
REMARK INTER + INTRA:          -8.932
REMARK INTER:                  -8.110
REMARK INTRA:                  -0.822
REMARK CONF_INDEPENDENT:        1.492
REMARK UNBOUND:                -0.822
REMARK  5 active torsions:
REMARK  status: ('A' for Active; 'I' for Inactive)
REMARK       I    between atoms: C_2  and  N_3 
REMARK       I    between atoms: C_2  and  N_12 
REMARK    1  A    between atoms: N_3  and  O_4 
REMARK    2  A    between atoms: O_4  and  C_5 
REMARK    3  A    between atoms: C_5  and  C_6 
REMARK    4  A    between atoms: C_13  and  N_12 
REMARK    5  A    between atoms: C_15  and  C_16 
ROOT
ATOM      1  O   UNL d   1      28.751 -13.997  -0.074  0.00  0.00    -0.245 OA
ATOM      2  C   UNL d   1      29.127 -14.943   0.627  0.00  0.00     0.340 C 
ATOM      3  N   UNL d   1      30.206 -14.862   1.478  0.00  0.00    -0.216 N 
ATOM      4  N   UNL d   1      28.477 -16.181   0.594  0.00  0.00    -0.336 N 
ATOM      5  H   UNL d   1      30.497 -15.579   2.123  0.00  0.00     0.199 HD
ATOM      6  H   UNL d   1      28.687 -16.870   1.302  0.00  0.00     0.164 HD
ENDROOT
BRANCH   3   7
ATOM      7  O   UNL d   1      30.859 -13.590   1.510  0.00  0.00    -0.272 OA
BRANCH   7   8
ATOM      8  C   UNL d   1      30.951 -13.084   2.848  0.00  0.00     0.240 C 
BRANCH   8   9
ATOM      9  C   UNL d   1      29.783 -13.535   3.704  0.00  0.00    -0.032 A 
ATOM     10  C   UNL d   1      28.481 -13.090   3.419  0.00  0.00     0.009 A 
ATOM     11  C   UNL d   1      27.402 -13.454   4.233  0.00  0.00     0.001 A 
ATOM     12  C   UNL d   1      27.595 -14.340   5.291  0.00  0.00     0.000 A 
ATOM     13  C   UNL d   1      28.873 -14.826   5.560  0.00  0.00     0.001 A 
ATOM     14  C   UNL d   1      29.961 -14.420   4.779  0.00  0.00     0.009 A 
ENDBRANCH   8   9
ENDBRANCH   7   8
ENDBRANCH   3   7
BRANCH   4  15
ATOM     15  C   UNL d   1      27.229 -16.271  -0.140  0.00  0.00     0.095 A 
ATOM     16  C   UNL d   1      27.209 -16.456  -1.637  0.00  0.00     0.037 A 
ATOM     17  C   UNL d   1      26.551 -17.487  -0.748  0.00  0.00     0.043 A 
BRANCH  17  18
ATOM     18  C   UNL d   1      25.020 -17.566  -0.649  0.00  0.00    -0.049 A 
ATOM     19  C   UNL d   1      24.376 -18.736  -0.198  0.00  0.00     0.008 A 
ATOM     20  C   UNL d   1      22.977 -18.837  -0.143  0.00  0.00     0.004 A 
ATOM     21  C   UNL d   1      22.184 -17.742  -0.467  0.00  0.00     0.042 A 
ATOM     22  C   UNL d   1      22.794 -16.576  -0.895  0.00  0.00     0.116 A 
ATOM     23  F   UNL d   1      22.044 -15.519  -1.238  0.00  0.00    -0.206 F 
ATOM     24  C   UNL d   1      24.180 -16.488  -0.994  0.00  0.00     0.049 A 
ENDBRANCH  17  18
ENDBRANCH   4  15
TORSDOF 5
ENDMDL
