MODEL 1
REMARK VINA RESULT:    -9.208      0.000      0.000
REMARK INTER + INTRA:         -17.291
REMARK INTER:                 -14.279
REMARK INTRA:                  -3.012
REMARK CONF_INDEPENDENT:        5.071
REMARK UNBOUND:                -3.012
REMARK  17 active torsions:
REMARK  status: ('A' for Active; 'I' for Inactive)
REMARK    1  A    between atoms: C_2  and  C_3 
REMARK       I    between atoms: C_2  and  N_18 
REMARK    2  A    between atoms: C_3  and  C_4 
REMARK    3  A    between atoms: C_4  and  C_5 
REMARK    4  A    between atoms: C_5  and  C_6 
REMARK    5  A    between atoms: C_6  and  O_8 
REMARK    6  A    between atoms: O_8  and  C_9 
REMARK    7  A    between atoms: C_9  and  C_10 
REMARK    8  A    between atoms: C_10  and  C_11 
REMARK    9  A    between atoms: C_11  and  C_12 
REMARK   10  A    between atoms: N_18  and  C_19 
REMARK   11  A    between atoms: C_19  and  N_21 
REMARK   12  A    between atoms: N_21  and  C_22 
REMARK   13  A    between atoms: C_25  and  O_26 
REMARK   14  A    between atoms: O_26  and  C_27 
REMARK   15  A    between atoms: C_27  and  C_28 
REMARK   16  A    between atoms: C_28  and  O_29 
REMARK   17  A    between atoms: O_29  and  C_30 
ROOT
ATOM      1  C   UNL d   1      28.119 -14.086   0.593  0.00  0.00     0.178 C 
ATOM      2  S   UNL d   1      27.163 -13.016   1.498  0.00  0.00    -0.040 SA
ENDROOT
BRANCH   1   3
ATOM      3  N   UNL d   1      29.094 -13.682  -0.353  0.00  0.00    -0.304 N 
ATOM      4  C   UNL d   1      29.059 -13.606  -1.759  0.00  0.00     0.223 C 
ATOM      5  O   UNL d   1      29.998 -13.107  -2.379  0.00  0.00    -0.273 OA
ATOM      6  H   UNL d   1      29.971 -13.311  -0.007  0.00  0.00     0.171 HD
BRANCH   4   7
ATOM      7  C   UNL d   1      27.826 -14.166  -2.447  0.00  0.00     0.103 C 
BRANCH   7   8
ATOM      8  C   UNL d   1      26.719 -13.219  -2.836  0.00  0.00     0.019 C 
BRANCH   8   9
ATOM      9  C   UNL d   1      26.249 -13.485  -4.283  0.00  0.00     0.111 C 
BRANCH   9  10
ATOM     10  C   UNL d   1      26.380 -14.957  -4.578  0.00  0.00     0.258 C 
ATOM     11  O   UNL d   1      25.847 -15.841  -3.900  0.00  0.00    -0.265 OA
BRANCH  10  12
ATOM     12  O   UNL d   1      27.149 -15.201  -5.673  0.00  0.00    -0.321 OA
BRANCH  12  13
ATOM     13  C   UNL d   1      28.030 -14.105  -5.985  0.00  0.00     0.179 C 
BRANCH  13  14
ATOM     14  C   UNL d   1      29.481 -14.553  -5.883  0.00  0.00     0.031 C 
BRANCH  14  15
ATOM     15  C   UNL d   1      29.609 -16.063  -6.118  0.00  0.00     0.041 C 
BRANCH  15  16
ATOM     16  C   UNL d   1      29.980 -16.804  -4.858  0.00  0.00    -0.058 A 
ATOM     17  C   UNL d   1      29.436 -16.453  -3.614  0.00  0.00     0.007 A 
ATOM     18  C   UNL d   1      29.874 -17.086  -2.450  0.00  0.00     0.001 A 
ATOM     19  C   UNL d   1      30.787 -18.136  -2.527  0.00  0.00     0.000 A 
ATOM     20  C   UNL d   1      31.302 -18.520  -3.762  0.00  0.00     0.001 A 
ATOM     21  C   UNL d   1      30.909 -17.852  -4.920  0.00  0.00     0.007 A 
ENDBRANCH  15  16
ENDBRANCH  14  15
ENDBRANCH  13  14
ENDBRANCH  12  13
ENDBRANCH  10  12
ENDBRANCH   9  10
ENDBRANCH   8   9
ENDBRANCH   7   8
ENDBRANCH   4   7
ENDBRANCH   1   3
BRANCH   1  22
ATOM     22  N   UNL d   1      28.015 -15.485   0.750  0.00  0.00    -0.333 N 
ATOM     23  H   UNL d   1      28.557 -15.949   1.472  0.00  0.00     0.168 HD
BRANCH  22  24
ATOM     24  C   UNL d   1      26.896 -16.212   0.223  0.00  0.00     0.034 A 
ATOM     25  C   UNL d   1      25.899 -15.619  -0.551  0.00  0.00     0.032 A 
ATOM     26  C   UNL d   1      24.873 -16.426  -1.103  0.00  0.00     0.039 A 
ATOM     27  C   UNL d   1      24.877 -17.823  -0.952  0.00  0.00     0.069 A 
ATOM     28  C   UNL d   1      25.866 -18.397  -0.170  0.00  0.00     0.039 A 
ATOM     29  C   UNL d   1      26.822 -17.594   0.444  0.00  0.00     0.032 A 
BRANCH  27  30
ATOM     30  O   UNL d   1      23.894 -18.535  -1.596  0.00  0.00    -0.349 OA
BRANCH  30  31
ATOM     31  C   UNL d   1      22.836 -19.053  -0.767  0.00  0.00     0.202 C 
BRANCH  31  32
ATOM     32  C   UNL d   1      21.785 -17.969  -0.513  0.00  0.00     0.202 C 
BRANCH  32  33
ATOM     33  O   UNL d   1      20.494 -18.464  -0.893  0.00  0.00    -0.349 OA
BRANCH  33  34
ATOM     34  C   UNL d   1      19.907 -19.347  -0.023  0.00  0.00     0.068 A 
ATOM     35  C   UNL d   1      18.823 -20.077  -0.519  0.00  0.00     0.037 A 
ATOM     36  C   UNL d   1      18.074 -20.902   0.327  0.00  0.00     0.003 A 
ATOM     37  C   UNL d   1      18.443 -21.047   1.662  0.00  0.00     0.000 A 
ATOM     38  C   UNL d   1      19.529 -20.330   2.160  0.00  0.00     0.003 A 
ATOM     39  C   UNL d   1      20.251 -19.471   1.323  0.00  0.00     0.037 A 
ENDBRANCH  33  34
ENDBRANCH  32  33
ENDBRANCH  31  32
ENDBRANCH  30  31
ENDBRANCH  27  30
ENDBRANCH  22  24
ENDBRANCH   1  22
TORSDOF 17
ENDMDL
MODEL 2
REMARK VINA RESULT:    -9.183      1.538      3.933
REMARK INTER + INTRA:         -16.890
REMARK INTER:                 -14.254
REMARK INTRA:                  -2.636
REMARK CONF_INDEPENDENT:        5.071
REMARK UNBOUND:                -2.636
REMARK  17 active torsions:
REMARK  status: ('A' for Active; 'I' for Inactive)
REMARK    1  A    between atoms: C_2  and  C_3 
REMARK       I    between atoms: C_2  and  N_18 
REMARK    2  A    between atoms: C_3  and  C_4 
REMARK    3  A    between atoms: C_4  and  C_5 
REMARK    4  A    between atoms: C_5  and  C_6 
REMARK    5  A    between atoms: C_6  and  O_8 
REMARK    6  A    between atoms: O_8  and  C_9 
REMARK    7  A    between atoms: C_9  and  C_10 
REMARK    8  A    between atoms: C_10  and  C_11 
REMARK    9  A    between atoms: C_11  and  C_12 
REMARK   10  A    between atoms: N_18  and  C_19 
REMARK   11  A    between atoms: C_19  and  N_21 
REMARK   12  A    between atoms: N_21  and  C_22 
REMARK   13  A    between atoms: C_25  and  O_26 
REMARK   14  A    between atoms: O_26  and  C_27 
REMARK   15  A    between atoms: C_27  and  C_28 
REMARK   16  A    between atoms: C_28  and  O_29 
REMARK   17  A    between atoms: O_29  and  C_30 
ROOT
ATOM      1  C   UNL d   1      28.123 -14.043   0.947  0.00  0.00     0.178 C 
ATOM      2  S   UNL d   1      26.950 -13.250   1.882  0.00  0.00    -0.040 SA
ENDROOT
BRANCH   1   3
ATOM      3  N   UNL d   1      29.163 -13.386   0.243  0.00  0.00    -0.304 N 
ATOM      4  C   UNL d   1      29.695 -13.588  -1.045  0.00  0.00     0.223 C 
ATOM      5  O   UNL d   1      30.532 -12.810  -1.503  0.00  0.00    -0.273 OA
ATOM      6  H   UNL d   1      29.594 -12.575   0.674  0.00  0.00     0.171 HD
BRANCH   4   7
ATOM      7  C   UNL d   1      29.189 -14.796  -1.816  0.00  0.00     0.103 C 
BRANCH   7   8
ATOM      8  C   UNL d   1      29.284 -14.788  -3.320  0.00  0.00     0.019 C 
BRANCH   8   9
ATOM      9  C   UNL d   1      28.490 -15.966  -3.928  0.00  0.00     0.111 C 
BRANCH   9  10
ATOM     10  C   UNL d   1      27.300 -15.421  -4.675  0.00  0.00     0.258 C 
ATOM     11  O   UNL d   1      27.360 -14.970  -5.823  0.00  0.00    -0.265 OA
BRANCH  10  12
ATOM     12  O   UNL d   1      26.155 -15.482  -3.943  0.00  0.00    -0.321 OA
BRANCH  12  13
ATOM     13  C   UNL d   1      25.298 -14.346  -4.162  0.00  0.00     0.179 C 
BRANCH  13  14
ATOM     14  C   UNL d   1      25.266 -13.466  -2.920  0.00  0.00     0.031 C 
BRANCH  14  15
ATOM     15  C   UNL d   1      26.354 -12.387  -2.981  0.00  0.00     0.041 C 
BRANCH  15  16
ATOM     16  C   UNL d   1      26.069 -11.355  -4.043  0.00  0.00    -0.058 A 
ATOM     17  C   UNL d   1      25.589 -10.079  -3.714  0.00  0.00     0.007 A 
ATOM     18  C   UNL d   1      25.236  -9.178  -4.721  0.00  0.00     0.001 A 
ATOM     19  C   UNL d   1      25.446  -9.508  -6.058  0.00  0.00     0.000 A 
ATOM     20  C   UNL d   1      25.961 -10.758  -6.394  0.00  0.00     0.001 A 
ATOM     21  C   UNL d   1      26.262 -11.679  -5.393  0.00  0.00     0.007 A 
ENDBRANCH  15  16
ENDBRANCH  14  15
ENDBRANCH  13  14
ENDBRANCH  12  13
ENDBRANCH  10  12
ENDBRANCH   9  10
ENDBRANCH   8   9
ENDBRANCH   7   8
ENDBRANCH   4   7
ENDBRANCH   1   3
BRANCH   1  22
ATOM     22  N   UNL d   1      28.149 -15.450   0.830  0.00  0.00    -0.333 N 
ATOM     23  H   UNL d   1      28.818 -15.985   1.374  0.00  0.00     0.168 HD
BRANCH  22  24
ATOM     24  C   UNL d   1      27.028 -16.173   0.303  0.00  0.00     0.034 A 
ATOM     25  C   UNL d   1      26.065 -15.591  -0.520  0.00  0.00     0.032 A 
ATOM     26  C   UNL d   1      25.035 -16.398  -1.067  0.00  0.00     0.039 A 
ATOM     27  C   UNL d   1      25.004 -17.787  -0.859  0.00  0.00     0.069 A 
ATOM     28  C   UNL d   1      25.959 -18.350  -0.030  0.00  0.00     0.039 A 
ATOM     29  C   UNL d   1      26.917 -17.543   0.577  0.00  0.00     0.032 A 
BRANCH  27  30
ATOM     30  O   UNL d   1      24.022 -18.503  -1.500  0.00  0.00    -0.349 OA
BRANCH  30  31
ATOM     31  C   UNL d   1      22.918 -18.940  -0.685  0.00  0.00     0.202 C 
BRANCH  31  32
ATOM     32  C   UNL d   1      21.789 -17.906  -0.724  0.00  0.00     0.202 C 
BRANCH  32  33
ATOM     33  O   UNL d   1      20.564 -18.557  -1.083  0.00  0.00    -0.349 OA
BRANCH  33  34
ATOM     34  C   UNL d   1      19.992 -19.341  -0.115  0.00  0.00     0.068 A 
ATOM     35  C   UNL d   1      18.867 -20.077  -0.499  0.00  0.00     0.037 A 
ATOM     36  C   UNL d   1      18.134 -20.801   0.447  0.00  0.00     0.003 A 
ATOM     37  C   UNL d   1      18.557 -20.840   1.774  0.00  0.00     0.000 A 
ATOM     38  C   UNL d   1      19.683 -20.118   2.160  0.00  0.00     0.003 A 
ATOM     39  C   UNL d   1      20.391 -19.358   1.221  0.00  0.00     0.037 A 
ENDBRANCH  33  34
ENDBRANCH  32  33
ENDBRANCH  31  32
ENDBRANCH  30  31
ENDBRANCH  27  30
ENDBRANCH  22  24
ENDBRANCH   1  22
TORSDOF 17
ENDMDL
MODEL 3
REMARK VINA RESULT:    -9.109      1.601      2.009
REMARK INTER + INTRA:         -17.854
REMARK INTER:                 -14.180
REMARK INTRA:                  -3.673
REMARK CONF_INDEPENDENT:        5.071
REMARK UNBOUND:                -3.673
REMARK  17 active torsions:
REMARK  status: ('A' for Active; 'I' for Inactive)
REMARK    1  A    between atoms: C_2  and  C_3 
REMARK       I    between atoms: C_2  and  N_18 
REMARK    2  A    between atoms: C_3  and  C_4 
REMARK    3  A    between atoms: C_4  and  C_5 
REMARK    4  A    between atoms: C_5  and  C_6 
REMARK    5  A    between atoms: C_6  and  O_8 
REMARK    6  A    between atoms: O_8  and  C_9 
REMARK    7  A    between atoms: C_9  and  C_10 
REMARK    8  A    between atoms: C_10  and  C_11 
REMARK    9  A    between atoms: C_11  and  C_12 
REMARK   10  A    between atoms: N_18  and  C_19 
REMARK   11  A    between atoms: C_19  and  N_21 
REMARK   12  A    between atoms: N_21  and  C_22 
REMARK   13  A    between atoms: C_25  and  O_26 
REMARK   14  A    between atoms: O_26  and  C_27 
REMARK   15  A    between atoms: C_27  and  C_28 
REMARK   16  A    between atoms: C_28  and  O_29 
REMARK   17  A    between atoms: O_29  and  C_30 
ROOT
ATOM      1  C   UNL d   1      28.686 -15.503  -1.746  0.00  0.00     0.178 C 
ATOM      2  S   UNL d   1      30.142 -16.362  -1.895  0.00  0.00    -0.040 SA
ENDROOT
BRANCH   1   3
ATOM      3  N   UNL d   1      28.545 -14.286  -1.034  0.00  0.00    -0.304 N 
ATOM      4  C   UNL d   1      28.110 -13.008  -1.438  0.00  0.00     0.223 C 
ATOM      5  O   UNL d   1      27.954 -12.113  -0.608  0.00  0.00    -0.273 OA
ATOM      6  H   UNL d   1      28.713 -14.295  -0.034  0.00  0.00     0.171 HD
BRANCH   4   7
ATOM      7  C   UNL d   1      27.856 -12.807  -2.922  0.00  0.00     0.103 C 
BRANCH   7   8
ATOM      8  C   UNL d   1      26.466 -13.037  -3.458  0.00  0.00     0.019 C 
BRANCH   8   9
ATOM      9  C   UNL d   1      26.514 -13.544  -4.916  0.00  0.00     0.111 C 
BRANCH   9  10
ATOM     10  C   UNL d   1      26.511 -15.051  -4.910  0.00  0.00     0.258 C 
ATOM     11  O   UNL d   1      25.585 -15.733  -4.460  0.00  0.00    -0.265 OA
BRANCH  10  12
ATOM     12  O   UNL d   1      27.642 -15.574  -5.458  0.00  0.00    -0.321 OA
BRANCH  12  13
ATOM     13  C   UNL d   1      28.352 -14.623  -6.272  0.00  0.00     0.179 C 
BRANCH  13  14
ATOM     14  C   UNL d   1      29.403 -13.901  -5.439  0.00  0.00     0.031 C 
BRANCH  14  15
ATOM     15  C   UNL d   1      30.368 -14.898  -4.786  0.00  0.00     0.041 C 
BRANCH  15  16
ATOM     16  C   UNL d   1      30.527 -16.154  -5.607  0.00  0.00    -0.058 A 
ATOM     17  C   UNL d   1      30.150 -17.408  -5.106  0.00  0.00     0.007 A 
ATOM     18  C   UNL d   1      30.403 -18.566  -5.844  0.00  0.00     0.001 A 
ATOM     19  C   UNL d   1      30.949 -18.474  -7.123  0.00  0.00     0.000 A 
ATOM     20  C   UNL d   1      31.289 -17.228  -7.646  0.00  0.00     0.001 A 
ATOM     21  C   UNL d   1      31.089 -16.076  -6.888  0.00  0.00     0.007 A 
ENDBRANCH  15  16
ENDBRANCH  14  15
ENDBRANCH  13  14
ENDBRANCH  12  13
ENDBRANCH  10  12
ENDBRANCH   9  10
ENDBRANCH   8   9
ENDBRANCH   7   8
ENDBRANCH   4   7
ENDBRANCH   1   3
BRANCH   1  22
ATOM     22  N   UNL d   1      27.497 -15.950  -2.362  0.00  0.00    -0.333 N 
ATOM     23  H   UNL d   1      27.510 -16.213  -3.342  0.00  0.00     0.168 HD
BRANCH  22  24
ATOM     24  C   UNL d   1      26.391 -16.430  -1.584  0.00  0.00     0.034 A 
ATOM     25  C   UNL d   1      25.087 -15.966  -1.748  0.00  0.00     0.032 A 
ATOM     26  C   UNL d   1      24.039 -16.555  -0.996  0.00  0.00     0.039 A 
ATOM     27  C   UNL d   1      24.271 -17.647  -0.143  0.00  0.00     0.069 A 
ATOM     28  C   UNL d   1      25.573 -18.088   0.019  0.00  0.00     0.039 A 
ATOM     29  C   UNL d   1      26.613 -17.452  -0.652  0.00  0.00     0.032 A 
BRANCH  27  30
ATOM     30  O   UNL d   1      23.183 -18.211   0.477  0.00  0.00    -0.349 OA
BRANCH  30  31
ATOM     31  C   UNL d   1      22.571 -19.326  -0.201  0.00  0.00     0.202 C 
BRANCH  31  32
ATOM     32  C   UNL d   1      21.596 -18.824  -1.270  0.00  0.00     0.202 C 
BRANCH  32  33
ATOM     33  O   UNL d   1      20.374 -18.417  -0.641  0.00  0.00    -0.349 OA
BRANCH  33  34
ATOM     34  C   UNL d   1      19.753 -19.361   0.136  0.00  0.00     0.068 A 
ATOM     35  C   UNL d   1      18.782 -20.143  -0.497  0.00  0.00     0.037 A 
ATOM     36  C   UNL d   1      18.000 -21.039   0.238  0.00  0.00     0.003 A 
ATOM     37  C   UNL d   1      18.224 -21.201   1.604  0.00  0.00     0.000 A 
ATOM     38  C   UNL d   1      19.198 -20.432   2.239  0.00  0.00     0.003 A 
ATOM     39  C   UNL d   1      19.950 -19.504   1.509  0.00  0.00     0.037 A 
ENDBRANCH  33  34
ENDBRANCH  32  33
ENDBRANCH  31  32
ENDBRANCH  30  31
ENDBRANCH  27  30
ENDBRANCH  22  24
ENDBRANCH   1  22
TORSDOF 17
ENDMDL
MODEL 4
REMARK VINA RESULT:    -8.794      1.993      3.838
REMARK INTER + INTRA:         -16.621
REMARK INTER:                 -13.865
REMARK INTRA:                  -2.756
REMARK CONF_INDEPENDENT:        5.071
REMARK UNBOUND:                -2.756
REMARK  17 active torsions:
REMARK  status: ('A' for Active; 'I' for Inactive)
REMARK    1  A    between atoms: C_2  and  C_3 
REMARK       I    between atoms: C_2  and  N_18 
REMARK    2  A    between atoms: C_3  and  C_4 
REMARK    3  A    between atoms: C_4  and  C_5 
REMARK    4  A    between atoms: C_5  and  C_6 
REMARK    5  A    between atoms: C_6  and  O_8 
REMARK    6  A    between atoms: O_8  and  C_9 
REMARK    7  A    between atoms: C_9  and  C_10 
REMARK    8  A    between atoms: C_10  and  C_11 
REMARK    9  A    between atoms: C_11  and  C_12 
REMARK   10  A    between atoms: N_18  and  C_19 
REMARK   11  A    between atoms: C_19  and  N_21 
REMARK   12  A    between atoms: N_21  and  C_22 
REMARK   13  A    between atoms: C_25  and  O_26 
REMARK   14  A    between atoms: O_26  and  C_27 
REMARK   15  A    between atoms: C_27  and  C_28 
REMARK   16  A    between atoms: C_28  and  O_29 
REMARK   17  A    between atoms: O_29  and  C_30 
ROOT
ATOM      1  C   UNL d   1      30.025 -16.530  -0.333  0.00  0.00     0.178 C 
ATOM      2  S   UNL d   1      30.810 -15.151  -0.936  0.00  0.00    -0.040 SA
ENDROOT
BRANCH   1   3
ATOM      3  N   UNL d   1      30.451 -17.860  -0.570  0.00  0.00    -0.304 N 
ATOM      4  C   UNL d   1      30.783 -18.540  -1.758  0.00  0.00     0.223 C 
ATOM      5  O   UNL d   1      31.248 -19.679  -1.715  0.00  0.00    -0.273 OA
ATOM      6  H   UNL d   1      30.626 -18.456   0.232  0.00  0.00     0.171 HD
BRANCH   4   7
ATOM      7  C   UNL d   1      30.536 -17.802  -3.063  0.00  0.00     0.103 C 
BRANCH   7   8
ATOM      8  C   UNL d   1      30.436 -18.599  -4.339  0.00  0.00     0.019 C 
BRANCH   8   9
ATOM      9  C   UNL d   1      31.543 -18.187  -5.334  0.00  0.00     0.111 C 
BRANCH   9  10
ATOM     10  C   UNL d   1      30.958 -17.248  -6.357  0.00  0.00     0.258 C 
ATOM     11  O   UNL d   1      31.382 -17.143  -7.512  0.00  0.00    -0.265 OA
BRANCH  10  12
ATOM     12  O   UNL d   1      29.911 -16.531  -5.865  0.00  0.00    -0.321 OA
BRANCH  12  13
ATOM     13  C   UNL d   1      29.699 -15.301  -6.583  0.00  0.00     0.179 C 
BRANCH  13  14
ATOM     14  C   UNL d   1      29.789 -14.116  -5.631  0.00  0.00     0.031 C 
BRANCH  14  15
ATOM     15  C   UNL d   1      29.296 -14.497  -4.230  0.00  0.00     0.041 C 
BRANCH  15  16
ATOM     16  C   UNL d   1      27.805 -14.326  -4.087  0.00  0.00    -0.058 A 
ATOM     17  C   UNL d   1      26.903 -15.204  -4.705  0.00  0.00     0.007 A 
ATOM     18  C   UNL d   1      25.530 -14.963  -4.642  0.00  0.00     0.001 A 
ATOM     19  C   UNL d   1      25.041 -13.899  -3.887  0.00  0.00     0.000 A 
ATOM     20  C   UNL d   1      25.927 -13.044  -3.235  0.00  0.00     0.001 A 
ATOM     21  C   UNL d   1      27.301 -13.251  -3.343  0.00  0.00     0.007 A 
ENDBRANCH  15  16
ENDBRANCH  14  15
ENDBRANCH  13  14
ENDBRANCH  12  13
ENDBRANCH  10  12
ENDBRANCH   9  10
ENDBRANCH   8   9
ENDBRANCH   7   8
ENDBRANCH   4   7
ENDBRANCH   1   3
BRANCH   1  22
ATOM     22  N   UNL d   1      28.880 -16.430   0.487  0.00  0.00    -0.333 N 
ATOM     23  H   UNL d   1      28.932 -15.912   1.358  0.00  0.00     0.168 HD
BRANCH  22  24
ATOM     24  C   UNL d   1      27.566 -16.671  -0.037  0.00  0.00     0.034 A 
ATOM     25  C   UNL d   1      27.066 -16.023  -1.166  0.00  0.00     0.032 A 
ATOM     26  C   UNL d   1      25.790 -16.381  -1.666  0.00  0.00     0.039 A 
ATOM     27  C   UNL d   1      25.045 -17.427  -1.096  0.00  0.00     0.069 A 
ATOM     28  C   UNL d   1      25.548 -18.053   0.032  0.00  0.00     0.039 A 
ATOM     29  C   UNL d   1      26.761 -17.640   0.575  0.00  0.00     0.032 A 
BRANCH  27  30
ATOM     30  O   UNL d   1      23.858 -17.766  -1.701  0.00  0.00    -0.349 OA
BRANCH  30  31
ATOM     31  C   UNL d   1      23.043 -18.730  -1.007  0.00  0.00     0.202 C 
BRANCH  31  32
ATOM     32  C   UNL d   1      21.602 -18.224  -0.900  0.00  0.00     0.202 C 
BRANCH  32  33
ATOM     33  O   UNL d   1      20.700 -19.313  -1.138  0.00  0.00    -0.349 OA
BRANCH  33  34
ATOM     34  C   UNL d   1      20.053 -19.811  -0.036  0.00  0.00     0.068 A 
ATOM     35  C   UNL d   1      18.831 -20.449  -0.272  0.00  0.00     0.037 A 
ATOM     36  C   UNL d   1      18.032 -20.871   0.796  0.00  0.00     0.003 A 
ATOM     37  C   UNL d   1      18.478 -20.709   2.106  0.00  0.00     0.000 A 
ATOM     38  C   UNL d   1      19.700 -20.083   2.346  0.00  0.00     0.003 A 
ATOM     39  C   UNL d   1      20.479 -19.623   1.279  0.00  0.00     0.037 A 
ENDBRANCH  33  34
ENDBRANCH  32  33
ENDBRANCH  31  32
ENDBRANCH  30  31
ENDBRANCH  27  30
ENDBRANCH  22  24
ENDBRANCH   1  22
TORSDOF 17
ENDMDL
MODEL 5
REMARK VINA RESULT:    -8.321      2.200      4.397
REMARK INTER + INTRA:         -16.721
REMARK INTER:                 -13.393
REMARK INTRA:                  -3.329
REMARK CONF_INDEPENDENT:        5.071
REMARK UNBOUND:                -3.329
REMARK  17 active torsions:
REMARK  status: ('A' for Active; 'I' for Inactive)
REMARK    1  A    between atoms: C_2  and  C_3 
REMARK       I    between atoms: C_2  and  N_18 
REMARK    2  A    between atoms: C_3  and  C_4 
REMARK    3  A    between atoms: C_4  and  C_5 
REMARK    4  A    between atoms: C_5  and  C_6 
REMARK    5  A    between atoms: C_6  and  O_8 
REMARK    6  A    between atoms: O_8  and  C_9 
REMARK    7  A    between atoms: C_9  and  C_10 
REMARK    8  A    between atoms: C_10  and  C_11 
REMARK    9  A    between atoms: C_11  and  C_12 
REMARK   10  A    between atoms: N_18  and  C_19 
REMARK   11  A    between atoms: C_19  and  N_21 
REMARK   12  A    between atoms: N_21  and  C_22 
REMARK   13  A    between atoms: C_25  and  O_26 
REMARK   14  A    between atoms: O_26  and  C_27 
REMARK   15  A    between atoms: C_27  and  C_28 
REMARK   16  A    between atoms: C_28  and  O_29 
REMARK   17  A    between atoms: O_29  and  C_30 
ROOT
ATOM      1  C   UNL d   1      29.452 -16.751  -1.391  0.00  0.00     0.178 C 
ATOM      2  S   UNL d   1      29.936 -15.928   0.012  0.00  0.00    -0.040 SA
ENDROOT
BRANCH   1   3
ATOM      3  N   UNL d   1      30.209 -17.770  -2.021  0.00  0.00    -0.304 N 
ATOM      4  C   UNL d   1      30.947 -17.783  -3.221  0.00  0.00     0.223 C 
ATOM      5  O   UNL d   1      31.633 -18.760  -3.520  0.00  0.00    -0.273 OA
ATOM      6  H   UNL d   1      30.327 -18.650  -1.532  0.00  0.00     0.171 HD
BRANCH   4   7
ATOM      7  C   UNL d   1      30.844 -16.551  -4.104  0.00  0.00     0.103 C 
BRANCH   7   8
ATOM      8  C   UNL d   1      30.327 -16.708  -5.512  0.00  0.00     0.019 C 
BRANCH   8   9
ATOM      9  C   UNL d   1      29.466 -15.493  -5.921  0.00  0.00     0.111 C 
BRANCH   9  10
ATOM     10  C   UNL d   1      28.521 -15.162  -4.795  0.00  0.00     0.258 C 
ATOM     11  O   UNL d   1      28.817 -14.430  -3.845  0.00  0.00    -0.265 OA
BRANCH  10  12
ATOM     12  O   UNL d   1      27.306 -15.756  -4.944  0.00  0.00    -0.321 OA
BRANCH  12  13
ATOM     13  C   UNL d   1      26.231 -14.802  -5.027  0.00  0.00     0.179 C 
BRANCH  13  14
ATOM     14  C   UNL d   1      26.184 -13.954  -3.763  0.00  0.00     0.031 C 
BRANCH  14  15
ATOM     15  C   UNL d   1      25.211 -12.780  -3.924  0.00  0.00     0.041 C 
BRANCH  15  16
ATOM     16  C   UNL d   1      25.860 -11.593  -4.592  0.00  0.00    -0.058 A 
ATOM     17  C   UNL d   1      25.757 -10.303  -4.053  0.00  0.00     0.007 A 
ATOM     18  C   UNL d   1      26.278  -9.208  -4.744  0.00  0.00     0.001 A 
ATOM     19  C   UNL d   1      26.984  -9.401  -5.929  0.00  0.00     0.000 A 
ATOM     20  C   UNL d   1      27.128 -10.684  -6.452  0.00  0.00     0.001 A 
ATOM     21  C   UNL d   1      26.560 -11.772  -5.792  0.00  0.00     0.007 A 
ENDBRANCH  15  16
ENDBRANCH  14  15
ENDBRANCH  13  14
ENDBRANCH  12  13
ENDBRANCH  10  12
ENDBRANCH   9  10
ENDBRANCH   8   9
ENDBRANCH   7   8
ENDBRANCH   4   7
ENDBRANCH   1   3
BRANCH   1  22
ATOM     22  N   UNL d   1      28.219 -16.478  -2.021  0.00  0.00    -0.333 N 
ATOM     23  H   UNL d   1      28.191 -16.337  -3.025  0.00  0.00     0.168 HD
BRANCH  22  24
ATOM     24  C   UNL d   1      26.972 -16.789  -1.382  0.00  0.00     0.034 A 
ATOM     25  C   UNL d   1      25.750 -16.269  -1.804  0.00  0.00     0.032 A 
ATOM     26  C   UNL d   1      24.555 -16.695  -1.170  0.00  0.00     0.039 A 
ATOM     27  C   UNL d   1      24.566 -17.686  -0.174  0.00  0.00     0.069 A 
ATOM     28  C   UNL d   1      25.789 -18.184   0.243  0.00  0.00     0.039 A 
ATOM     29  C   UNL d   1      26.967 -17.701  -0.319  0.00  0.00     0.032 A 
BRANCH  27  30
ATOM     30  O   UNL d   1      23.354 -18.102   0.322  0.00  0.00    -0.349 OA
BRANCH  30  31
ATOM     31  C   UNL d   1      22.804 -19.299  -0.262  0.00  0.00     0.202 C 
BRANCH  31  32
ATOM     32  C   UNL d   1      21.707 -18.941  -1.268  0.00  0.00     0.202 C 
BRANCH  32  33
ATOM     33  O   UNL d   1      20.590 -18.376  -0.568  0.00  0.00    -0.349 OA
BRANCH  33  34
ATOM     34  C   UNL d   1      19.787 -19.265   0.099  0.00  0.00     0.068 A 
ATOM     35  C   UNL d   1      20.077 -19.468   1.451  0.00  0.00     0.037 A 
ATOM     36  C   UNL d   1      19.403 -20.451   2.184  0.00  0.00     0.003 A 
ATOM     37  C   UNL d   1      18.392 -21.197   1.581  0.00  0.00     0.000 A 
ATOM     38  C   UNL d   1      18.091 -20.992   0.236  0.00  0.00     0.003 A 
ATOM     39  C   UNL d   1      18.796 -20.038  -0.507  0.00  0.00     0.037 A 
ENDBRANCH  33  34
ENDBRANCH  32  33
ENDBRANCH  31  32
ENDBRANCH  30  31
ENDBRANCH  27  30
ENDBRANCH  22  24
ENDBRANCH   1  22
TORSDOF 17
ENDMDL
MODEL 6
REMARK VINA RESULT:    -8.194      1.830      3.967
REMARK INTER + INTRA:         -17.619
REMARK INTER:                 -13.265
REMARK INTRA:                  -4.354
REMARK CONF_INDEPENDENT:        5.071
REMARK UNBOUND:                -4.354
REMARK  17 active torsions:
REMARK  status: ('A' for Active; 'I' for Inactive)
REMARK    1  A    between atoms: C_2  and  C_3 
REMARK       I    between atoms: C_2  and  N_18 
REMARK    2  A    between atoms: C_3  and  C_4 
REMARK    3  A    between atoms: C_4  and  C_5 
REMARK    4  A    between atoms: C_5  and  C_6 
REMARK    5  A    between atoms: C_6  and  O_8 
REMARK    6  A    between atoms: O_8  and  C_9 
REMARK    7  A    between atoms: C_9  and  C_10 
REMARK    8  A    between atoms: C_10  and  C_11 
REMARK    9  A    between atoms: C_11  and  C_12 
REMARK   10  A    between atoms: N_18  and  C_19 
REMARK   11  A    between atoms: C_19  and  N_21 
REMARK   12  A    between atoms: N_21  and  C_22 
REMARK   13  A    between atoms: C_25  and  O_26 
REMARK   14  A    between atoms: O_26  and  C_27 
REMARK   15  A    between atoms: C_27  and  C_28 
REMARK   16  A    between atoms: C_28  and  O_29 
REMARK   17  A    between atoms: O_29  and  C_30 
ROOT
ATOM      1  C   UNL d   1      29.202 -15.726  -3.014  0.00  0.00     0.178 C 
ATOM      2  S   UNL d   1      30.441 -14.872  -2.230  0.00  0.00    -0.040 SA
ENDROOT
BRANCH   1   3
ATOM      3  N   UNL d   1      29.395 -16.923  -3.747  0.00  0.00    -0.304 N 
ATOM      4  C   UNL d   1      30.027 -17.174  -4.981  0.00  0.00     0.223 C 
ATOM      5  O   UNL d   1      30.183 -18.329  -5.378  0.00  0.00    -0.273 OA
ATOM      6  H   UNL d   1      29.102 -17.797  -3.324  0.00  0.00     0.171 HD
BRANCH   4   7
ATOM      7  C   UNL d   1      30.490 -15.963  -5.774  0.00  0.00     0.103 C 
BRANCH   7   8
ATOM      8  C   UNL d   1      29.543 -15.344  -6.771  0.00  0.00     0.019 C 
BRANCH   8   9
ATOM      9  C   UNL d   1      29.011 -13.989  -6.256  0.00  0.00     0.111 C 
BRANCH   9  10
ATOM     10  C   UNL d   1      27.619 -14.184  -5.712  0.00  0.00     0.258 C 
ATOM     11  O   UNL d   1      27.005 -15.254  -5.770  0.00  0.00    -0.265 OA
BRANCH  10  12
ATOM     12  O   UNL d   1      27.117 -13.051  -5.151  0.00  0.00    -0.321 OA
BRANCH  12  13
ATOM     13  C   UNL d   1      25.781 -13.231  -4.644  0.00  0.00     0.179 C 
BRANCH  13  14
ATOM     14  C   UNL d   1      25.731 -12.883  -3.162  0.00  0.00     0.031 C 
BRANCH  14  15
ATOM     15  C   UNL d   1      27.027 -12.199  -2.713  0.00  0.00     0.041 C 
BRANCH  15  16
ATOM     16  C   UNL d   1      27.413 -12.582  -1.306  0.00  0.00    -0.058 A 
ATOM     17  C   UNL d   1      26.560 -13.343  -0.494  0.00  0.00     0.007 A 
ATOM     18  C   UNL d   1      26.895 -13.595   0.837  0.00  0.00     0.001 A 
ATOM     19  C   UNL d   1      28.122 -13.170   1.341  0.00  0.00     0.000 A 
ATOM     20  C   UNL d   1      28.995 -12.448   0.531  0.00  0.00     0.001 A 
ATOM     21  C   UNL d   1      28.637 -12.147  -0.782  0.00  0.00     0.007 A 
ENDBRANCH  15  16
ENDBRANCH  14  15
ENDBRANCH  13  14
ENDBRANCH  12  13
ENDBRANCH  10  12
ENDBRANCH   9  10
ENDBRANCH   8   9
ENDBRANCH   7   8
ENDBRANCH   4   7
ENDBRANCH   1   3
BRANCH   1  22
ATOM     22  N   UNL d   1      27.858 -15.296  -2.959  0.00  0.00    -0.333 N 
ATOM     23  H   UNL d   1      27.499 -14.686  -3.687  0.00  0.00     0.168 HD
BRANCH  22  24
ATOM     24  C   UNL d   1      26.885 -15.994  -2.170  0.00  0.00     0.034 A 
ATOM     25  C   UNL d   1      25.528 -16.027  -2.488  0.00  0.00     0.032 A 
ATOM     26  C   UNL d   1      24.646 -16.810  -1.701  0.00  0.00     0.039 A 
ATOM     27  C   UNL d   1      25.119 -17.614  -0.650  0.00  0.00     0.069 A 
ATOM     28  C   UNL d   1      26.467 -17.562  -0.338  0.00  0.00     0.039 A 
ATOM     29  C   UNL d   1      27.316 -16.725  -1.055  0.00  0.00     0.032 A 
BRANCH  27  30
ATOM     30  O   UNL d   1      24.206 -18.409   0.001  0.00  0.00    -0.349 OA
BRANCH  30  31
ATOM     31  C   UNL d   1      23.261 -19.107  -0.832  0.00  0.00     0.202 C 
BRANCH  31  32
ATOM     32  C   UNL d   1      21.937 -18.339  -0.888  0.00  0.00     0.202 C 
BRANCH  32  33
ATOM     33  O   UNL d   1      20.885 -19.239  -1.259  0.00  0.00    -0.349 OA
BRANCH  33  34
ATOM     34  C   UNL d   1      20.077 -19.674  -0.241  0.00  0.00     0.068 A 
ATOM     35  C   UNL d   1      20.588 -19.544   1.054  0.00  0.00     0.037 A 
ATOM     36  C   UNL d   1      19.899 -20.079   2.148  0.00  0.00     0.003 A 
ATOM     37  C   UNL d   1      18.665 -20.697   1.959  0.00  0.00     0.000 A 
ATOM     38  C   UNL d   1      18.145 -20.820   0.672  0.00  0.00     0.003 A 
ATOM     39  C   UNL d   1      18.856 -20.322  -0.427  0.00  0.00     0.037 A 
ENDBRANCH  33  34
ENDBRANCH  32  33
ENDBRANCH  31  32
ENDBRANCH  30  31
ENDBRANCH  27  30
ENDBRANCH  22  24
ENDBRANCH   1  22
TORSDOF 17
ENDMDL
MODEL 7
REMARK VINA RESULT:    -7.934      1.615      3.336
REMARK INTER + INTRA:         -16.503
REMARK INTER:                 -13.005
REMARK INTRA:                  -3.498
REMARK CONF_INDEPENDENT:        5.071
REMARK UNBOUND:                -3.498
REMARK  17 active torsions:
REMARK  status: ('A' for Active; 'I' for Inactive)
REMARK    1  A    between atoms: C_2  and  C_3 
REMARK       I    between atoms: C_2  and  N_18 
REMARK    2  A    between atoms: C_3  and  C_4 
REMARK    3  A    between atoms: C_4  and  C_5 
REMARK    4  A    between atoms: C_5  and  C_6 
REMARK    5  A    between atoms: C_6  and  O_8 
REMARK    6  A    between atoms: O_8  and  C_9 
REMARK    7  A    between atoms: C_9  and  C_10 
REMARK    8  A    between atoms: C_10  and  C_11 
REMARK    9  A    between atoms: C_11  and  C_12 
REMARK   10  A    between atoms: N_18  and  C_19 
REMARK   11  A    between atoms: C_19  and  N_21 
REMARK   12  A    between atoms: N_21  and  C_22 
REMARK   13  A    between atoms: C_25  and  O_26 
REMARK   14  A    between atoms: O_26  and  C_27 
REMARK   15  A    between atoms: C_27  and  C_28 
REMARK   16  A    between atoms: C_28  and  O_29 
REMARK   17  A    between atoms: O_29  and  C_30 
ROOT
ATOM      1  C   UNL d   1      29.795 -15.061   0.118  0.00  0.00     0.178 C 
ATOM      2  S   UNL d   1      29.481 -13.666   1.031  0.00  0.00    -0.040 SA
ENDROOT
BRANCH   1   3
ATOM      3  N   UNL d   1      30.740 -15.130  -0.936  0.00  0.00    -0.304 N 
ATOM      4  C   UNL d   1      30.630 -15.584  -2.265  0.00  0.00     0.223 C 
ATOM      5  O   UNL d   1      31.566 -15.440  -3.052  0.00  0.00    -0.273 OA
ATOM      6  H   UNL d   1      31.661 -14.737  -0.779  0.00  0.00     0.171 HD
BRANCH   4   7
ATOM      7  C   UNL d   1      29.321 -16.248  -2.658  0.00  0.00     0.103 C 
BRANCH   7   8
ATOM      8  C   UNL d   1      28.622 -15.789  -3.912  0.00  0.00     0.019 C 
BRANCH   8   9
ATOM      9  C   UNL d   1      27.115 -15.575  -3.655  0.00  0.00     0.111 C 
BRANCH   9  10
ATOM     10  C   UNL d   1      26.449 -15.177  -4.947  0.00  0.00     0.258 C 
ATOM     11  O   UNL d   1      27.014 -15.205  -6.045  0.00  0.00    -0.265 OA
BRANCH  10  12
ATOM     12  O   UNL d   1      25.159 -14.784  -4.768  0.00  0.00    -0.321 OA
BRANCH  12  13
ATOM     13  C   UNL d   1      24.877 -14.420  -3.403  0.00  0.00     0.179 C 
BRANCH  13  14
ATOM     14  C   UNL d   1      25.173 -12.942  -3.184  0.00  0.00     0.031 C 
BRANCH  14  15
ATOM     15  C   UNL d   1      26.290 -12.752  -2.151  0.00  0.00     0.041 C 
BRANCH  15  16
ATOM     16  C   UNL d   1      27.574 -12.278  -2.786  0.00  0.00    -0.058 A 
ATOM     17  C   UNL d   1      27.571 -11.398  -3.877  0.00  0.00     0.007 A 
ATOM     18  C   UNL d   1      28.767 -11.057  -4.510  0.00  0.00     0.001 A 
ATOM     19  C   UNL d   1      29.981 -11.516  -4.004  0.00  0.00     0.000 A 
ATOM     20  C   UNL d   1      29.998 -12.359  -2.895  0.00  0.00     0.001 A 
ATOM     21  C   UNL d   1      28.801 -12.746  -2.296  0.00  0.00     0.007 A 
ENDBRANCH  15  16
ENDBRANCH  14  15
ENDBRANCH  13  14
ENDBRANCH  12  13
ENDBRANCH  10  12
ENDBRANCH   9  10
ENDBRANCH   8   9
ENDBRANCH   7   8
ENDBRANCH   4   7
ENDBRANCH   1   3
BRANCH   1  22
ATOM     22  N   UNL d   1      29.131 -16.280   0.376  0.00  0.00    -0.333 N 
ATOM     23  H   UNL d   1      29.554 -16.956   1.004  0.00  0.00     0.168 HD
BRANCH  22  24
ATOM     24  C   UNL d   1      27.727 -16.431   0.123  0.00  0.00     0.034 A 
ATOM     25  C   UNL d   1      26.886 -15.357  -0.167  0.00  0.00     0.032 A 
ATOM     26  C   UNL d   1      25.528 -15.604  -0.488  0.00  0.00     0.039 A 
ATOM     27  C   UNL d   1      25.024 -16.911  -0.594  0.00  0.00     0.069 A 
ATOM     28  C   UNL d   1      25.867 -17.967  -0.290  0.00  0.00     0.039 A 
ATOM     29  C   UNL d   1      27.177 -17.719   0.110  0.00  0.00     0.032 A 
BRANCH  27  30
ATOM     30  O   UNL d   1      23.719 -17.058  -0.997  0.00  0.00    -0.349 OA
BRANCH  30  31
ATOM     31  C   UNL d   1      23.285 -18.405  -1.270  0.00  0.00     0.202 C 
BRANCH  31  32
ATOM     32  C   UNL d   1      21.785 -18.543  -0.996  0.00  0.00     0.202 C 
BRANCH  32  33
ATOM     33  O   UNL d   1      21.586 -18.870   0.386  0.00  0.00    -0.349 OA
BRANCH  33  34
ATOM     34  C   UNL d   1      20.411 -19.508   0.690  0.00  0.00     0.068 A 
ATOM     35  C   UNL d   1      20.141 -19.694   2.049  0.00  0.00     0.037 A 
ATOM     36  C   UNL d   1      19.038 -20.450   2.458  0.00  0.00     0.003 A 
ATOM     37  C   UNL d   1      18.163 -20.975   1.510  0.00  0.00     0.000 A 
ATOM     38  C   UNL d   1      18.421 -20.785   0.154  0.00  0.00     0.003 A 
ATOM     39  C   UNL d   1      19.550 -20.065  -0.256  0.00  0.00     0.037 A 
ENDBRANCH  33  34
ENDBRANCH  32  33
ENDBRANCH  31  32
ENDBRANCH  30  31
ENDBRANCH  27  30
ENDBRANCH  22  24
ENDBRANCH   1  22
TORSDOF 17
ENDMDL
MODEL 8
REMARK VINA RESULT:    -7.729      2.208      3.802
REMARK INTER + INTRA:         -16.706
REMARK INTER:                 -12.800
REMARK INTRA:                  -3.906
REMARK CONF_INDEPENDENT:        5.071
REMARK UNBOUND:                -3.906
REMARK  17 active torsions:
REMARK  status: ('A' for Active; 'I' for Inactive)
REMARK    1  A    between atoms: C_2  and  C_3 
REMARK       I    between atoms: C_2  and  N_18 
REMARK    2  A    between atoms: C_3  and  C_4 
REMARK    3  A    between atoms: C_4  and  C_5 
REMARK    4  A    between atoms: C_5  and  C_6 
REMARK    5  A    between atoms: C_6  and  O_8 
REMARK    6  A    between atoms: O_8  and  C_9 
REMARK    7  A    between atoms: C_9  and  C_10 
REMARK    8  A    between atoms: C_10  and  C_11 
REMARK    9  A    between atoms: C_11  and  C_12 
REMARK   10  A    between atoms: N_18  and  C_19 
REMARK   11  A    between atoms: C_19  and  N_21 
REMARK   12  A    between atoms: N_21  and  C_22 
REMARK   13  A    between atoms: C_25  and  O_26 
REMARK   14  A    between atoms: O_26  and  C_27 
REMARK   15  A    between atoms: C_27  and  C_28 
REMARK   16  A    between atoms: C_28  and  O_29 
REMARK   17  A    between atoms: O_29  and  C_30 
ROOT
ATOM      1  C   UNL d   1      28.608 -15.495  -2.613  0.00  0.00     0.178 C 
ATOM      2  S   UNL d   1      29.832 -16.420  -3.339  0.00  0.00    -0.040 SA
ENDROOT
BRANCH   1   3
ATOM      3  N   UNL d   1      28.826 -14.551  -1.579  0.00  0.00    -0.304 N 
ATOM      4  C   UNL d   1      28.358 -13.235  -1.398  0.00  0.00     0.223 C 
ATOM      5  O   UNL d   1      28.583 -12.632  -0.349  0.00  0.00    -0.273 OA
ATOM      6  H   UNL d   1      29.355 -14.846  -0.766  0.00  0.00     0.171 HD
BRANCH   4   7
ATOM      7  C   UNL d   1      27.580 -12.618  -2.548  0.00  0.00     0.103 C 
BRANCH   7   8
ATOM      8  C   UNL d   1      26.075 -12.678  -2.521  0.00  0.00     0.019 C 
BRANCH   8   9
ATOM      9  C   UNL d   1      25.495 -12.632  -3.952  0.00  0.00     0.111 C 
BRANCH   9  10
ATOM     10  C   UNL d   1      25.973 -13.843  -4.712  0.00  0.00     0.258 C 
ATOM     11  O   UNL d   1      25.264 -14.826  -4.950  0.00  0.00    -0.265 OA
BRANCH  10  12
ATOM     12  O   UNL d   1      27.270 -13.729  -5.108  0.00  0.00    -0.321 OA
BRANCH  12  13
ATOM     13  C   UNL d   1      27.674 -14.795  -5.988  0.00  0.00     0.179 C 
BRANCH  13  14
ATOM     14  C   UNL d   1      28.610 -14.261  -7.063  0.00  0.00     0.031 C 
BRANCH  14  15
ATOM     15  C   UNL d   1      29.241 -12.931  -6.633  0.00  0.00     0.041 C 
BRANCH  15  16
ATOM     16  C   UNL d   1      28.265 -11.785  -6.724  0.00  0.00    -0.058 A 
ATOM     17  C   UNL d   1      28.169 -10.822  -5.708  0.00  0.00     0.007 A 
ATOM     18  C   UNL d   1      27.188  -9.831  -5.768  0.00  0.00     0.001 A 
ATOM     19  C   UNL d   1      26.357  -9.737  -6.882  0.00  0.00     0.000 A 
ATOM     20  C   UNL d   1      26.472 -10.663  -7.916  0.00  0.00     0.001 A 
ATOM     21  C   UNL d   1      27.413 -11.687  -7.832  0.00  0.00     0.007 A 
ENDBRANCH  15  16
ENDBRANCH  14  15
ENDBRANCH  13  14
ENDBRANCH  12  13
ENDBRANCH  10  12
ENDBRANCH   9  10
ENDBRANCH   8   9
ENDBRANCH   7   8
ENDBRANCH   4   7
ENDBRANCH   1   3
BRANCH   1  22
ATOM     22  N   UNL d   1      27.262 -15.596  -3.025  0.00  0.00    -0.333 N 
ATOM     23  H   UNL d   1      27.042 -15.605  -4.016  0.00  0.00     0.168 HD
BRANCH  22  24
ATOM     24  C   UNL d   1      26.247 -16.089  -2.139  0.00  0.00     0.034 A 
ATOM     25  C   UNL d   1      24.929 -15.634  -2.161  0.00  0.00     0.032 A 
ATOM     26  C   UNL d   1      23.970 -16.235  -1.308  0.00  0.00     0.039 A 
ATOM     27  C   UNL d   1      24.298 -17.330  -0.491  0.00  0.00     0.069 A 
ATOM     28  C   UNL d   1      25.614 -17.763  -0.469  0.00  0.00     0.039 A 
ATOM     29  C   UNL d   1      26.573 -17.115  -1.242  0.00  0.00     0.032 A 
BRANCH  27  30
ATOM     30  O   UNL d   1      23.285 -17.906   0.236  0.00  0.00    -0.349 OA
BRANCH  30  31
ATOM     31  C   UNL d   1      22.783 -19.164  -0.257  0.00  0.00     0.202 C 
BRANCH  31  32
ATOM     32  C   UNL d   1      21.657 -18.924  -1.265  0.00  0.00     0.202 C 
BRANCH  32  33
ATOM     33  O   UNL d   1      20.498 -18.439  -0.574  0.00  0.00    -0.349 OA
BRANCH  33  34
ATOM     34  C   UNL d   1      19.810 -19.363   0.169  0.00  0.00     0.068 A 
ATOM     35  C   UNL d   1      18.818 -20.083  -0.504  0.00  0.00     0.037 A 
ATOM     36  C   UNL d   1      17.971 -20.950   0.194  0.00  0.00     0.003 A 
ATOM     37  C   UNL d   1      18.150 -21.148   1.561  0.00  0.00     0.000 A 
ATOM     38  C   UNL d   1      19.144 -20.441   2.236  0.00  0.00     0.003 A 
ATOM     39  C   UNL d   1      19.963 -19.541   1.544  0.00  0.00     0.037 A 
ENDBRANCH  33  34
ENDBRANCH  32  33
ENDBRANCH  31  32
ENDBRANCH  30  31
ENDBRANCH  27  30
ENDBRANCH  22  24
ENDBRANCH   1  22
TORSDOF 17
ENDMDL
