MODEL 1
REMARK VINA RESULT:    -9.266      0.000      0.000
REMARK INTER + INTRA:         -13.235
REMARK INTER:                 -11.354
REMARK INTRA:                  -1.881
REMARK CONF_INDEPENDENT:        2.088
REMARK UNBOUND:                -1.881
REMARK  7 active torsions:
REMARK  status: ('A' for Active; 'I' for Inactive)
REMARK    1  A    between atoms: O_2  and  C_3 
REMARK    2  A    between atoms: C_6  and  C_7 
REMARK       I    between atoms: C_7  and  N_9 
REMARK       I    between atoms: C_10  and  N_11 
REMARK       I    between atoms: C_10  and  N_23 
REMARK    3  A    between atoms: N_11  and  C_12 
REMARK    4  A    between atoms: C_12  and  C_13 
REMARK    5  A    between atoms: C_13  and  C_14 
REMARK    6  A    between atoms: N_23  and  C_24 
REMARK    7  A    between atoms: C_33  and  O_34 
ROOT
ATOM      1  C   UNL d   1      27.149 -12.763  -0.654  0.00  0.00     0.294 C 
ATOM      2  O   UNL d   1      26.771 -11.987   0.237  0.00  0.00    -0.265 OA
ATOM      3  N   UNL d   1      27.863 -13.918  -0.435  0.00  0.00    -0.023 NA
ATOM      4  C   UNL d   1      28.075 -14.338   0.782  0.00  0.00     0.704 C 
ATOM      5  N   UNL d   1      28.641 -15.575   0.963  0.00  0.00    -0.224 N 
ATOM      6  N   UNL d   1      27.701 -13.715   1.949  0.00  0.00    -0.190 N 
ATOM      7  H   UNL d   1      28.719 -15.882   1.927  0.00  0.00     0.177 HD
ATOM      8  H   UNL d   1      27.260 -12.803   1.787  0.00  0.00     0.184 HD
ENDROOT
BRANCH   5   9
ATOM      9  C   UNL d   1      29.369 -16.287  -0.065  0.00  0.00     0.142 C 
BRANCH   9  10
ATOM     10  C   UNL d   1      28.472 -17.211  -0.885  0.00  0.00     0.057 C 
BRANCH  10  11
ATOM     11  C   UNL d   1      27.172 -17.589  -0.243  0.00  0.00    -0.048 A 
ATOM     12  C   UNL d   1      26.007 -17.166  -0.734  0.00  0.00    -0.006 A 
ATOM     13  C   UNL d   1      25.707 -16.335  -1.845  0.00  0.00     0.014 A 
ATOM     14  C   UNL d   1      24.966 -17.701   0.149  0.00  0.00     0.038 A 
ATOM     15  C   UNL d   1      24.440 -15.950  -2.020  0.00  0.00     0.001 A 
ATOM     16  C   UNL d   1      23.368 -16.476  -1.186  0.00  0.00     0.002 A 
ATOM     17  C   UNL d   1      23.570 -17.313  -0.146  0.00  0.00     0.030 A 
ATOM     18  N   UNL d   1      25.463 -18.441   1.067  0.00  0.00    -0.385 N 
ATOM     19  C   UNL d   1      26.956 -18.436   0.980  0.00  0.00     0.155 A 
ATOM     20  H   UNL d   1      24.884 -18.950   1.735  0.00  0.00     0.160 HD
ENDBRANCH  10  11
ENDBRANCH   9  10
ENDBRANCH   5   9
BRANCH   6  21
ATOM     21  C   UNL d   1      28.246 -13.787   3.257  0.00  0.00     0.055 A 
ATOM     22  C   UNL d   1      27.347 -13.673   4.340  0.00  0.00     0.031 A 
ATOM     23  C   UNL d   1      27.788 -13.715   5.668  0.00  0.00     0.009 A 
ATOM     24  C   UNL d   1      29.129 -13.964   5.948  0.00  0.00    -0.061 A 
ATOM     25  C   UNL d   1      29.617 -14.168   7.350  0.00  0.00     0.048 C 
ATOM     26  C   UNL d   1      30.031 -14.058   4.888  0.00  0.00     0.015 A 
ATOM     27  C   UNL d   1      29.617 -13.935   3.550  0.00  0.00    -0.034 A 
ATOM     28  C   UNL d   1      30.706 -13.920   2.517  0.00  0.00     0.050 C 
ENDBRANCH   6  21
BRANCH   1  29
ATOM     29  C   UNL d   1      26.744 -12.488  -2.070  0.00  0.00     0.037 A 
ATOM     30  C   UNL d   1      26.997 -11.251  -2.660  0.00  0.00     0.020 A 
ATOM     31  C   UNL d   1      26.517 -10.966  -3.954  0.00  0.00     0.040 A 
ATOM     32  C   UNL d   1      25.840 -11.931  -4.738  0.00  0.00     0.101 A 
ATOM     33  C   UNL d   1      25.611 -13.192  -4.142  0.00  0.00     0.102 A 
ATOM     34  C   UNL d   1      26.060 -13.442  -2.824  0.00  0.00     0.056 A 
BRANCH  32  35
ATOM     35  O   UNL d   1      25.764 -11.570  -6.068  0.00  0.00    -0.353 OA
ATOM     36  C   UNL d   1      25.590 -10.227  -6.520  0.00  0.00     0.210 C 
ENDBRANCH  32  35
BRANCH  33  37
ATOM     37  O   UNL d   1      25.036 -14.348  -4.623  0.00  0.00    -0.353 OA
ATOM     38  C   UNL d   1      25.941 -15.335  -5.020  0.00  0.00     0.210 C 
ENDBRANCH  33  37
ENDBRANCH   1  29
TORSDOF 7
ENDMDL
MODEL 2
REMARK VINA RESULT:    -8.877      1.207      1.870
REMARK INTER + INTRA:         -13.693
REMARK INTER:                 -10.965
REMARK INTRA:                  -2.728
REMARK CONF_INDEPENDENT:        2.088
REMARK UNBOUND:                -2.728
REMARK  7 active torsions:
REMARK  status: ('A' for Active; 'I' for Inactive)
REMARK    1  A    between atoms: O_2  and  C_3 
REMARK    2  A    between atoms: C_6  and  C_7 
REMARK       I    between atoms: C_7  and  N_9 
REMARK       I    between atoms: C_10  and  N_11 
REMARK       I    between atoms: C_10  and  N_23 
REMARK    3  A    between atoms: N_11  and  C_12 
REMARK    4  A    between atoms: C_12  and  C_13 
REMARK    5  A    between atoms: C_13  and  C_14 
REMARK    6  A    between atoms: N_23  and  C_24 
REMARK    7  A    between atoms: C_33  and  O_34 
ROOT
ATOM      1  C   UNL d   1      26.987 -12.838  -0.258  0.00  0.00     0.294 C 
ATOM      2  O   UNL d   1      26.299 -12.279   0.611  0.00  0.00    -0.265 OA
ATOM      3  N   UNL d   1      27.998 -13.733   0.002  0.00  0.00    -0.023 NA
ATOM      4  C   UNL d   1      28.208 -14.153   1.219  0.00  0.00     0.704 C 
ATOM      5  N   UNL d   1      29.109 -15.169   1.420  0.00  0.00    -0.224 N 
ATOM      6  N   UNL d   1      27.545 -13.756   2.356  0.00  0.00    -0.190 N 
ATOM      7  H   UNL d   1      29.182 -15.504   2.376  0.00  0.00     0.177 HD
ATOM      8  H   UNL d   1      26.860 -13.012   2.177  0.00  0.00     0.184 HD
ENDROOT
BRANCH   5   9
ATOM      9  C   UNL d   1      30.120 -15.552   0.460  0.00  0.00     0.142 C 
BRANCH   9  10
ATOM     10  C   UNL d   1      29.724 -16.785  -0.348  0.00  0.00     0.057 C 
BRANCH  10  11
ATOM     11  C   UNL d   1      28.416 -16.692  -1.072  0.00  0.00    -0.048 A 
ATOM     12  C   UNL d   1      27.283 -17.123  -0.517  0.00  0.00    -0.006 A 
ATOM     13  C   UNL d   1      27.030 -17.728   0.742  0.00  0.00     0.014 A 
ATOM     14  C   UNL d   1      26.225 -16.901  -1.508  0.00  0.00     0.038 A 
ATOM     15  C   UNL d   1      25.803 -18.200   0.979  0.00  0.00     0.001 A 
ATOM     16  C   UNL d   1      24.714 -17.979   0.039  0.00  0.00     0.002 A 
ATOM     17  C   UNL d   1      24.865 -17.364  -1.153  0.00  0.00     0.030 A 
ATOM     18  N   UNL d   1      26.677 -16.324  -2.556  0.00  0.00    -0.385 N 
ATOM     19  C   UNL d   1      28.158 -16.151  -2.451  0.00  0.00     0.155 A 
ATOM     20  H   UNL d   1      26.073 -16.032  -3.324  0.00  0.00     0.160 HD
ENDBRANCH  10  11
ENDBRANCH   9  10
ENDBRANCH   5   9
BRANCH   6  21
ATOM     21  C   UNL d   1      27.952 -13.750   3.715  0.00  0.00     0.055 A 
ATOM     22  C   UNL d   1      28.158 -15.002   4.335  0.00  0.00     0.031 A 
ATOM     23  C   UNL d   1      28.544 -15.101   5.677  0.00  0.00     0.009 A 
ATOM     24  C   UNL d   1      28.823 -13.950   6.408  0.00  0.00    -0.061 A 
ATOM     25  C   UNL d   1      29.384 -14.013   7.796  0.00  0.00     0.048 C 
ATOM     26  C   UNL d   1      28.604 -12.706   5.814  0.00  0.00     0.015 A 
ATOM     27  C   UNL d   1      28.137 -12.588   4.493  0.00  0.00    -0.034 A 
ATOM     28  C   UNL d   1      27.816 -11.200   4.024  0.00  0.00     0.050 C 
ENDBRANCH   6  21
BRANCH   1  29
ATOM     29  C   UNL d   1      26.659 -12.602  -1.701  0.00  0.00     0.037 A 
ATOM     30  C   UNL d   1      26.927 -11.374  -2.304  0.00  0.00     0.020 A 
ATOM     31  C   UNL d   1      26.519 -11.126  -3.629  0.00  0.00     0.040 A 
ATOM     32  C   UNL d   1      25.902 -12.119  -4.429  0.00  0.00     0.101 A 
ATOM     33  C   UNL d   1      25.657 -13.370  -3.817  0.00  0.00     0.102 A 
ATOM     34  C   UNL d   1      26.034 -13.583  -2.470  0.00  0.00     0.056 A 
BRANCH  32  35
ATOM     35  O   UNL d   1      25.897 -11.790  -5.768  0.00  0.00    -0.353 OA
ATOM     36  C   UNL d   1      26.283 -10.512  -6.276  0.00  0.00     0.210 C 
ENDBRANCH  32  35
BRANCH  33  37
ATOM     37  O   UNL d   1      25.128 -14.545  -4.303  0.00  0.00    -0.353 OA
ATOM     38  C   UNL d   1      25.905 -15.185  -5.272  0.00  0.00     0.210 C 
ENDBRANCH  33  37
ENDBRANCH   1  29
TORSDOF 7
ENDMDL
MODEL 3
REMARK VINA RESULT:    -8.815      3.987      7.538
REMARK INTER + INTRA:         -12.189
REMARK INTER:                 -10.903
REMARK INTRA:                  -1.286
REMARK CONF_INDEPENDENT:        2.088
REMARK UNBOUND:                -1.286
REMARK  7 active torsions:
REMARK  status: ('A' for Active; 'I' for Inactive)
REMARK    1  A    between atoms: O_2  and  C_3 
REMARK    2  A    between atoms: C_6  and  C_7 
REMARK       I    between atoms: C_7  and  N_9 
REMARK       I    between atoms: C_10  and  N_11 
REMARK       I    between atoms: C_10  and  N_23 
REMARK    3  A    between atoms: N_11  and  C_12 
REMARK    4  A    between atoms: C_12  and  C_13 
REMARK    5  A    between atoms: C_13  and  C_14 
REMARK    6  A    between atoms: N_23  and  C_24 
REMARK    7  A    between atoms: C_33  and  O_34 
ROOT
ATOM      1  C   UNL d   1      28.425 -14.249  -5.364  0.00  0.00     0.294 C 
ATOM      2  O   UNL d   1      28.878 -13.270  -5.976  0.00  0.00    -0.265 OA
ATOM      3  N   UNL d   1      27.209 -14.276  -4.721  0.00  0.00    -0.023 NA
ATOM      4  C   UNL d   1      26.382 -13.275  -4.838  0.00  0.00     0.704 C 
ATOM      5  N   UNL d   1      25.115 -13.403  -4.326  0.00  0.00    -0.224 N 
ATOM      6  N   UNL d   1      26.597 -12.099  -5.518  0.00  0.00    -0.190 N 
ATOM      7  H   UNL d   1      24.491 -12.623  -4.506  0.00  0.00     0.177 HD
ATOM      8  H   UNL d   1      27.543 -12.036  -5.911  0.00  0.00     0.184 HD
ENDROOT
BRANCH   5   9
ATOM      9  C   UNL d   1      24.739 -14.393  -3.341  0.00  0.00     0.142 C 
BRANCH   9  10
ATOM     10  C   UNL d   1      25.671 -14.401  -2.132  0.00  0.00     0.057 C 
BRANCH  10  11
ATOM     11  C   UNL d   1      25.834 -15.724  -1.449  0.00  0.00    -0.048 A 
ATOM     12  C   UNL d   1      24.778 -16.435  -1.053  0.00  0.00    -0.006 A 
ATOM     13  C   UNL d   1      23.386 -16.170  -1.140  0.00  0.00     0.014 A 
ATOM     14  C   UNL d   1      25.307 -17.642  -0.410  0.00  0.00     0.038 A 
ATOM     15  C   UNL d   1      22.545 -17.003  -0.520  0.00  0.00     0.001 A 
ATOM     16  C   UNL d   1      23.022 -18.227   0.107  0.00  0.00     0.002 A 
ATOM     17  C   UNL d   1      24.324 -18.575   0.181  0.00  0.00     0.030 A 
ATOM     18  N   UNL d   1      26.585 -17.683  -0.468  0.00  0.00    -0.385 N 
ATOM     19  C   UNL d   1      27.112 -16.434  -1.098  0.00  0.00     0.155 A 
ATOM     20  H   UNL d   1      27.124 -18.480  -0.130  0.00  0.00     0.160 HD
ENDBRANCH  10  11
ENDBRANCH   9  10
ENDBRANCH   5   9
BRANCH   6  21
ATOM     21  C   UNL d   1      26.037 -10.808  -5.343  0.00  0.00     0.055 A 
ATOM     22  C   UNL d   1      25.642 -10.110  -6.506  0.00  0.00     0.031 A 
ATOM     23  C   UNL d   1      25.094  -8.824  -6.440  0.00  0.00     0.009 A 
ATOM     24  C   UNL d   1      24.842  -8.238  -5.202  0.00  0.00    -0.061 A 
ATOM     25  C   UNL d   1      24.119  -6.931  -5.081  0.00  0.00     0.048 C 
ATOM     26  C   UNL d   1      25.245  -8.908  -4.046  0.00  0.00     0.015 A 
ATOM     27  C   UNL d   1      25.873 -10.165  -4.099  0.00  0.00    -0.034 A 
ATOM     28  C   UNL d   1      26.376 -10.711  -2.795  0.00  0.00     0.050 C 
ENDBRANCH   6  21
BRANCH   1  29
ATOM     29  C   UNL d   1      29.201 -15.531  -5.378  0.00  0.00     0.037 A 
ATOM     30  C   UNL d   1      29.301 -16.319  -4.232  0.00  0.00     0.020 A 
ATOM     31  C   UNL d   1      30.120 -17.466  -4.225  0.00  0.00     0.040 A 
ATOM     32  C   UNL d   1      30.802 -17.915  -5.381  0.00  0.00     0.101 A 
ATOM     33  C   UNL d   1      30.673 -17.124  -6.546  0.00  0.00     0.102 A 
ATOM     34  C   UNL d   1      29.884 -15.950  -6.519  0.00  0.00     0.056 A 
BRANCH  32  35
ATOM     35  O   UNL d   1      31.256 -19.211  -5.257  0.00  0.00    -0.353 OA
ATOM     36  C   UNL d   1      30.405 -20.336  -5.032  0.00  0.00     0.210 C 
ENDBRANCH  32  35
BRANCH  33  37
ATOM     37  O   UNL d   1      31.154 -17.285  -7.827  0.00  0.00    -0.353 OA
ATOM     38  C   UNL d   1      31.204 -18.607  -8.275  0.00  0.00     0.210 C 
ENDBRANCH  33  37
ENDBRANCH   1  29
TORSDOF 7
ENDMDL
MODEL 4
REMARK VINA RESULT:    -8.765      2.776      6.420
REMARK INTER + INTRA:         -12.730
REMARK INTER:                 -10.853
REMARK INTRA:                  -1.877
REMARK CONF_INDEPENDENT:        2.088
REMARK UNBOUND:                -1.877
REMARK  7 active torsions:
REMARK  status: ('A' for Active; 'I' for Inactive)
REMARK    1  A    between atoms: O_2  and  C_3 
REMARK    2  A    between atoms: C_6  and  C_7 
REMARK       I    between atoms: C_7  and  N_9 
REMARK       I    between atoms: C_10  and  N_11 
REMARK       I    between atoms: C_10  and  N_23 
REMARK    3  A    between atoms: N_11  and  C_12 
REMARK    4  A    between atoms: C_12  and  C_13 
REMARK    5  A    between atoms: C_13  and  C_14 
REMARK    6  A    between atoms: N_23  and  C_24 
REMARK    7  A    between atoms: C_33  and  O_34 
ROOT
ATOM      1  C   UNL d   1      27.346 -17.293  -0.024  0.00  0.00     0.294 C 
ATOM      2  O   UNL d   1      27.912 -18.368   0.231  0.00  0.00    -0.265 OA
ATOM      3  N   UNL d   1      27.986 -16.083  -0.149  0.00  0.00    -0.023 NA
ATOM      4  C   UNL d   1      29.289 -16.024  -0.133  0.00  0.00     0.704 C 
ATOM      5  N   UNL d   1      29.899 -14.830  -0.429  0.00  0.00    -0.224 N 
ATOM      6  N   UNL d   1      30.162 -17.069   0.057  0.00  0.00    -0.190 N 
ATOM      7  H   UNL d   1      30.913 -14.857  -0.471  0.00  0.00     0.177 HD
ATOM      8  H   UNL d   1      29.683 -17.955   0.253  0.00  0.00     0.184 HD
ENDROOT
BRANCH   5   9
ATOM      9  C   UNL d   1      29.229 -13.549  -0.382  0.00  0.00     0.142 C 
BRANCH   9  10
ATOM     10  C   UNL d   1      28.626 -13.253   0.988  0.00  0.00     0.057 C 
BRANCH  10  11
ATOM     11  C   UNL d   1      29.547 -13.441   2.156  0.00  0.00    -0.048 A 
ATOM     12  C   UNL d   1      29.115 -13.968   3.302  0.00  0.00    -0.006 A 
ATOM     13  C   UNL d   1      27.830 -14.424   3.696  0.00  0.00     0.014 A 
ATOM     14  C   UNL d   1      30.264 -13.976   4.213  0.00  0.00     0.038 A 
ATOM     15  C   UNL d   1      27.649 -14.772   4.973  0.00  0.00     0.001 A 
ATOM     16  C   UNL d   1      28.765 -14.823   5.907  0.00  0.00     0.002 A 
ATOM     17  C   UNL d   1      30.025 -14.458   5.591  0.00  0.00     0.030 A 
ATOM     18  N   UNL d   1      31.323 -13.544   3.638  0.00  0.00    -0.385 N 
ATOM     19  C   UNL d   1      31.005 -13.090   2.250  0.00  0.00     0.155 A 
ATOM     20  H   UNL d   1      32.233 -13.539   4.099  0.00  0.00     0.160 HD
ENDBRANCH  10  11
ENDBRANCH   9  10
ENDBRANCH   5   9
BRANCH   6  21
ATOM     21  C   UNL d   1      31.490 -17.093   0.555  0.00  0.00     0.055 A 
ATOM     22  C   UNL d   1      31.845 -16.103   1.498  0.00  0.00     0.031 A 
ATOM     23  C   UNL d   1      33.136 -16.032   2.037  0.00  0.00     0.009 A 
ATOM     24  C   UNL d   1      34.078 -17.005   1.716  0.00  0.00    -0.061 A 
ATOM     25  C   UNL d   1      35.419 -17.056   2.383  0.00  0.00     0.048 C 
ATOM     26  C   UNL d   1      33.746 -17.977   0.770  0.00  0.00     0.015 A 
ATOM     27  C   UNL d   1      32.482 -18.013   0.157  0.00  0.00    -0.034 A 
ATOM     28  C   UNL d   1      32.303 -19.024  -0.937  0.00  0.00     0.050 C 
ENDBRANCH   6  21
BRANCH   1  29
ATOM     29  C   UNL d   1      25.873 -17.300  -0.298  0.00  0.00     0.037 A 
ATOM     30  C   UNL d   1      25.058 -18.319   0.194  0.00  0.00     0.020 A 
ATOM     31  C   UNL d   1      23.695 -18.375  -0.159  0.00  0.00     0.040 A 
ATOM     32  C   UNL d   1      23.077 -17.375  -0.947  0.00  0.00     0.101 A 
ATOM     33  C   UNL d   1      23.905 -16.331  -1.421  0.00  0.00     0.102 A 
ATOM     34  C   UNL d   1      25.281 -16.319  -1.093  0.00  0.00     0.056 A 
BRANCH  32  35
ATOM     35  O   UNL d   1      21.700 -17.433  -0.889  0.00  0.00    -0.353 OA
ATOM     36  C   UNL d   1      20.952 -18.650  -0.906  0.00  0.00     0.210 C 
ENDBRANCH  32  35
BRANCH  33  37
ATOM     37  O   UNL d   1      23.632 -15.200  -2.158  0.00  0.00    -0.353 OA
ATOM     38  C   UNL d   1      24.742 -14.614  -2.770  0.00  0.00     0.210 C 
ENDBRANCH  33  37
ENDBRANCH   1  29
TORSDOF 7
ENDMDL
MODEL 5
REMARK VINA RESULT:    -8.189      2.300      8.090
REMARK INTER + INTRA:         -11.926
REMARK INTER:                 -10.277
REMARK INTRA:                  -1.649
REMARK CONF_INDEPENDENT:        2.088
REMARK UNBOUND:                -1.649
REMARK  7 active torsions:
REMARK  status: ('A' for Active; 'I' for Inactive)
REMARK    1  A    between atoms: O_2  and  C_3 
REMARK    2  A    between atoms: C_6  and  C_7 
REMARK       I    between atoms: C_7  and  N_9 
REMARK       I    between atoms: C_10  and  N_11 
REMARK       I    between atoms: C_10  and  N_23 
REMARK    3  A    between atoms: N_11  and  C_12 
REMARK    4  A    between atoms: C_12  and  C_13 
REMARK    5  A    between atoms: C_13  and  C_14 
REMARK    6  A    between atoms: N_23  and  C_24 
REMARK    7  A    between atoms: C_33  and  O_34 
ROOT
ATOM      1  C   UNL d   1      24.995 -14.230  -2.966  0.00  0.00     0.294 C 
ATOM      2  O   UNL d   1      24.343 -14.062  -4.008  0.00  0.00    -0.265 OA
ATOM      3  N   UNL d   1      25.967 -13.373  -2.504  0.00  0.00    -0.023 NA
ATOM      4  C   UNL d   1      26.168 -12.228  -3.096  0.00  0.00     0.704 C 
ATOM      5  N   UNL d   1      27.023 -11.326  -2.514  0.00  0.00    -0.224 N 
ATOM      6  N   UNL d   1      25.535 -11.756  -4.222  0.00  0.00    -0.190 N 
ATOM      7  H   UNL d   1      27.090 -10.426  -2.978  0.00  0.00     0.177 HD
ATOM      8  H   UNL d   1      24.884 -12.440  -4.626  0.00  0.00     0.184 HD
ENDROOT
BRANCH   5   9
ATOM      9  C   UNL d   1      28.006 -11.677  -1.513  0.00  0.00     0.142 C 
BRANCH   9  10
ATOM     10  C   UNL d   1      27.405 -11.790  -0.114  0.00  0.00     0.057 C 
BRANCH  10  11
ATOM     11  C   UNL d   1      27.727 -13.050   0.630  0.00  0.00    -0.048 A 
ATOM     12  C   UNL d   1      27.757 -13.081   1.962  0.00  0.00    -0.006 A 
ATOM     13  C   UNL d   1      27.537 -12.062   2.927  0.00  0.00     0.014 A 
ATOM     14  C   UNL d   1      28.127 -14.449   2.338  0.00  0.00     0.038 A 
ATOM     15  C   UNL d   1      27.780 -12.345   4.210  0.00  0.00     0.001 A 
ATOM     16  C   UNL d   1      28.122 -13.695   4.633  0.00  0.00     0.002 A 
ATOM     17  C   UNL d   1      28.294 -14.728   3.781  0.00  0.00     0.030 A 
ATOM     18  N   UNL d   1      28.250 -15.201   1.310  0.00  0.00    -0.385 N 
ATOM     19  C   UNL d   1      28.062 -14.401   0.061  0.00  0.00     0.155 A 
ATOM     20  H   UNL d   1      28.441 -16.200   1.382  0.00  0.00     0.160 HD
ENDBRANCH  10  11
ENDBRANCH   9  10
ENDBRANCH   5   9
BRANCH   6  21
ATOM     21  C   UNL d   1      25.955 -10.820  -5.201  0.00  0.00     0.055 A 
ATOM     22  C   UNL d   1      26.655 -11.322  -6.320  0.00  0.00     0.031 A 
ATOM     23  C   UNL d   1      27.125 -10.476  -7.332  0.00  0.00     0.009 A 
ATOM     24  C   UNL d   1      26.828  -9.116  -7.296  0.00  0.00    -0.061 A 
ATOM     25  C   UNL d   1      27.178  -8.202  -8.430  0.00  0.00     0.048 C 
ATOM     26  C   UNL d   1      26.154  -8.604  -6.186  0.00  0.00     0.015 A 
ATOM     27  C   UNL d   1      25.748  -9.427  -5.121  0.00  0.00    -0.034 A 
ATOM     28  C   UNL d   1      25.156  -8.730  -3.932  0.00  0.00     0.050 C 
ENDBRANCH   6  21
BRANCH   1  29
ATOM     29  C   UNL d   1      24.665 -15.399  -2.089  0.00  0.00     0.037 A 
ATOM     30  C   UNL d   1      23.361 -15.615  -1.645  0.00  0.00     0.020 A 
ATOM     31  C   UNL d   1      23.081 -16.654  -0.735  0.00  0.00     0.040 A 
ATOM     32  C   UNL d   1      24.073 -17.564  -0.298  0.00  0.00     0.101 A 
ATOM     33  C   UNL d   1      25.388 -17.353  -0.773  0.00  0.00     0.102 A 
ATOM     34  C   UNL d   1      25.657 -16.276  -1.650  0.00  0.00     0.056 A 
BRANCH  32  35
ATOM     35  O   UNL d   1      23.535 -18.683   0.302  0.00  0.00    -0.353 OA
ATOM     36  C   UNL d   1      22.344 -19.333  -0.145  0.00  0.00     0.210 C 
ENDBRANCH  32  35
BRANCH  33  37
ATOM     37  O   UNL d   1      26.558 -18.056  -0.589  0.00  0.00    -0.353 OA
ATOM     38  C   UNL d   1      26.774 -18.510   0.714  0.00  0.00     0.210 C 
ENDBRANCH  33  37
ENDBRANCH   1  29
TORSDOF 7
ENDMDL
MODEL 6
REMARK VINA RESULT:    -7.758      3.909      7.851
REMARK INTER + INTRA:         -12.063
REMARK INTER:                  -9.846
REMARK INTRA:                  -2.217
REMARK CONF_INDEPENDENT:        2.088
REMARK UNBOUND:                -2.217
REMARK  7 active torsions:
REMARK  status: ('A' for Active; 'I' for Inactive)
REMARK    1  A    between atoms: O_2  and  C_3 
REMARK    2  A    between atoms: C_6  and  C_7 
REMARK       I    between atoms: C_7  and  N_9 
REMARK       I    between atoms: C_10  and  N_11 
REMARK       I    between atoms: C_10  and  N_23 
REMARK    3  A    between atoms: N_11  and  C_12 
REMARK    4  A    between atoms: C_12  and  C_13 
REMARK    5  A    between atoms: C_13  and  C_14 
REMARK    6  A    between atoms: N_23  and  C_24 
REMARK    7  A    between atoms: C_33  and  O_34 
ROOT
ATOM      1  C   UNL d   1      28.567 -14.311  -5.274  0.00  0.00     0.294 C 
ATOM      2  O   UNL d   1      29.097 -13.435  -5.975  0.00  0.00    -0.265 OA
ATOM      3  N   UNL d   1      27.312 -14.216  -4.718  0.00  0.00    -0.023 NA
ATOM      4  C   UNL d   1      26.534 -13.214  -5.020  0.00  0.00     0.704 C 
ATOM      5  N   UNL d   1      25.232 -13.234  -4.585  0.00  0.00    -0.224 N 
ATOM      6  N   UNL d   1      26.839 -12.144  -5.829  0.00  0.00    -0.190 N 
ATOM      7  H   UNL d   1      24.653 -12.465  -4.907  0.00  0.00     0.177 HD
ATOM      8  H   UNL d   1      27.811 -12.163  -6.161  0.00  0.00     0.184 HD
ENDROOT
BRANCH   5   9
ATOM      9  C   UNL d   1      24.755 -14.075  -3.510  0.00  0.00     0.142 C 
BRANCH   9  10
ATOM     10  C   UNL d   1      25.530 -13.863  -2.212  0.00  0.00     0.057 C 
BRANCH  10  11
ATOM     11  C   UNL d   1      26.204 -15.080  -1.654  0.00  0.00    -0.048 A 
ATOM     12  C   UNL d   1      25.500 -16.131  -1.233  0.00  0.00    -0.006 A 
ATOM     13  C   UNL d   1      24.100 -16.361  -1.185  0.00  0.00     0.014 A 
ATOM     14  C   UNL d   1      26.473 -17.110  -0.736  0.00  0.00     0.038 A 
ATOM     15  C   UNL d   1      23.663 -17.462  -0.569  0.00  0.00     0.001 A 
ATOM     16  C   UNL d   1      24.590 -18.475  -0.084  0.00  0.00     0.002 A 
ATOM     17  C   UNL d   1      25.933 -18.353  -0.145  0.00  0.00     0.030 A 
ATOM     18  N   UNL d   1      27.675 -16.702  -0.901  0.00  0.00    -0.385 N 
ATOM     19  C   UNL d   1      27.676 -15.319  -1.468  0.00  0.00     0.155 A 
ATOM     20  H   UNL d   1      28.485 -17.279  -0.674  0.00  0.00     0.160 HD
ENDBRANCH  10  11
ENDBRANCH   9  10
ENDBRANCH   5   9
BRANCH   6  21
ATOM     21  C   UNL d   1      26.321 -10.825  -5.861  0.00  0.00     0.055 A 
ATOM     22  C   UNL d   1      25.782 -10.311  -4.661  0.00  0.00     0.031 A 
ATOM     23  C   UNL d   1      25.231  -9.026  -4.594  0.00  0.00     0.009 A 
ATOM     24  C   UNL d   1      25.287  -8.187  -5.703  0.00  0.00    -0.061 A 
ATOM     25  C   UNL d   1      24.849  -6.755  -5.633  0.00  0.00     0.048 C 
ATOM     26  C   UNL d   1      25.798  -8.688  -6.901  0.00  0.00     0.015 A 
ATOM     27  C   UNL d   1      26.279 -10.005  -7.008  0.00  0.00    -0.034 A 
ATOM     28  C   UNL d   1      26.674 -10.458  -8.383  0.00  0.00     0.050 C 
ENDBRANCH   6  21
BRANCH   1  29
ATOM     29  C   UNL d   1      29.290 -15.608  -5.069  0.00  0.00     0.037 A 
ATOM     30  C   UNL d   1      29.858 -16.287  -6.145  0.00  0.00     0.020 A 
ATOM     31  C   UNL d   1      30.442 -17.556  -5.959  0.00  0.00     0.040 A 
ATOM     32  C   UNL d   1      30.554 -18.157  -4.682  0.00  0.00     0.101 A 
ATOM     33  C   UNL d   1      29.998 -17.448  -3.592  0.00  0.00     0.102 A 
ATOM     34  C   UNL d   1      29.375 -16.196  -3.807  0.00  0.00     0.056 A 
BRANCH  32  35
ATOM     35  O   UNL d   1      31.443 -19.212  -4.671  0.00  0.00    -0.353 OA
ATOM     36  C   UNL d   1      31.051 -20.584  -4.728  0.00  0.00     0.210 C 
ENDBRANCH  32  35
BRANCH  33  37
ATOM     37  O   UNL d   1      29.969 -17.712  -2.240  0.00  0.00    -0.353 OA
ATOM     38  C   UNL d   1      31.127 -17.356  -1.545  0.00  0.00     0.210 C 
ENDBRANCH  33  37
ENDBRANCH   1  29
TORSDOF 7
ENDMDL
MODEL 7
REMARK VINA RESULT:    -7.160      2.625      4.563
REMARK INTER + INTRA:         -12.385
REMARK INTER:                  -9.248
REMARK INTRA:                  -3.137
REMARK CONF_INDEPENDENT:        2.088
REMARK UNBOUND:                -3.137
REMARK  7 active torsions:
REMARK  status: ('A' for Active; 'I' for Inactive)
REMARK    1  A    between atoms: O_2  and  C_3 
REMARK    2  A    between atoms: C_6  and  C_7 
REMARK       I    between atoms: C_7  and  N_9 
REMARK       I    between atoms: C_10  and  N_11 
REMARK       I    between atoms: C_10  and  N_23 
REMARK    3  A    between atoms: N_11  and  C_12 
REMARK    4  A    between atoms: C_12  and  C_13 
REMARK    5  A    between atoms: C_13  and  C_14 
REMARK    6  A    between atoms: N_23  and  C_24 
REMARK    7  A    between atoms: C_33  and  O_34 
ROOT
ATOM      1  C   UNL d   1      29.536 -15.959  -0.743  0.00  0.00     0.294 C 
ATOM      2  O   UNL d   1      29.751 -16.753   0.187  0.00  0.00    -0.265 OA
ATOM      3  N   UNL d   1      29.246 -14.625  -0.582  0.00  0.00    -0.023 NA
ATOM      4  C   UNL d   1      29.312 -14.076   0.600  0.00  0.00     0.704 C 
ATOM      5  N   UNL d   1      29.183 -12.714   0.703  0.00  0.00    -0.224 N 
ATOM      6  N   UNL d   1      29.599 -14.705   1.789  0.00  0.00    -0.190 N 
ATOM      7  H   UNL d   1      29.311 -12.333   1.635  0.00  0.00     0.177 HD
ATOM      8  H   UNL d   1      29.714 -15.719   1.683  0.00  0.00     0.184 HD
ENDROOT
BRANCH   5   9
ATOM      9  C   UNL d   1      28.604 -11.878  -0.327  0.00  0.00     0.142 C 
BRANCH   9  10
ATOM     10  C   UNL d   1      27.120 -12.162  -0.545  0.00  0.00     0.057 C 
BRANCH  10  11
ATOM     11  C   UNL d   1      26.799 -13.098  -1.671  0.00  0.00    -0.048 A 
ATOM     12  C   UNL d   1      26.263 -14.297  -1.444  0.00  0.00    -0.006 A 
ATOM     13  C   UNL d   1      25.907 -14.949  -0.234  0.00  0.00     0.014 A 
ATOM     14  C   UNL d   1      26.111 -14.939  -2.754  0.00  0.00     0.038 A 
ATOM     15  C   UNL d   1      25.521 -16.227  -0.295  0.00  0.00     0.001 A 
ATOM     16  C   UNL d   1      25.329 -16.896  -1.574  0.00  0.00     0.002 A 
ATOM     17  C   UNL d   1      25.593 -16.324  -2.768  0.00  0.00     0.030 A 
ATOM     18  N   UNL d   1      26.471 -14.159  -3.703  0.00  0.00    -0.385 N 
ATOM     19  C   UNL d   1      27.013 -12.883  -3.143  0.00  0.00     0.155 A 
ATOM     20  H   UNL d   1      26.375 -14.412  -4.686  0.00  0.00     0.160 HD
ENDBRANCH  10  11
ENDBRANCH   9  10
ENDBRANCH   5   9
BRANCH   6  21
ATOM     21  C   UNL d   1      29.253 -14.374   3.123  0.00  0.00     0.055 A 
ATOM     22  C   UNL d   1      30.162 -14.742   4.139  0.00  0.00     0.031 A 
ATOM     23  C   UNL d   1      29.903 -14.474   5.489  0.00  0.00     0.009 A 
ATOM     24  C   UNL d   1      28.770 -13.749   5.849  0.00  0.00    -0.061 A 
ATOM     25  C   UNL d   1      28.531 -13.308   7.261  0.00  0.00     0.048 C 
ATOM     26  C   UNL d   1      27.854 -13.396   4.858  0.00  0.00     0.015 A 
ATOM     27  C   UNL d   1      28.058 -13.730   3.507  0.00  0.00    -0.034 A 
ATOM     28  C   UNL d   1      26.933 -13.411   2.567  0.00  0.00     0.050 C 
ENDBRANCH   6  21
BRANCH   1  29
ATOM     29  C   UNL d   1      29.677 -16.445  -2.154  0.00  0.00     0.037 A 
ATOM     30  C   UNL d   1      30.591 -17.447  -2.478  0.00  0.00     0.020 A 
ATOM     31  C   UNL d   1      30.792 -17.821  -3.821  0.00  0.00     0.040 A 
ATOM     32  C   UNL d   1      30.032 -17.270  -4.881  0.00  0.00     0.101 A 
ATOM     33  C   UNL d   1      29.088 -16.274  -4.540  0.00  0.00     0.102 A 
ATOM     34  C   UNL d   1      28.935 -15.879  -3.191  0.00  0.00     0.056 A 
BRANCH  32  35
ATOM     35  O   UNL d   1      30.140 -18.003  -6.045  0.00  0.00    -0.353 OA
ATOM     36  C   UNL d   1      30.515 -19.381  -6.087  0.00  0.00     0.210 C 
ENDBRANCH  32  35
BRANCH  33  37
ATOM     37  O   UNL d   1      28.173 -15.575  -5.296  0.00  0.00    -0.353 OA
ATOM     38  C   UNL d   1      28.717 -14.849  -6.358  0.00  0.00     0.210 C 
ENDBRANCH  33  37
ENDBRANCH   1  29
TORSDOF 7
ENDMDL
MODEL 8
REMARK VINA RESULT:    -7.046      1.947      3.601
REMARK INTER + INTRA:         -12.042
REMARK INTER:                  -9.134
REMARK INTRA:                  -2.908
REMARK CONF_INDEPENDENT:        2.088
REMARK UNBOUND:                -2.908
REMARK  7 active torsions:
REMARK  status: ('A' for Active; 'I' for Inactive)
REMARK    1  A    between atoms: O_2  and  C_3 
REMARK    2  A    between atoms: C_6  and  C_7 
REMARK       I    between atoms: C_7  and  N_9 
REMARK       I    between atoms: C_10  and  N_11 
REMARK       I    between atoms: C_10  and  N_23 
REMARK    3  A    between atoms: N_11  and  C_12 
REMARK    4  A    between atoms: C_12  and  C_13 
REMARK    5  A    between atoms: C_13  and  C_14 
REMARK    6  A    between atoms: N_23  and  C_24 
REMARK    7  A    between atoms: C_33  and  O_34 
ROOT
ATOM      1  C   UNL d   1      26.809 -14.007   0.859  0.00  0.00     0.294 C 
ATOM      2  O   UNL d   1      25.989 -13.668   1.728  0.00  0.00    -0.265 OA
ATOM      3  N   UNL d   1      28.143 -14.243   1.093  0.00  0.00    -0.023 NA
ATOM      4  C   UNL d   1      28.606 -14.248   2.313  0.00  0.00     0.704 C 
ATOM      5  N   UNL d   1      29.900 -14.652   2.526  0.00  0.00    -0.224 N 
ATOM      6  N   UNL d   1      27.904 -13.981   3.465  0.00  0.00    -0.190 N 
ATOM      7  H   UNL d   1      30.186 -14.704   3.498  0.00  0.00     0.177 HD
ATOM      8  H   UNL d   1      26.932 -13.704   3.282  0.00  0.00     0.184 HD
ENDROOT
BRANCH   5   9
ATOM      9  C   UNL d   1      30.908 -14.706   1.490  0.00  0.00     0.142 C 
BRANCH   9  10
ATOM     10  C   UNL d   1      30.961 -16.064   0.793  0.00  0.00     0.057 C 
BRANCH  10  11
ATOM     11  C   UNL d   1      29.910 -16.296  -0.249  0.00  0.00    -0.048 A 
ATOM     12  C   UNL d   1      29.968 -15.698  -1.439  0.00  0.00    -0.006 A 
ATOM     13  C   UNL d   1      30.907 -14.781  -1.980  0.00  0.00     0.014 A 
ATOM     14  C   UNL d   1      28.780 -16.132  -2.182  0.00  0.00     0.038 A 
ATOM     15  C   UNL d   1      30.635 -14.222  -3.162  0.00  0.00     0.001 A 
ATOM     16  C   UNL d   1      29.482 -14.641  -3.947  0.00  0.00     0.002 A 
ATOM     17  C   UNL d   1      28.576 -15.547  -3.525  0.00  0.00     0.030 A 
ATOM     18  N   UNL d   1      28.090 -16.976  -1.511  0.00  0.00    -0.385 N 
ATOM     19  C   UNL d   1      28.687 -17.166  -0.154  0.00  0.00     0.155 A 
ATOM     20  H   UNL d   1      27.264 -17.435  -1.894  0.00  0.00     0.160 HD
ENDBRANCH  10  11
ENDBRANCH   9  10
ENDBRANCH   5   9
BRANCH   6  21
ATOM     21  C   UNL d   1      28.336 -13.499   4.726  0.00  0.00     0.055 A 
ATOM     22  C   UNL d   1      28.759 -14.455   5.675  0.00  0.00     0.031 A 
ATOM     23  C   UNL d   1      29.189 -14.081   6.954  0.00  0.00     0.009 A 
ATOM     24  C   UNL d   1      29.293 -12.733   7.286  0.00  0.00    -0.061 A 
ATOM     25  C   UNL d   1      29.890 -12.284   8.585  0.00  0.00     0.048 C 
ATOM     26  C   UNL d   1      28.860 -11.778   6.365  0.00  0.00     0.015 A 
ATOM     27  C   UNL d   1      28.347 -12.141   5.107  0.00  0.00    -0.034 A 
ATOM     28  C   UNL d   1      27.792 -11.026   4.270  0.00  0.00     0.050 C 
ENDBRANCH   6  21
BRANCH   1  29
ATOM     29  C   UNL d   1      26.321 -14.262  -0.534  0.00  0.00     0.037 A 
ATOM     30  C   UNL d   1      26.290 -13.238  -1.480  0.00  0.00     0.020 A 
ATOM     31  C   UNL d   1      25.730 -13.460  -2.754  0.00  0.00     0.040 A 
ATOM     32  C   UNL d   1      25.255 -14.731  -3.159  0.00  0.00     0.101 A 
ATOM     33  C   UNL d   1      25.314 -15.770  -2.202  0.00  0.00     0.102 A 
ATOM     34  C   UNL d   1      25.838 -15.514  -0.913  0.00  0.00     0.056 A 
BRANCH  32  35
ATOM     35  O   UNL d   1      25.072 -14.815  -4.524  0.00  0.00    -0.353 OA
ATOM     36  C   UNL d   1      25.910 -15.575  -5.395  0.00  0.00     0.210 C 
ENDBRANCH  32  35
BRANCH  33  37
ATOM     37  O   UNL d   1      24.987 -17.107  -2.272  0.00  0.00    -0.353 OA
ATOM     38  C   UNL d   1      24.128 -17.556  -1.266  0.00  0.00     0.210 C 
ENDBRANCH  33  37
ENDBRANCH   1  29
TORSDOF 7
ENDMDL
MODEL 9
REMARK VINA RESULT:    -6.927      3.473      8.315
REMARK INTER + INTRA:         -12.063
REMARK INTER:                  -9.015
REMARK INTRA:                  -3.049
REMARK CONF_INDEPENDENT:        2.088
REMARK UNBOUND:                -3.049
REMARK  7 active torsions:
REMARK  status: ('A' for Active; 'I' for Inactive)
REMARK    1  A    between atoms: O_2  and  C_3 
REMARK    2  A    between atoms: C_6  and  C_7 
REMARK       I    between atoms: C_7  and  N_9 
REMARK       I    between atoms: C_10  and  N_11 
REMARK       I    between atoms: C_10  and  N_23 
REMARK    3  A    between atoms: N_11  and  C_12 
REMARK    4  A    between atoms: C_12  and  C_13 
REMARK    5  A    between atoms: C_13  and  C_14 
REMARK    6  A    between atoms: N_23  and  C_24 
REMARK    7  A    between atoms: C_33  and  O_34 
ROOT
ATOM      1  C   UNL d   1      25.313 -14.056  -3.418  0.00  0.00     0.294 C 
ATOM      2  O   UNL d   1      24.749 -14.073  -4.523  0.00  0.00    -0.265 OA
ATOM      3  N   UNL d   1      26.067 -13.009  -2.941  0.00  0.00    -0.023 NA
ATOM      4  C   UNL d   1      26.121 -11.885  -3.600  0.00  0.00     0.704 C 
ATOM      5  N   UNL d   1      26.740 -10.808  -3.017  0.00  0.00    -0.224 N 
ATOM      6  N   UNL d   1      25.530 -11.606  -4.811  0.00  0.00    -0.190 N 
ATOM      7  H   UNL d   1      26.693  -9.940  -3.542  0.00  0.00     0.177 HD
ATOM      8  H   UNL d   1      25.054 -12.420  -5.215  0.00  0.00     0.184 HD
ENDROOT
BRANCH   5   9
ATOM      9  C   UNL d   1      27.665 -10.911  -1.910  0.00  0.00     0.142 C 
BRANCH   9  10
ATOM     10  C   UNL d   1      28.990 -11.554  -2.311  0.00  0.00     0.057 C 
BRANCH  10  11
ATOM     11  C   UNL d   1      28.969 -13.046  -2.456  0.00  0.00    -0.048 A 
ATOM     12  C   UNL d   1      29.012 -13.627  -3.655  0.00  0.00    -0.006 A 
ATOM     13  C   UNL d   1      29.067 -13.074  -4.961  0.00  0.00     0.014 A 
ATOM     14  C   UNL d   1      28.948 -15.073  -3.417  0.00  0.00     0.038 A 
ATOM     15  C   UNL d   1      28.950 -13.903  -6.002  0.00  0.00     0.001 A 
ATOM     16  C   UNL d   1      28.912 -15.347  -5.817  0.00  0.00     0.002 A 
ATOM     17  C   UNL d   1      28.912 -15.949  -4.609  0.00  0.00     0.030 A 
ATOM     18  N   UNL d   1      28.929 -15.343  -2.166  0.00  0.00    -0.385 N 
ATOM     19  C   UNL d   1      28.889 -14.080  -1.368  0.00  0.00     0.155 A 
ATOM     20  H   UNL d   1      28.950 -16.299  -1.812  0.00  0.00     0.160 HD
ENDBRANCH  10  11
ENDBRANCH   9  10
ENDBRANCH   5   9
BRANCH   6  21
ATOM     21  C   UNL d   1      25.873 -10.669  -5.818  0.00  0.00     0.055 A 
ATOM     22  C   UNL d   1      26.672 -11.131  -6.887  0.00  0.00     0.031 A 
ATOM     23  C   UNL d   1      27.078 -10.280  -7.922  0.00  0.00     0.009 A 
ATOM     24  C   UNL d   1      26.619  -8.966  -7.963  0.00  0.00    -0.061 A 
ATOM     25  C   UNL d   1      26.902  -8.067  -9.127  0.00  0.00     0.048 C 
ATOM     26  C   UNL d   1      25.845  -8.491  -6.903  0.00  0.00     0.015 A 
ATOM     27  C   UNL d   1      25.498  -9.310  -5.814  0.00  0.00    -0.034 A 
ATOM     28  C   UNL d   1      24.780  -8.638  -4.680  0.00  0.00     0.050 C 
ENDBRANCH   6  21
BRANCH   1  29
ATOM     29  C   UNL d   1      25.109 -15.211  -2.485  0.00  0.00     0.037 A 
ATOM     30  C   UNL d   1      23.837 -15.535  -2.016  0.00  0.00     0.020 A 
ATOM     31  C   UNL d   1      23.669 -16.554  -1.056  0.00  0.00     0.040 A 
ATOM     32  C   UNL d   1      24.751 -17.339  -0.591  0.00  0.00     0.101 A 
ATOM     33  C   UNL d   1      26.035 -17.019  -1.091  0.00  0.00     0.102 A 
ATOM     34  C   UNL d   1      26.188 -15.963  -2.019  0.00  0.00     0.056 A 
BRANCH  32  35
ATOM     35  O   UNL d   1      24.333 -18.478   0.066  0.00  0.00    -0.353 OA
ATOM     36  C   UNL d   1      23.282 -19.325  -0.399  0.00  0.00     0.210 C 
ENDBRANCH  32  35
BRANCH  33  37
ATOM     37  O   UNL d   1      27.271 -17.593  -0.890  0.00  0.00    -0.353 OA
ATOM     38  C   UNL d   1      27.965 -17.119   0.226  0.00  0.00     0.210 C 
ENDBRANCH  33  37
ENDBRANCH   1  29
TORSDOF 7
ENDMDL
