MODEL 1
REMARK VINA RESULT:    -8.342      0.000      0.000
REMARK INTER + INTRA:         -10.483
REMARK INTER:                  -9.535
REMARK INTRA:                  -0.948
REMARK CONF_INDEPENDENT:        1.193
REMARK UNBOUND:                -0.948
REMARK  4 active torsions:
REMARK  status: ('A' for Active; 'I' for Inactive)
REMARK    1  A    between atoms: C_6  and  N_7 
REMARK    2  A    between atoms: N_7  and  N_8 
REMARK       I    between atoms: N_8  and  C_9 
REMARK    3  A    between atoms: C_9  and  C_11 
REMARK    4  A    between atoms: C_16  and  O_17 
ROOT
ATOM      1  N   UNL d   1      21.314 -17.785  -0.718  0.00  0.00    -0.187 NA
ATOM      2  C   UNL d   1      20.688 -19.027  -0.806  0.00  0.00     0.247 C 
ATOM      3  O   UNL d   1      20.618 -19.609  -1.894  0.00  0.00    -0.273 OA
ATOM      4  H   UNL d   1      21.538 -17.430  -1.640  0.00  0.00     0.150 HD
ENDROOT
BRANCH   1   5
ATOM      5  N   UNL d   1      22.456 -17.688   0.165  0.00  0.00    -0.220 NA
ATOM      6  H   UNL d   1      22.276 -17.000   0.901  0.00  0.00     0.147 HD
BRANCH   5   7
ATOM      7  C   UNL d   1      23.683 -17.343  -0.485  0.00  0.00     0.023 A 
ATOM      8  C   UNL d   1      23.698 -16.301  -1.432  0.00  0.00     0.025 A 
ATOM      9  C   UNL d   1      24.905 -15.796  -1.937  0.00  0.00     0.002 A 
ATOM     10  C   UNL d   1      26.120 -16.311  -1.492  0.00  0.00     0.007 A 
ATOM     11  C   UNL d   1      26.132 -17.356  -0.566  0.00  0.00    -0.060 A 
ATOM     12  C   UNL d   1      27.416 -17.918  -0.036  0.00  0.00     0.048 C 
ATOM     13  C   UNL d   1      24.917 -17.865  -0.080  0.00  0.00     0.031 A 
ENDBRANCH   5   7
ENDBRANCH   1   5
BRANCH   2  14
ATOM     14  C   UNL d   1      19.976 -19.589   0.390  0.00  0.00     0.060 A 
ATOM     15  C   UNL d   1      20.600 -19.508   1.652  0.00  0.00     0.019 A 
ATOM     16  C   UNL d   1      20.003 -20.083   2.782  0.00  0.00     0.001 A 
ATOM     17  C   UNL d   1      18.776 -20.735   2.668  0.00  0.00     0.003 A 
ATOM     18  C   UNL d   1      18.151 -20.825   1.429  0.00  0.00     0.037 A 
ATOM     19  C   UNL d   1      18.756 -20.277   0.302  0.00  0.00     0.081 A 
BRANCH  19  20
ATOM     20  O   UNL d   1      18.125 -20.449  -0.894  0.00  0.00    -0.360 OA
ATOM     21  H   UNL d   1      18.532 -19.932  -1.604  0.00  0.00     0.217 HD
ENDBRANCH  19  20
ENDBRANCH   2  14
TORSDOF 4
ENDMDL
MODEL 2
REMARK VINA RESULT:    -6.859      2.144      6.865
REMARK INTER + INTRA:         -10.126
REMARK INTER:                  -8.052
REMARK INTRA:                  -2.074
REMARK CONF_INDEPENDENT:        1.193
REMARK UNBOUND:                -2.074
REMARK  4 active torsions:
REMARK  status: ('A' for Active; 'I' for Inactive)
REMARK    1  A    between atoms: C_6  and  N_7 
REMARK    2  A    between atoms: N_7  and  N_8 
REMARK       I    between atoms: N_8  and  C_9 
REMARK    3  A    between atoms: C_9  and  C_11 
REMARK    4  A    between atoms: C_16  and  O_17 
ROOT
ATOM      1  N   UNL d   1      23.463 -18.045   0.284  0.00  0.00    -0.187 NA
ATOM      2  C   UNL d   1      24.815 -17.890  -0.018  0.00  0.00     0.247 C 
ATOM      3  O   UNL d   1      25.672 -18.463   0.663  0.00  0.00    -0.273 OA
ATOM      4  H   UNL d   1      23.346 -18.541   1.159  0.00  0.00     0.150 HD
ENDROOT
BRANCH   1   5
ATOM      5  N   UNL d   1      22.623 -18.613  -0.749  0.00  0.00    -0.220 NA
ATOM      6  H   UNL d   1      22.539 -17.962  -1.534  0.00  0.00     0.147 HD
BRANCH   5   7
ATOM      7  C   UNL d   1      21.307 -18.969  -0.315  0.00  0.00     0.023 A 
ATOM      8  C   UNL d   1      20.291 -19.165  -1.270  0.00  0.00     0.025 A 
ATOM      9  C   UNL d   1      19.050 -19.711  -0.910  0.00  0.00     0.002 A 
ATOM     10  C   UNL d   1      18.809 -20.088   0.409  0.00  0.00     0.007 A 
ATOM     11  C   UNL d   1      19.794 -19.889   1.378  0.00  0.00    -0.060 A 
ATOM     12  C   UNL d   1      19.589 -20.310   2.801  0.00  0.00     0.048 C 
ATOM     13  C   UNL d   1      21.025 -19.326   1.008  0.00  0.00     0.031 A 
ENDBRANCH   5   7
ENDBRANCH   1   5
BRANCH   2  14
ATOM     14  C   UNL d   1      25.234 -16.913  -1.079  0.00  0.00     0.060 A 
ATOM     15  C   UNL d   1      26.586 -16.881  -1.478  0.00  0.00     0.019 A 
ATOM     16  C   UNL d   1      27.033 -15.936  -2.412  0.00  0.00     0.001 A 
ATOM     17  C   UNL d   1      26.137 -15.023  -2.964  0.00  0.00     0.003 A 
ATOM     18  C   UNL d   1      24.802 -15.040  -2.577  0.00  0.00     0.037 A 
ATOM     19  C   UNL d   1      24.362 -15.961  -1.630  0.00  0.00     0.081 A 
BRANCH  19  20
ATOM     20  O   UNL d   1      23.057 -15.891  -1.247  0.00  0.00    -0.360 OA
ATOM     21  H   UNL d   1      22.669 -16.764  -1.094  0.00  0.00     0.217 HD
ENDBRANCH  19  20
ENDBRANCH   2  14
TORSDOF 4
ENDMDL
MODEL 3
REMARK VINA RESULT:    -6.810      2.238      6.738
REMARK INTER + INTRA:         -10.002
REMARK INTER:                  -8.003
REMARK INTRA:                  -1.999
REMARK CONF_INDEPENDENT:        1.193
REMARK UNBOUND:                -1.999
REMARK  4 active torsions:
REMARK  status: ('A' for Active; 'I' for Inactive)
REMARK    1  A    between atoms: C_6  and  N_7 
REMARK    2  A    between atoms: N_7  and  N_8 
REMARK       I    between atoms: N_8  and  C_9 
REMARK    3  A    between atoms: C_9  and  C_11 
REMARK    4  A    between atoms: C_16  and  O_17 
ROOT
ATOM      1  N   UNL d   1      23.148 -17.912  -1.230  0.00  0.00    -0.187 NA
ATOM      2  C   UNL d   1      23.850 -16.708  -1.191  0.00  0.00     0.247 C 
ATOM      3  O   UNL d   1      23.428 -15.725  -1.810  0.00  0.00    -0.273 OA
ATOM      4  H   UNL d   1      22.395 -17.866  -1.906  0.00  0.00     0.150 HD
ENDROOT
BRANCH   1   5
ATOM      5  N   UNL d   1      22.675 -18.435   0.034  0.00  0.00    -0.220 NA
ATOM      6  H   UNL d   1      23.266 -19.214   0.337  0.00  0.00     0.147 HD
BRANCH   5   7
ATOM      7  C   UNL d   1      21.315 -18.878   0.024  0.00  0.00     0.023 A 
ATOM      8  C   UNL d   1      20.655 -19.063  -1.205  0.00  0.00     0.025 A 
ATOM      9  C   UNL d   1      19.400 -19.688  -1.270  0.00  0.00     0.002 A 
ATOM     10  C   UNL d   1      18.790 -20.153  -0.107  0.00  0.00     0.007 A 
ATOM     11  C   UNL d   1      19.416 -19.966   1.126  0.00  0.00    -0.060 A 
ATOM     12  C   UNL d   1      18.812 -20.481   2.397  0.00  0.00     0.048 C 
ATOM     13  C   UNL d   1      20.664 -19.326   1.179  0.00  0.00     0.031 A 
ENDBRANCH   5   7
ENDBRANCH   1   5
BRANCH   2  14
ATOM     14  C   UNL d   1      25.190 -16.650  -0.517  0.00  0.00     0.060 A 
ATOM     15  C   UNL d   1      25.948 -15.464  -0.614  0.00  0.00     0.019 A 
ATOM     16  C   UNL d   1      27.234 -15.392  -0.061  0.00  0.00     0.001 A 
ATOM     17  C   UNL d   1      27.773 -16.494   0.600  0.00  0.00     0.003 A 
ATOM     18  C   UNL d   1      27.038 -17.670   0.700  0.00  0.00     0.037 A 
ATOM     19  C   UNL d   1      25.772 -17.752   0.130  0.00  0.00     0.081 A 
BRANCH  19  20
ATOM     20  O   UNL d   1      25.124 -18.948   0.208  0.00  0.00    -0.360 OA
ATOM     21  H   UNL d   1      24.619 -19.148  -0.592  0.00  0.00     0.217 HD
ENDBRANCH  19  20
ENDBRANCH   2  14
TORSDOF 4
ENDMDL
MODEL 4
REMARK VINA RESULT:    -6.516      4.600      8.848
REMARK INTER + INTRA:          -9.849
REMARK INTER:                  -7.710
REMARK INTRA:                  -2.140
REMARK CONF_INDEPENDENT:        1.193
REMARK UNBOUND:                -2.140
REMARK  4 active torsions:
REMARK  status: ('A' for Active; 'I' for Inactive)
REMARK    1  A    between atoms: C_6  and  N_7 
REMARK    2  A    between atoms: N_7  and  N_8 
REMARK       I    between atoms: N_8  and  C_9 
REMARK    3  A    between atoms: C_9  and  C_11 
REMARK    4  A    between atoms: C_16  and  O_17 
ROOT
ATOM      1  N   UNL d   1      25.357 -15.494  -3.700  0.00  0.00    -0.187 NA
ATOM      2  C   UNL d   1      25.159 -14.226  -4.244  0.00  0.00     0.247 C 
ATOM      3  O   UNL d   1      24.043 -13.698  -4.195  0.00  0.00    -0.273 OA
ATOM      4  H   UNL d   1      24.474 -15.908  -3.425  0.00  0.00     0.150 HD
ENDROOT
BRANCH   1   5
ATOM      5  N   UNL d   1      26.333 -15.606  -2.638  0.00  0.00    -0.220 NA
ATOM      6  H   UNL d   1      27.256 -15.816  -3.027  0.00  0.00     0.147 HD
BRANCH   5   7
ATOM      7  C   UNL d   1      26.026 -16.593  -1.649  0.00  0.00     0.023 A 
ATOM      8  C   UNL d   1      26.989 -16.928  -0.679  0.00  0.00     0.025 A 
ATOM      9  C   UNL d   1      26.662 -17.731   0.424  0.00  0.00     0.002 A 
ATOM     10  C   UNL d   1      25.361 -18.200   0.586  0.00  0.00     0.007 A 
ATOM     11  C   UNL d   1      24.391 -17.896  -0.371  0.00  0.00    -0.060 A 
ATOM     12  C   UNL d   1      22.972 -18.352  -0.219  0.00  0.00     0.048 C 
ATOM     13  C   UNL d   1      24.734 -17.105  -1.478  0.00  0.00     0.031 A 
ENDBRANCH   5   7
ENDBRANCH   1   5
BRANCH   2  14
ATOM     14  C   UNL d   1      26.266 -13.566  -5.014  0.00  0.00     0.060 A 
ATOM     15  C   UNL d   1      26.119 -12.215  -5.392  0.00  0.00     0.019 A 
ATOM     16  C   UNL d   1      27.095 -11.581  -6.174  0.00  0.00     0.001 A 
ATOM     17  C   UNL d   1      28.230 -12.283  -6.576  0.00  0.00     0.003 A 
ATOM     18  C   UNL d   1      28.387 -13.616  -6.214  0.00  0.00     0.037 A 
ATOM     19  C   UNL d   1      27.406 -14.253  -5.460  0.00  0.00     0.081 A 
BRANCH  19  20
ATOM     20  O   UNL d   1      27.586 -15.575  -5.186  0.00  0.00    -0.360 OA
ATOM     21  H   UNL d   1      26.892 -15.933  -4.615  0.00  0.00     0.217 HD
ENDBRANCH  19  20
ENDBRANCH   2  14
TORSDOF 4
ENDMDL
MODEL 5
REMARK VINA RESULT:    -6.147      4.567      8.608
REMARK INTER + INTRA:          -9.438
REMARK INTER:                  -7.340
REMARK INTRA:                  -2.097
REMARK CONF_INDEPENDENT:        1.193
REMARK UNBOUND:                -2.097
REMARK  4 active torsions:
REMARK  status: ('A' for Active; 'I' for Inactive)
REMARK    1  A    between atoms: C_6  and  N_7 
REMARK    2  A    between atoms: N_7  and  N_8 
REMARK       I    between atoms: N_8  and  C_9 
REMARK    3  A    between atoms: C_9  and  C_11 
REMARK    4  A    between atoms: C_16  and  O_17 
ROOT
ATOM      1  N   UNL d   1      26.513 -15.449  -3.487  0.00  0.00    -0.187 NA
ATOM      2  C   UNL d   1      26.669 -14.694  -4.648  0.00  0.00     0.247 C 
ATOM      3  O   UNL d   1      27.180 -15.201  -5.652  0.00  0.00    -0.273 OA
ATOM      4  H   UNL d   1      26.983 -16.342  -3.574  0.00  0.00     0.150 HD
ENDROOT
BRANCH   1   5
ATOM      5  N   UNL d   1      25.163 -15.622  -2.994  0.00  0.00    -0.220 NA
ATOM      6  H   UNL d   1      24.799 -14.732  -2.642  0.00  0.00     0.147 HD
BRANCH   5   7
ATOM      7  C   UNL d   1      25.028 -16.604  -1.963  0.00  0.00     0.023 A 
ATOM      8  C   UNL d   1      26.110 -16.858  -1.099  0.00  0.00     0.025 A 
ATOM      9  C   UNL d   1      25.956 -17.655   0.045  0.00  0.00     0.002 A 
ATOM     10  C   UNL d   1      24.712 -18.199   0.355  0.00  0.00     0.007 A 
ATOM     11  C   UNL d   1      23.627 -17.977  -0.494  0.00  0.00    -0.060 A 
ATOM     12  C   UNL d   1      22.264 -18.515  -0.181  0.00  0.00     0.048 C 
ATOM     13  C   UNL d   1      23.797 -17.190  -1.644  0.00  0.00     0.031 A 
ENDBRANCH   5   7
ENDBRANCH   1   5
BRANCH   2  14
ATOM     14  C   UNL d   1      26.348 -13.228  -4.631  0.00  0.00     0.060 A 
ATOM     15  C   UNL d   1      26.653 -12.452  -5.769  0.00  0.00     0.019 A 
ATOM     16  C   UNL d   1      26.437 -11.068  -5.769  0.00  0.00     0.001 A 
ATOM     17  C   UNL d   1      25.905 -10.445  -4.641  0.00  0.00     0.003 A 
ATOM     18  C   UNL d   1      25.603 -11.196  -3.511  0.00  0.00     0.037 A 
ATOM     19  C   UNL d   1      25.841 -12.567  -3.501  0.00  0.00     0.081 A 
BRANCH  19  20
ATOM     20  O   UNL d   1      25.580 -13.240  -2.346  0.00  0.00    -0.360 OA
ATOM     21  H   UNL d   1      26.217 -13.950  -2.180  0.00  0.00     0.217 HD
ENDBRANCH  19  20
ENDBRANCH   2  14
TORSDOF 4
ENDMDL
MODEL 6
REMARK VINA RESULT:    -5.947      4.670      8.407
REMARK INTER + INTRA:          -9.354
REMARK INTER:                  -7.140
REMARK INTRA:                  -2.215
REMARK CONF_INDEPENDENT:        1.193
REMARK UNBOUND:                -2.215
REMARK  4 active torsions:
REMARK  status: ('A' for Active; 'I' for Inactive)
REMARK    1  A    between atoms: C_6  and  N_7 
REMARK    2  A    between atoms: N_7  and  N_8 
REMARK       I    between atoms: N_8  and  C_9 
REMARK    3  A    between atoms: C_9  and  C_11 
REMARK    4  A    between atoms: C_16  and  O_17 
ROOT
ATOM      1  N   UNL d   1      26.121 -15.444  -3.347  0.00  0.00    -0.187 NA
ATOM      2  C   UNL d   1      26.320 -14.671  -4.490  0.00  0.00     0.247 C 
ATOM      3  O   UNL d   1      26.726 -15.198  -5.531  0.00  0.00    -0.273 OA
ATOM      4  H   UNL d   1      26.475 -16.383  -3.483  0.00  0.00     0.150 HD
ENDROOT
BRANCH   1   5
ATOM      5  N   UNL d   1      24.780 -15.471  -2.801  0.00  0.00    -0.220 NA
ATOM      6  H   UNL d   1      24.467 -14.521  -2.585  0.00  0.00     0.147 HD
BRANCH   5   7
ATOM      7  C   UNL d   1      24.633 -16.273  -1.626  0.00  0.00     0.023 A 
ATOM      8  C   UNL d   1      23.345 -16.646  -1.196  0.00  0.00     0.025 A 
ATOM      9  C   UNL d   1      23.164 -17.594  -0.178  0.00  0.00     0.002 A 
ATOM     10  C   UNL d   1      24.268 -18.200   0.417  0.00  0.00     0.007 A 
ATOM     11  C   UNL d   1      25.556 -17.836   0.021  0.00  0.00    -0.060 A 
ATOM     12  C   UNL d   1      26.770 -18.486   0.611  0.00  0.00     0.048 C 
ATOM     13  C   UNL d   1      25.724 -16.874  -0.988  0.00  0.00     0.031 A 
ENDBRANCH   5   7
ENDBRANCH   1   5
BRANCH   2  14
ATOM     14  C   UNL d   1      26.181 -13.178  -4.413  0.00  0.00     0.060 A 
ATOM     15  C   UNL d   1      26.347 -12.418  -5.590  0.00  0.00     0.019 A 
ATOM     16  C   UNL d   1      26.296 -11.018  -5.549  0.00  0.00     0.001 A 
ATOM     17  C   UNL d   1      26.069 -10.363  -4.340  0.00  0.00     0.003 A 
ATOM     18  C   UNL d   1      25.907 -11.099  -3.172  0.00  0.00     0.037 A 
ATOM     19  C   UNL d   1      25.983 -12.488  -3.206  0.00  0.00     0.081 A 
BRANCH  19  20
ATOM     20  O   UNL d   1      25.875 -13.152  -2.022  0.00  0.00    -0.360 OA
ATOM     21  H   UNL d   1      26.166 -14.072  -2.086  0.00  0.00     0.217 HD
ENDBRANCH  19  20
ENDBRANCH   2  14
TORSDOF 4
ENDMDL
MODEL 7
REMARK VINA RESULT:    -5.756      5.738      7.761
REMARK INTER + INTRA:          -8.975
REMARK INTER:                  -6.949
REMARK INTRA:                  -2.025
REMARK CONF_INDEPENDENT:        1.193
REMARK UNBOUND:                -2.025
REMARK  4 active torsions:
REMARK  status: ('A' for Active; 'I' for Inactive)
REMARK    1  A    between atoms: C_6  and  N_7 
REMARK    2  A    between atoms: N_7  and  N_8 
REMARK       I    between atoms: N_8  and  C_9 
REMARK    3  A    between atoms: C_9  and  C_11 
REMARK    4  A    between atoms: C_16  and  O_17 
ROOT
ATOM      1  N   UNL d   1      25.155 -15.204  -4.739  0.00  0.00    -0.187 NA
ATOM      2  C   UNL d   1      26.430 -15.474  -4.245  0.00  0.00     0.247 C 
ATOM      3  O   UNL d   1      27.387 -15.571  -5.020  0.00  0.00    -0.273 OA
ATOM      4  H   UNL d   1      25.146 -15.247  -5.752  0.00  0.00     0.150 HD
ENDROOT
BRANCH   1   5
ATOM      5  N   UNL d   1      24.512 -13.995  -4.269  0.00  0.00    -0.220 NA
ATOM      6  H   UNL d   1      23.741 -13.740  -4.892  0.00  0.00     0.147 HD
BRANCH   5   7
ATOM      7  C   UNL d   1      25.384 -12.868  -4.145  0.00  0.00     0.023 A 
ATOM      8  C   UNL d   1      25.901 -12.526  -2.881  0.00  0.00     0.025 A 
ATOM      9  C   UNL d   1      26.913 -11.563  -2.745  0.00  0.00     0.002 A 
ATOM     10  C   UNL d   1      27.438 -10.938  -3.873  0.00  0.00     0.007 A 
ATOM     11  C   UNL d   1      26.931 -11.247  -5.136  0.00  0.00    -0.060 A 
ATOM     12  C   UNL d   1      27.490 -10.623  -6.378  0.00  0.00     0.048 C 
ATOM     13  C   UNL d   1      25.907 -12.200  -5.258  0.00  0.00     0.031 A 
ENDBRANCH   5   7
ENDBRANCH   1   5
BRANCH   2  14
ATOM     14  C   UNL d   1      26.612 -15.788  -2.788  0.00  0.00     0.060 A 
ATOM     15  C   UNL d   1      27.904 -16.102  -2.317  0.00  0.00     0.019 A 
ATOM     16  C   UNL d   1      28.106 -16.472  -0.980  0.00  0.00     0.001 A 
ATOM     17  C   UNL d   1      27.027 -16.522  -0.099  0.00  0.00     0.003 A 
ATOM     18  C   UNL d   1      25.748 -16.218  -0.550  0.00  0.00     0.037 A 
ATOM     19  C   UNL d   1      25.542 -15.876  -1.883  0.00  0.00     0.081 A 
BRANCH  19  20
ATOM     20  O   UNL d   1      24.260 -15.646  -2.280  0.00  0.00    -0.360 OA
ATOM     21  H   UNL d   1      24.209 -15.057  -3.046  0.00  0.00     0.217 HD
ENDBRANCH  19  20
ENDBRANCH   2  14
TORSDOF 4
ENDMDL
MODEL 8
REMARK VINA RESULT:    -5.422      5.594      8.064
REMARK INTER + INTRA:          -8.877
REMARK INTER:                  -6.615
REMARK INTRA:                  -2.262
REMARK CONF_INDEPENDENT:        1.193
REMARK UNBOUND:                -2.262
REMARK  4 active torsions:
REMARK  status: ('A' for Active; 'I' for Inactive)
REMARK    1  A    between atoms: C_6  and  N_7 
REMARK    2  A    between atoms: N_7  and  N_8 
REMARK       I    between atoms: N_8  and  C_9 
REMARK    3  A    between atoms: C_9  and  C_11 
REMARK    4  A    between atoms: C_16  and  O_17 
ROOT
ATOM      1  N   UNL d   1      26.416 -14.202  -4.570  0.00  0.00    -0.187 NA
ATOM      2  C   UNL d   1      25.352 -14.598  -3.761  0.00  0.00     0.247 C 
ATOM      3  O   UNL d   1      24.241 -14.075  -3.900  0.00  0.00    -0.273 OA
ATOM      4  H   UNL d   1      26.163 -13.392  -5.124  0.00  0.00     0.150 HD
ENDROOT
BRANCH   1   5
ATOM      5  N   UNL d   1      27.026 -15.222  -5.395  0.00  0.00    -0.220 NA
ATOM      6  H   UNL d   1      27.317 -16.016  -4.818  0.00  0.00     0.147 HD
BRANCH   5   7
ATOM      7  C   UNL d   1      28.155 -14.778  -6.153  0.00  0.00     0.023 A 
ATOM      8  C   UNL d   1      28.232 -13.432  -6.559  0.00  0.00     0.025 A 
ATOM      9  C   UNL d   1      29.406 -12.908  -7.120  0.00  0.00     0.002 A 
ATOM     10  C   UNL d   1      30.531 -13.716  -7.270  0.00  0.00     0.007 A 
ATOM     11  C   UNL d   1      30.475 -15.058  -6.891  0.00  0.00    -0.060 A 
ATOM     12  C   UNL d   1      31.670 -15.954  -7.003  0.00  0.00     0.048 C 
ATOM     13  C   UNL d   1      29.289 -15.575  -6.345  0.00  0.00     0.031 A 
ENDBRANCH   5   7
ENDBRANCH   1   5
BRANCH   2  14
ATOM     14  C   UNL d   1      25.593 -15.553  -2.629  0.00  0.00     0.060 A 
ATOM     15  C   UNL d   1      24.489 -16.017  -1.884  0.00  0.00     0.019 A 
ATOM     16  C   UNL d   1      24.676 -16.853  -0.774  0.00  0.00     0.001 A 
ATOM     17  C   UNL d   1      25.962 -17.242  -0.403  0.00  0.00     0.003 A 
ATOM     18  C   UNL d   1      27.059 -16.789  -1.125  0.00  0.00     0.037 A 
ATOM     19  C   UNL d   1      26.877 -15.939  -2.211  0.00  0.00     0.081 A 
BRANCH  19  20
ATOM     20  O   UNL d   1      27.993 -15.481  -2.844  0.00  0.00    -0.360 OA
ATOM     21  H   UNL d   1      27.798 -14.767  -3.468  0.00  0.00     0.217 HD
ENDBRANCH  19  20
ENDBRANCH   2  14
TORSDOF 4
ENDMDL
MODEL 9
REMARK VINA RESULT:    -5.392      4.683      6.950
REMARK INTER + INTRA:          -8.868
REMARK INTER:                  -6.586
REMARK INTRA:                  -2.282
REMARK CONF_INDEPENDENT:        1.193
REMARK UNBOUND:                -2.282
REMARK  4 active torsions:
REMARK  status: ('A' for Active; 'I' for Inactive)
REMARK    1  A    between atoms: C_6  and  N_7 
REMARK    2  A    between atoms: N_7  and  N_8 
REMARK       I    between atoms: N_8  and  C_9 
REMARK    3  A    between atoms: C_9  and  C_11 
REMARK    4  A    between atoms: C_16  and  O_17 
ROOT
ATOM      1  N   UNL d   1      24.808 -14.795  -2.906  0.00  0.00    -0.187 NA
ATOM      2  C   UNL d   1      24.328 -15.680  -1.943  0.00  0.00     0.247 C 
ATOM      3  O   UNL d   1      23.129 -15.680  -1.645  0.00  0.00    -0.273 OA
ATOM      4  H   UNL d   1      24.091 -14.129  -3.171  0.00  0.00     0.150 HD
ENDROOT
BRANCH   1   5
ATOM      5  N   UNL d   1      25.432 -15.374  -4.077  0.00  0.00    -0.220 NA
ATOM      6  H   UNL d   1      26.040 -16.151  -3.804  0.00  0.00     0.147 HD
BRANCH   5   7
ATOM      7  C   UNL d   1      26.198 -14.454  -4.860  0.00  0.00     0.023 A 
ATOM      8  C   UNL d   1      25.956 -13.072  -4.741  0.00  0.00     0.025 A 
ATOM      9  C   UNL d   1      26.814 -12.131  -5.329  0.00  0.00     0.002 A 
ATOM     10  C   UNL d   1      27.940 -12.554  -6.031  0.00  0.00     0.007 A 
ATOM     11  C   UNL d   1      28.193 -13.919  -6.177  0.00  0.00    -0.060 A 
ATOM     12  C   UNL d   1      29.410 -14.417  -6.895  0.00  0.00     0.048 C 
ATOM     13  C   UNL d   1      27.318 -14.851  -5.598  0.00  0.00     0.031 A 
ENDBRANCH   5   7
ENDBRANCH   1   5
BRANCH   2  14
ATOM     14  C   UNL d   1      25.292 -16.532  -1.169  0.00  0.00     0.060 A 
ATOM     15  C   UNL d   1      24.783 -17.439  -0.216  0.00  0.00     0.019 A 
ATOM     16  C   UNL d   1      25.650 -18.200   0.579  0.00  0.00     0.001 A 
ATOM     17  C   UNL d   1      27.030 -18.073   0.427  0.00  0.00     0.003 A 
ATOM     18  C   UNL d   1      27.545 -17.181  -0.506  0.00  0.00     0.037 A 
ATOM     19  C   UNL d   1      26.685 -16.405  -1.278  0.00  0.00     0.081 A 
BRANCH  19  20
ATOM     20  O   UNL d   1      27.249 -15.506  -2.133  0.00  0.00    -0.360 OA
ATOM     21  H   UNL d   1      26.616 -14.842  -2.441  0.00  0.00     0.217 HD
ENDBRANCH  19  20
ENDBRANCH   2  14
TORSDOF 4
ENDMDL
