MODEL 1
REMARK VINA RESULT:    -8.780      0.000      0.000
REMARK INTER + INTRA:         -11.129
REMARK INTER:                  -9.973
REMARK INTRA:                  -1.156
REMARK CONF_INDEPENDENT:        1.193
REMARK UNBOUND:                -1.156
REMARK  4 active torsions:
REMARK  status: ('A' for Active; 'I' for Inactive)
REMARK    1  A    between atoms: C_2  and  N_3 
REMARK       I    between atoms: N_3  and  C_4 
REMARK       I    between atoms: C_4  and  N_6 
REMARK    2  A    between atoms: N_6  and  N_7 
REMARK       I    between atoms: N_7  and  C_8 
REMARK    3  A    between atoms: C_8  and  C_10 
REMARK    4  A    between atoms: C_11  and  C_12 
ROOT
ATOM      1  N   UNL d   1      23.394 -18.016  -0.840  0.00  0.00    -0.263 N 
ATOM      2  C   UNL d   1      24.734 -17.827  -0.521  0.00  0.00     0.259 C 
ATOM      3  O   UNL d   1      25.282 -18.407   0.417  0.00  0.00    -0.267 OA
ATOM      4  H   UNL d   1      22.913 -17.552  -1.609  0.00  0.00     0.190 HD
ENDROOT
BRANCH   2   5
ATOM      5  C   UNL d   1      25.493 -16.855  -1.397  0.00  0.00     0.076 C 
ATOM      6  C   UNL d   1      24.885 -16.103  -2.345  0.00  0.00     0.017 C 
BRANCH   6   7
ATOM      7  C   UNL d   1      25.577 -15.136  -3.241  0.00  0.00    -0.033 A 
ATOM      8  C   UNL d   1      25.421 -13.747  -3.070  0.00  0.00     0.014 A 
ATOM      9  C   UNL d   1      26.081 -12.830  -3.911  0.00  0.00     0.040 A 
ATOM     10  C   UNL d   1      26.881 -13.290  -4.954  0.00  0.00     0.102 A 
ATOM     11  C   UNL d   1      27.031 -14.664  -5.148  0.00  0.00     0.102 A 
ATOM     12  O   UNL d   1      27.496 -12.346  -5.739  0.00  0.00    -0.346 OA
ATOM     13  C   UNL d   1      26.369 -15.575  -4.312  0.00  0.00     0.051 A 
ATOM     14  O   UNL d   1      27.807 -15.200  -6.145  0.00  0.00    -0.346 OA
ATOM     15  C   UNL d   1      28.705 -14.231  -6.697  0.00  0.00     0.202 C 
ATOM     16  C   UNL d   1      27.998 -12.912  -6.956  0.00  0.00     0.202 C 
ENDBRANCH   6   7
ENDBRANCH   2   5
BRANCH   1  17
ATOM     17  N   UNL d   1      22.581 -18.925  -0.063  0.00  0.00    -0.249 N 
ATOM     18  C   UNL d   1      21.205 -18.956  -0.252  0.00  0.00     0.334 C 
ATOM     19  N   UNL d   1      20.524 -19.862   0.545  0.00  0.00    -0.342 N 
ATOM     20  O   UNL d   1      20.639 -18.231  -1.070  0.00  0.00    -0.246 OA
ATOM     21  H   UNL d   1      21.030 -20.437   1.201  0.00  0.00     0.164 HD
ATOM     22  H   UNL d   1      23.078 -19.509   0.603  0.00  0.00     0.192 HD
BRANCH  19  23
ATOM     23  C   UNL d   1      19.067 -20.014   0.462  0.00  0.00     0.120 C 
ATOM     24  C   UNL d   1      18.542 -21.352   0.980  0.00  0.00     0.026 C 
ENDBRANCH  19  23
ENDBRANCH   1  17
TORSDOF 4
ENDMDL
MODEL 2
REMARK VINA RESULT:    -8.044      1.016      1.969
REMARK INTER + INTRA:         -10.403
REMARK INTER:                  -9.238
REMARK INTRA:                  -1.165
REMARK CONF_INDEPENDENT:        1.193
REMARK UNBOUND:                -1.165
REMARK  4 active torsions:
REMARK  status: ('A' for Active; 'I' for Inactive)
REMARK    1  A    between atoms: C_2  and  N_3 
REMARK       I    between atoms: N_3  and  C_4 
REMARK       I    between atoms: C_4  and  N_6 
REMARK    2  A    between atoms: N_6  and  N_7 
REMARK       I    between atoms: N_7  and  C_8 
REMARK    3  A    between atoms: C_8  and  C_10 
REMARK    4  A    between atoms: C_11  and  C_12 
ROOT
ATOM      1  N   UNL d   1      23.338 -17.980  -0.908  0.00  0.00    -0.263 N 
ATOM      2  C   UNL d   1      24.688 -17.803  -0.627  0.00  0.00     0.259 C 
ATOM      3  O   UNL d   1      25.263 -18.408   0.279  0.00  0.00    -0.267 OA
ATOM      4  H   UNL d   1      22.835 -17.497  -1.650  0.00  0.00     0.190 HD
ENDROOT
BRANCH   2   5
ATOM      5  C   UNL d   1      25.422 -16.812  -1.503  0.00  0.00     0.076 C 
ATOM      6  C   UNL d   1      24.780 -15.978  -2.353  0.00  0.00     0.017 C 
BRANCH   6   7
ATOM      7  C   UNL d   1      25.446 -14.988  -3.244  0.00  0.00    -0.033 A 
ATOM      8  C   UNL d   1      26.359 -15.400  -4.235  0.00  0.00     0.014 A 
ATOM      9  C   UNL d   1      26.983 -14.467  -5.084  0.00  0.00     0.040 A 
ATOM     10  C   UNL d   1      26.729 -13.106  -4.935  0.00  0.00     0.102 A 
ATOM     11  C   UNL d   1      25.841 -12.680  -3.945  0.00  0.00     0.102 A 
ATOM     12  O   UNL d   1      27.370 -12.248  -5.793  0.00  0.00    -0.346 OA
ATOM     13  C   UNL d   1      25.223 -13.611  -3.098  0.00  0.00     0.051 A 
ATOM     14  O   UNL d   1      25.528 -11.360  -3.738  0.00  0.00    -0.346 OA
ATOM     15  C   UNL d   1      25.907 -10.543  -4.850  0.00  0.00     0.202 C 
ATOM     16  C   UNL d   1      27.304 -10.891  -5.336  0.00  0.00     0.202 C 
ENDBRANCH   6   7
ENDBRANCH   2   5
BRANCH   1  17
ATOM     17  N   UNL d   1      22.546 -18.905  -0.128  0.00  0.00    -0.249 N 
ATOM     18  C   UNL d   1      21.171 -18.973  -0.321  0.00  0.00     0.334 C 
ATOM     19  N   UNL d   1      20.511 -19.891   0.480  0.00  0.00    -0.342 N 
ATOM     20  O   UNL d   1      20.589 -18.265  -1.143  0.00  0.00    -0.246 OA
ATOM     21  H   UNL d   1      21.030 -20.450   1.140  0.00  0.00     0.164 HD
ATOM     22  H   UNL d   1      23.056 -19.474   0.541  0.00  0.00     0.192 HD
BRANCH  19  23
ATOM     23  C   UNL d   1      19.059 -20.080   0.395  0.00  0.00     0.120 C 
ATOM     24  C   UNL d   1      18.509 -21.167   1.317  0.00  0.00     0.026 C 
ENDBRANCH  19  23
ENDBRANCH   1  17
TORSDOF 4
ENDMDL
MODEL 3
REMARK VINA RESULT:    -7.651      1.539      1.651
REMARK INTER + INTRA:          -9.411
REMARK INTER:                  -8.844
REMARK INTRA:                  -0.568
REMARK CONF_INDEPENDENT:        1.193
REMARK UNBOUND:                -0.568
REMARK  4 active torsions:
REMARK  status: ('A' for Active; 'I' for Inactive)
REMARK    1  A    between atoms: C_2  and  N_3 
REMARK       I    between atoms: N_3  and  C_4 
REMARK       I    between atoms: C_4  and  N_6 
REMARK    2  A    between atoms: N_6  and  N_7 
REMARK       I    between atoms: N_7  and  C_8 
REMARK    3  A    between atoms: C_8  and  C_10 
REMARK    4  A    between atoms: C_11  and  C_12 
ROOT
ATOM      1  N   UNL d   1      23.028 -18.752  -0.300  0.00  0.00    -0.263 N 
ATOM      2  C   UNL d   1      23.214 -17.396  -0.545  0.00  0.00     0.259 C 
ATOM      3  O   UNL d   1      22.400 -16.540  -0.194  0.00  0.00    -0.267 OA
ATOM      4  H   UNL d   1      23.681 -19.483  -0.577  0.00  0.00     0.190 HD
ENDROOT
BRANCH   2   5
ATOM      5  C   UNL d   1      24.483 -17.023  -1.279  0.00  0.00     0.076 C 
ATOM      6  C   UNL d   1      24.700 -15.781  -1.769  0.00  0.00     0.017 C 
BRANCH   6   7
ATOM      7  C   UNL d   1      25.923 -15.355  -2.504  0.00  0.00    -0.033 A 
ATOM      8  C   UNL d   1      27.030 -14.814  -1.822  0.00  0.00     0.014 A 
ATOM      9  C   UNL d   1      28.191 -14.418  -2.514  0.00  0.00     0.040 A 
ATOM     10  C   UNL d   1      28.250 -14.530  -3.901  0.00  0.00     0.102 A 
ATOM     11  C   UNL d   1      27.154 -15.048  -4.593  0.00  0.00     0.102 A 
ATOM     12  O   UNL d   1      29.409 -14.127  -4.516  0.00  0.00    -0.346 OA
ATOM     13  C   UNL d   1      25.997 -15.437  -3.903  0.00  0.00     0.051 A 
ATOM     14  O   UNL d   1      27.134 -15.200  -5.957  0.00  0.00    -0.346 OA
ATOM     15  C   UNL d   1      28.448 -15.125  -6.519  0.00  0.00     0.202 C 
ATOM     16  C   UNL d   1      29.233 -13.966  -5.929  0.00  0.00     0.202 C 
ENDBRANCH   6   7
ENDBRANCH   2   5
BRANCH   1  17
ATOM     17  N   UNL d   1      21.846 -19.213   0.394  0.00  0.00    -0.249 N 
ATOM     18  C   UNL d   1      20.730 -19.615  -0.330  0.00  0.00     0.334 C 
ATOM     19  N   UNL d   1      19.655 -20.036   0.436  0.00  0.00    -0.342 N 
ATOM     20  O   UNL d   1      20.705 -19.595  -1.560  0.00  0.00    -0.246 OA
ATOM     21  H   UNL d   1      19.721 -20.035   1.442  0.00  0.00     0.164 HD
ATOM     22  H   UNL d   1      21.899 -19.217   1.408  0.00  0.00     0.192 HD
BRANCH  19  23
ATOM     23  C   UNL d   1      18.404 -20.491  -0.181  0.00  0.00     0.120 C 
ATOM     24  C   UNL d   1      17.669 -21.574   0.607  0.00  0.00     0.026 C 
ENDBRANCH  19  23
ENDBRANCH   1  17
TORSDOF 4
ENDMDL
MODEL 4
REMARK VINA RESULT:    -6.750      4.080      4.703
REMARK INTER + INTRA:          -8.453
REMARK INTER:                  -7.943
REMARK INTRA:                  -0.510
REMARK CONF_INDEPENDENT:        1.193
REMARK UNBOUND:                -0.510
REMARK  4 active torsions:
REMARK  status: ('A' for Active; 'I' for Inactive)
REMARK    1  A    between atoms: C_2  and  N_3 
REMARK       I    between atoms: N_3  and  C_4 
REMARK       I    between atoms: C_4  and  N_6 
REMARK    2  A    between atoms: N_6  and  N_7 
REMARK       I    between atoms: N_7  and  C_8 
REMARK    3  A    between atoms: C_8  and  C_10 
REMARK    4  A    between atoms: C_11  and  C_12 
ROOT
ATOM      1  N   UNL d   1      21.981 -18.030  -0.324  0.00  0.00    -0.263 N 
ATOM      2  C   UNL d   1      23.106 -18.480  -1.005  0.00  0.00     0.259 C 
ATOM      3  O   UNL d   1      23.038 -19.232  -1.978  0.00  0.00    -0.267 OA
ATOM      4  H   UNL d   1      22.005 -17.408   0.482  0.00  0.00     0.190 HD
ENDROOT
BRANCH   2   5
ATOM      5  C   UNL d   1      24.438 -17.995  -0.478  0.00  0.00     0.076 C 
ATOM      6  C   UNL d   1      25.122 -16.979  -1.054  0.00  0.00     0.017 C 
BRANCH   6   7
ATOM      7  C   UNL d   1      26.437 -16.461  -0.587  0.00  0.00    -0.033 A 
ATOM      8  C   UNL d   1      27.634 -17.138  -0.892  0.00  0.00     0.014 A 
ATOM      9  C   UNL d   1      28.881 -16.646  -0.458  0.00  0.00     0.040 A 
ATOM     10  C   UNL d   1      28.946 -15.487   0.312  0.00  0.00     0.102 A 
ATOM     11  C   UNL d   1      27.766 -14.816   0.638  0.00  0.00     0.102 A 
ATOM     12  O   UNL d   1      30.189 -15.061   0.704  0.00  0.00    -0.346 OA
ATOM     13  C   UNL d   1      26.526 -15.309   0.209  0.00  0.00     0.051 A 
ATOM     14  O   UNL d   1      27.742 -13.664   1.384  0.00  0.00    -0.346 OA
ATOM     15  C   UNL d   1      29.035 -13.054   1.460  0.00  0.00     0.202 C 
ATOM     16  C   UNL d   1      30.112 -14.085   1.751  0.00  0.00     0.202 C 
ENDBRANCH   6   7
ENDBRANCH   2   5
BRANCH   1  17
ATOM     17  N   UNL d   1      20.660 -18.437  -0.749  0.00  0.00    -0.249 N 
ATOM     18  C   UNL d   1      20.057 -19.545  -0.168  0.00  0.00     0.334 C 
ATOM     19  N   UNL d   1      18.793 -19.846  -0.650  0.00  0.00    -0.342 N 
ATOM     20  O   UNL d   1      20.610 -20.207   0.711  0.00  0.00    -0.246 OA
ATOM     21  H   UNL d   1      18.379 -19.275  -1.371  0.00  0.00     0.164 HD
ATOM     22  H   UNL d   1      20.232 -17.871  -1.475  0.00  0.00     0.192 HD
BRANCH  19  23
ATOM     23  C   UNL d   1      18.026 -20.987  -0.137  0.00  0.00     0.120 C 
ATOM     24  C   UNL d   1      18.068 -21.142   1.382  0.00  0.00     0.026 C 
ENDBRANCH  19  23
ENDBRANCH   1  17
TORSDOF 4
ENDMDL
MODEL 5
REMARK VINA RESULT:    -6.363      6.551      8.110
REMARK INTER + INTRA:          -8.074
REMARK INTER:                  -7.556
REMARK INTRA:                  -0.518
REMARK CONF_INDEPENDENT:        1.193
REMARK UNBOUND:                -0.518
REMARK  4 active torsions:
REMARK  status: ('A' for Active; 'I' for Inactive)
REMARK    1  A    between atoms: C_2  and  N_3 
REMARK       I    between atoms: N_3  and  C_4 
REMARK       I    between atoms: C_4  and  N_6 
REMARK    2  A    between atoms: N_6  and  N_7 
REMARK       I    between atoms: N_7  and  C_8 
REMARK    3  A    between atoms: C_8  and  C_10 
REMARK    4  A    between atoms: C_11  and  C_12 
ROOT
ATOM      1  N   UNL d   1      29.625 -14.722   3.993  0.00  0.00    -0.263 N 
ATOM      2  C   UNL d   1      28.453 -14.056   3.652  0.00  0.00     0.259 C 
ATOM      3  O   UNL d   1      27.977 -13.154   4.342  0.00  0.00    -0.267 OA
ATOM      4  H   UNL d   1      30.044 -15.470   3.443  0.00  0.00     0.190 HD
ENDROOT
BRANCH   2   5
ATOM      5  C   UNL d   1      27.784 -14.506   2.372  0.00  0.00     0.076 C 
ATOM      6  C   UNL d   1      27.667 -13.700   1.290  0.00  0.00     0.017 C 
BRANCH   6   7
ATOM      7  C   UNL d   1      27.014 -14.082   0.008  0.00  0.00    -0.033 A 
ATOM      8  C   UNL d   1      26.385 -15.333  -0.143  0.00  0.00     0.014 A 
ATOM      9  C   UNL d   1      25.759 -15.693  -1.352  0.00  0.00     0.040 A 
ATOM     10  C   UNL d   1      25.781 -14.821  -2.437  0.00  0.00     0.102 A 
ATOM     11  C   UNL d   1      26.417 -13.585  -2.309  0.00  0.00     0.102 A 
ATOM     12  O   UNL d   1      25.155 -15.232  -3.587  0.00  0.00    -0.346 OA
ATOM     13  C   UNL d   1      27.043 -13.230  -1.106  0.00  0.00     0.051 A 
ATOM     14  O   UNL d   1      26.476 -12.664  -3.325  0.00  0.00    -0.346 OA
ATOM     15  C   UNL d   1      25.525 -12.950  -4.357  0.00  0.00     0.202 C 
ATOM     16  C   UNL d   1      25.529 -14.427  -4.713  0.00  0.00     0.202 C 
ENDBRANCH   6   7
ENDBRANCH   2   5
BRANCH   1  17
ATOM     17  N   UNL d   1      30.342 -14.367   5.197  0.00  0.00    -0.249 N 
ATOM     18  C   UNL d   1      29.702 -14.437   6.429  0.00  0.00     0.334 C 
ATOM     19  N   UNL d   1      30.481 -14.074   7.516  0.00  0.00    -0.342 N 
ATOM     20  O   UNL d   1      28.530 -14.797   6.539  0.00  0.00    -0.246 OA
ATOM     21  H   UNL d   1      31.438 -13.786   7.377  0.00  0.00     0.164 HD
ATOM     22  H   UNL d   1      31.306 -14.074   5.072  0.00  0.00     0.192 HD
BRANCH  19  23
ATOM     23  C   UNL d   1      29.950 -14.096   8.884  0.00  0.00     0.120 C 
ATOM     24  C   UNL d   1      28.721 -13.215   9.097  0.00  0.00     0.026 C 
ENDBRANCH  19  23
ENDBRANCH   1  17
TORSDOF 4
ENDMDL
MODEL 6
REMARK VINA RESULT:    -6.283      3.796      4.251
REMARK INTER + INTRA:          -8.454
REMARK INTER:                  -7.476
REMARK INTRA:                  -0.978
REMARK CONF_INDEPENDENT:        1.193
REMARK UNBOUND:                -0.978
REMARK  4 active torsions:
REMARK  status: ('A' for Active; 'I' for Inactive)
REMARK    1  A    between atoms: C_2  and  N_3 
REMARK       I    between atoms: N_3  and  C_4 
REMARK       I    between atoms: C_4  and  N_6 
REMARK    2  A    between atoms: N_6  and  N_7 
REMARK       I    between atoms: N_7  and  C_8 
REMARK    3  A    between atoms: C_8  and  C_10 
REMARK    4  A    between atoms: C_11  and  C_12 
ROOT
ATOM      1  N   UNL d   1      22.229 -18.396  -0.497  0.00  0.00    -0.263 N 
ATOM      2  C   UNL d   1      22.802 -17.131  -0.567  0.00  0.00     0.259 C 
ATOM      3  O   UNL d   1      22.161 -16.129  -0.890  0.00  0.00    -0.267 OA
ATOM      4  H   UNL d   1      22.731 -19.242  -0.232  0.00  0.00     0.190 HD
ENDROOT
BRANCH   2   5
ATOM      5  C   UNL d   1      24.272 -17.049  -0.223  0.00  0.00     0.076 C 
ATOM      6  C   UNL d   1      25.113 -16.177  -0.828  0.00  0.00     0.017 C 
BRANCH   6   7
ATOM      7  C   UNL d   1      26.568 -16.054  -0.538  0.00  0.00    -0.033 A 
ATOM      8  C   UNL d   1      27.046 -15.112   0.393  0.00  0.00     0.014 A 
ATOM      9  C   UNL d   1      28.422 -14.999   0.675  0.00  0.00     0.040 A 
ATOM     10  C   UNL d   1      29.341 -15.805   0.007  0.00  0.00     0.102 A 
ATOM     11  C   UNL d   1      28.883 -16.730  -0.933  0.00  0.00     0.102 A 
ATOM     12  O   UNL d   1      30.666 -15.645   0.326  0.00  0.00    -0.346 OA
ATOM     13  C   UNL d   1      27.514 -16.838  -1.215  0.00  0.00     0.051 A 
ATOM     14  O   UNL d   1      29.720 -17.568  -1.628  0.00  0.00    -0.346 OA
ATOM     15  C   UNL d   1      31.017 -17.642  -1.026  0.00  0.00     0.202 C 
ATOM     16  C   UNL d   1      31.524 -16.261  -0.643  0.00  0.00     0.202 C 
ENDBRANCH   6   7
ENDBRANCH   2   5
BRANCH   1  17
ATOM     17  N   UNL d   1      20.829 -18.582  -0.806  0.00  0.00    -0.249 N 
ATOM     18  C   UNL d   1      20.139 -19.662  -0.270  0.00  0.00     0.334 C 
ATOM     19  N   UNL d   1      18.804 -19.744  -0.633  0.00  0.00    -0.342 N 
ATOM     20  O   UNL d   1      20.680 -20.482   0.472  0.00  0.00    -0.246 OA
ATOM     21  H   UNL d   1      18.404 -19.048  -1.244  0.00  0.00     0.164 HD
ATOM     22  H   UNL d   1      20.414 -17.889  -1.421  0.00  0.00     0.192 HD
BRANCH  19  23
ATOM     23  C   UNL d   1      17.941 -20.827  -0.149  0.00  0.00     0.120 C 
ATOM     24  C   UNL d   1      18.027 -21.076   1.356  0.00  0.00     0.026 C 
ENDBRANCH  19  23
ENDBRANCH   1  17
TORSDOF 4
ENDMDL
MODEL 7
REMARK VINA RESULT:    -6.087      1.954      2.471
REMARK INTER + INTRA:          -8.409
REMARK INTER:                  -7.280
REMARK INTRA:                  -1.129
REMARK CONF_INDEPENDENT:        1.193
REMARK UNBOUND:                -1.129
REMARK  4 active torsions:
REMARK  status: ('A' for Active; 'I' for Inactive)
REMARK    1  A    between atoms: C_2  and  N_3 
REMARK       I    between atoms: N_3  and  C_4 
REMARK       I    between atoms: C_4  and  N_6 
REMARK    2  A    between atoms: N_6  and  N_7 
REMARK       I    between atoms: N_7  and  C_8 
REMARK    3  A    between atoms: C_8  and  C_10 
REMARK    4  A    between atoms: C_11  and  C_12 
ROOT
ATOM      1  N   UNL d   1      23.759 -16.995  -1.564  0.00  0.00    -0.263 N 
ATOM      2  C   UNL d   1      25.118 -16.753  -1.728  0.00  0.00     0.259 C 
ATOM      3  O   UNL d   1      25.986 -17.471  -1.229  0.00  0.00    -0.267 OA
ATOM      4  H   UNL d   1      23.019 -16.421  -1.964  0.00  0.00     0.190 HD
ENDROOT
BRANCH   2   5
ATOM      5  C   UNL d   1      25.480 -15.543  -2.561  0.00  0.00     0.076 C 
ATOM      6  C   UNL d   1      25.731 -14.331  -2.013  0.00  0.00     0.017 C 
BRANCH   6   7
ATOM      7  C   UNL d   1      26.084 -13.104  -2.778  0.00  0.00    -0.033 A 
ATOM      8  C   UNL d   1      26.830 -12.067  -2.185  0.00  0.00     0.014 A 
ATOM      9  C   UNL d   1      27.172 -10.909  -2.909  0.00  0.00     0.040 A 
ATOM     10  C   UNL d   1      26.749 -10.758  -4.227  0.00  0.00     0.102 A 
ATOM     11  C   UNL d   1      25.992 -11.768  -4.823  0.00  0.00     0.102 A 
ATOM     12  O   UNL d   1      27.114  -9.606  -4.878  0.00  0.00    -0.346 OA
ATOM     13  C   UNL d   1      25.648 -12.919  -4.099  0.00  0.00     0.051 A 
ATOM     14  O   UNL d   1      25.542 -11.703  -6.118  0.00  0.00    -0.346 OA
ATOM     15  C   UNL d   1      26.231 -10.697  -6.869  0.00  0.00     0.202 C 
ATOM     16  C   UNL d   1      26.352  -9.407  -6.075  0.00  0.00     0.202 C 
ENDBRANCH   6   7
ENDBRANCH   2   5
BRANCH   1  17
ATOM     17  N   UNL d   1      23.309 -18.127  -0.785  0.00  0.00    -0.249 N 
ATOM     18  C   UNL d   1      21.954 -18.291  -0.522  0.00  0.00     0.334 C 
ATOM     19  N   UNL d   1      21.634 -19.408   0.233  0.00  0.00    -0.342 N 
ATOM     20  O   UNL d   1      21.106 -17.499  -0.934  0.00  0.00    -0.246 OA
ATOM     21  H   UNL d   1      22.364 -20.029   0.548  0.00  0.00     0.164 HD
ATOM     22  H   UNL d   1      24.033 -18.760  -0.460  0.00  0.00     0.192 HD
BRANCH  19  23
ATOM     23  C   UNL d   1      20.247 -19.719   0.594  0.00  0.00     0.120 C 
ATOM     24  C   UNL d   1      19.269 -19.695  -0.579  0.00  0.00     0.026 C 
ENDBRANCH  19  23
ENDBRANCH   1  17
TORSDOF 4
ENDMDL
