MODEL 1
REMARK VINA RESULT:    -8.382      0.000      0.000
REMARK INTER + INTRA:         -11.683
REMARK INTER:                  -9.874
REMARK INTRA:                  -1.809
REMARK CONF_INDEPENDENT:        1.492
REMARK UNBOUND:                -1.809
REMARK  5 active torsions:
REMARK  status: ('A' for Active; 'I' for Inactive)
REMARK    1  A    between atoms: C_2  and  N_4 
REMARK       I    between atoms: N_4  and  C_5 
REMARK       I    between atoms: C_5  and  N_7 
REMARK    2  A    between atoms: N_7  and  N_8 
REMARK       I    between atoms: N_8  and  C_9 
REMARK    3  A    between atoms: C_9  and  C_11 
REMARK    4  A    between atoms: C_11  and  O_13 
REMARK    5  A    between atoms: O_13  and  C_14 
ROOT
ATOM      1  N   UNL d   1      23.769 -17.894  -0.771  0.00  0.00    -0.264 N 
ATOM      2  C   UNL d   1      25.081 -17.622  -0.369  0.00  0.00     0.265 C 
ATOM      3  O   UNL d   1      25.564 -18.190   0.614  0.00  0.00    -0.269 OA
ATOM      4  H   UNL d   1      23.300 -17.451  -1.560  0.00  0.00     0.190 HD
ENDROOT
BRANCH   2   5
ATOM      5  C   UNL d   1      25.886 -16.568  -1.237  0.00  0.00     0.218 C 
ATOM      6  C   UNL d   1      27.348 -17.015  -1.251  0.00  0.00     0.050 C 
BRANCH   5   7
ATOM      7  O   UNL d   1      25.304 -16.448  -2.569  0.00  0.00    -0.337 OA
BRANCH   7   8
ATOM      8  C   UNL d   1      25.533 -15.324  -3.331  0.00  0.00     0.071 C 
ATOM      9  C   UNL d   1      24.900 -14.100  -3.110  0.00  0.00     0.037 C 
ATOM     10  C   UNL d   1      25.156 -12.971  -3.892  0.00  0.00     0.004 C 
ATOM     11  C   UNL d   1      26.154 -13.014  -4.850  0.00  0.00     0.024 C 
ATOM     12  C   UNL d   1      26.878 -14.192  -5.018  0.00  0.00     0.036 C 
ATOM     13 CL   UNL d   1      28.164 -14.209  -6.165  0.00  0.00    -0.084 Cl
ATOM     14  C   UNL d   1      26.576 -15.344  -4.266  0.00  0.00     0.060 C 
ENDBRANCH   7   8
ENDBRANCH   5   7
ENDBRANCH   2   5
BRANCH   1  15
ATOM     15  N   UNL d   1      22.938 -18.778   0.003  0.00  0.00    -0.249 N 
ATOM     16  C   UNL d   1      21.562 -18.716  -0.159  0.00  0.00     0.335 C 
ATOM     17  N   UNL d   1      20.833 -19.582   0.635  0.00  0.00    -0.338 N 
ATOM     18  O   UNL d   1      21.047 -17.916  -0.944  0.00  0.00    -0.246 OA
ATOM     19  H   UNL d   1      21.321 -20.259   1.204  0.00  0.00     0.164 HD
ATOM     20  H   UNL d   1      23.419 -19.440   0.604  0.00  0.00     0.192 HD
BRANCH  17  21
ATOM     21  C   UNL d   1      19.356 -19.634   0.603  0.00  0.00     0.078 C 
ATOM     22  C   UNL d   1      18.786 -19.724  -0.823  0.00  0.00     0.032 C 
ATOM     23  C   UNL d   1      18.821 -20.827   1.399  0.00  0.00     0.032 C 
ENDBRANCH  17  21
ENDBRANCH   1  15
TORSDOF 5
ENDMDL
MODEL 2
REMARK VINA RESULT:    -7.729      3.797      8.216
REMARK INTER + INTRA:         -10.754
REMARK INTER:                  -9.221
REMARK INTRA:                  -1.533
REMARK CONF_INDEPENDENT:        1.492
REMARK UNBOUND:                -1.533
REMARK  5 active torsions:
REMARK  status: ('A' for Active; 'I' for Inactive)
REMARK    1  A    between atoms: C_2  and  N_4 
REMARK       I    between atoms: N_4  and  C_5 
REMARK       I    between atoms: C_5  and  N_7 
REMARK    2  A    between atoms: N_7  and  N_8 
REMARK       I    between atoms: N_8  and  C_9 
REMARK    3  A    between atoms: C_9  and  C_11 
REMARK    4  A    between atoms: C_11  and  O_13 
REMARK    5  A    between atoms: O_13  and  C_14 
ROOT
ATOM      1  N   UNL d   1      24.771 -16.125  -2.100  0.00  0.00    -0.264 N 
ATOM      2  C   UNL d   1      23.849 -16.607  -1.164  0.00  0.00     0.265 C 
ATOM      3  O   UNL d   1      22.838 -15.956  -0.891  0.00  0.00    -0.269 OA
ATOM      4  H   UNL d   1      25.635 -16.600  -2.361  0.00  0.00     0.190 HD
ENDROOT
BRANCH   2   5
ATOM      5  C   UNL d   1      24.178 -18.008  -0.499  0.00  0.00     0.218 C 
ATOM      6  C   UNL d   1      25.587 -17.914   0.084  0.00  0.00     0.050 C 
BRANCH   5   7
ATOM      7  O   UNL d   1      23.164 -18.359   0.489  0.00  0.00    -0.337 OA
BRANCH   7   8
ATOM      8  C   UNL d   1      21.919 -18.790   0.088  0.00  0.00     0.071 C 
ATOM      9  C   UNL d   1      21.547 -18.936  -1.249  0.00  0.00     0.037 C 
ATOM     10  C   UNL d   1      20.280 -19.383  -1.631  0.00  0.00     0.004 C 
ATOM     11  C   UNL d   1      19.387 -19.815  -0.666  0.00  0.00     0.024 C 
ATOM     12  C   UNL d   1      19.773 -19.784   0.673  0.00  0.00     0.036 C 
ATOM     13 CL   UNL d   1      18.678 -20.390   1.857  0.00  0.00    -0.084 Cl
ATOM     14  C   UNL d   1      21.030 -19.277   1.055  0.00  0.00     0.060 C 
ENDBRANCH   7   8
ENDBRANCH   5   7
ENDBRANCH   2   5
BRANCH   1  15
ATOM     15  N   UNL d   1      24.594 -14.828  -2.696  0.00  0.00    -0.249 N 
ATOM     16  C   UNL d   1      25.492 -14.408  -3.665  0.00  0.00     0.335 C 
ATOM     17  N   UNL d   1      25.266 -13.143  -4.174  0.00  0.00    -0.338 N 
ATOM     18  O   UNL d   1      26.435 -15.124  -4.014  0.00  0.00    -0.246 OA
ATOM     19  H   UNL d   1      24.436 -12.640  -3.895  0.00  0.00     0.164 HD
ATOM     20  H   UNL d   1      23.780 -14.300  -2.397  0.00  0.00     0.192 HD
BRANCH  17  21
ATOM     21  C   UNL d   1      26.139 -12.533  -5.201  0.00  0.00     0.078 C 
ATOM     22  C   UNL d   1      25.906 -11.023  -5.371  0.00  0.00     0.032 C 
ATOM     23  C   UNL d   1      27.619 -12.746  -4.874  0.00  0.00     0.032 C 
ENDBRANCH  17  21
ENDBRANCH   1  15
TORSDOF 5
ENDMDL
MODEL 3
REMARK VINA RESULT:    -7.303      2.400      3.343
REMARK INTER + INTRA:         -10.316
REMARK INTER:                  -8.794
REMARK INTRA:                  -1.522
REMARK CONF_INDEPENDENT:        1.492
REMARK UNBOUND:                -1.522
REMARK  5 active torsions:
REMARK  status: ('A' for Active; 'I' for Inactive)
REMARK    1  A    between atoms: C_2  and  N_4 
REMARK       I    between atoms: N_4  and  C_5 
REMARK       I    between atoms: C_5  and  N_7 
REMARK    2  A    between atoms: N_7  and  N_8 
REMARK       I    between atoms: N_8  and  C_9 
REMARK    3  A    between atoms: C_9  and  C_11 
REMARK    4  A    between atoms: C_11  and  O_13 
REMARK    5  A    between atoms: O_13  and  C_14 
ROOT
ATOM      1  N   UNL d   1      23.278 -18.168  -1.111  0.00  0.00    -0.264 N 
ATOM      2  C   UNL d   1      24.620 -17.824  -0.911  0.00  0.00     0.265 C 
ATOM      3  O   UNL d   1      25.243 -18.277   0.052  0.00  0.00    -0.269 OA
ATOM      4  H   UNL d   1      22.697 -17.818  -1.873  0.00  0.00     0.190 HD
ENDROOT
BRANCH   2   5
ATOM      5  C   UNL d   1      25.269 -16.846  -1.976  0.00  0.00     0.218 C 
ATOM      6  C   UNL d   1      24.406 -15.585  -2.019  0.00  0.00     0.050 C 
BRANCH   5   7
ATOM      7  O   UNL d   1      26.665 -16.582  -1.648  0.00  0.00    -0.337 OA
BRANCH   7   8
ATOM      8  C   UNL d   1      26.990 -15.732  -0.614  0.00  0.00     0.071 C 
ATOM      9  C   UNL d   1      27.449 -16.171   0.629  0.00  0.00     0.037 C 
ATOM     10  C   UNL d   1      27.780 -15.289   1.661  0.00  0.00     0.004 C 
ATOM     11  C   UNL d   1      27.773 -13.926   1.424  0.00  0.00     0.024 C 
ATOM     12  C   UNL d   1      27.425 -13.462   0.156  0.00  0.00     0.036 C 
ATOM     13 CL   UNL d   1      27.489 -11.767  -0.144  0.00  0.00    -0.084 Cl
ATOM     14  C   UNL d   1      27.036 -14.354  -0.862  0.00  0.00     0.060 C 
ENDBRANCH   7   8
ENDBRANCH   5   7
ENDBRANCH   2   5
BRANCH   1  15
ATOM     15  N   UNL d   1      22.585 -18.987  -0.152  0.00  0.00    -0.249 N 
ATOM     16  C   UNL d   1      21.200 -18.951  -0.119  0.00  0.00     0.335 C 
ATOM     17  N   UNL d   1      20.609 -19.751   0.843  0.00  0.00    -0.338 N 
ATOM     18  O   UNL d   1      20.561 -18.227  -0.887  0.00  0.00    -0.246 OA
ATOM     19  H   UNL d   1      21.188 -20.370   1.391  0.00  0.00     0.164 HD
ATOM     20  H   UNL d   1      23.161 -19.590   0.427  0.00  0.00     0.192 HD
BRANCH  17  21
ATOM     21  C   UNL d   1      19.144 -19.817   1.029  0.00  0.00     0.078 C 
ATOM     22  C   UNL d   1      18.430 -20.607  -0.081  0.00  0.00     0.032 C 
ATOM     23  C   UNL d   1      18.780 -20.459   2.370  0.00  0.00     0.032 C 
ENDBRANCH  17  21
ENDBRANCH   1  15
TORSDOF 5
ENDMDL
MODEL 4
REMARK VINA RESULT:    -7.197      4.651      8.426
REMARK INTER + INTRA:         -10.361
REMARK INTER:                  -8.689
REMARK INTRA:                  -1.672
REMARK CONF_INDEPENDENT:        1.492
REMARK UNBOUND:                -1.672
REMARK  5 active torsions:
REMARK  status: ('A' for Active; 'I' for Inactive)
REMARK    1  A    between atoms: C_2  and  N_4 
REMARK       I    between atoms: N_4  and  C_5 
REMARK       I    between atoms: C_5  and  N_7 
REMARK    2  A    between atoms: N_7  and  N_8 
REMARK       I    between atoms: N_8  and  C_9 
REMARK    3  A    between atoms: C_9  and  C_11 
REMARK    4  A    between atoms: C_11  and  O_13 
REMARK    5  A    between atoms: O_13  and  C_14 
ROOT
ATOM      1  N   UNL d   1      26.234 -13.083  -3.719  0.00  0.00    -0.264 N 
ATOM      2  C   UNL d   1      25.782 -14.387  -3.954  0.00  0.00     0.265 C 
ATOM      3  O   UNL d   1      24.780 -14.586  -4.645  0.00  0.00    -0.269 OA
ATOM      4  H   UNL d   1      27.043 -12.844  -3.146  0.00  0.00     0.190 HD
ENDROOT
BRANCH   2   5
ATOM      5  C   UNL d   1      26.622 -15.560  -3.296  0.00  0.00     0.218 C 
ATOM      6  C   UNL d   1      28.053 -15.443  -3.822  0.00  0.00     0.050 C 
BRANCH   5   7
ATOM      7  O   UNL d   1      26.532 -15.503  -1.842  0.00  0.00    -0.337 OA
BRANCH   7   8
ATOM      8  C   UNL d   1      25.897 -16.505  -1.143  0.00  0.00     0.071 C 
ATOM      9  C   UNL d   1      26.490 -17.207  -0.091  0.00  0.00     0.037 C 
ATOM     10  C   UNL d   1      25.822 -18.214   0.609  0.00  0.00     0.004 C 
ATOM     11  C   UNL d   1      24.485 -18.461   0.344  0.00  0.00     0.024 C 
ATOM     12  C   UNL d   1      23.838 -17.699  -0.626  0.00  0.00     0.036 C 
ATOM     13 CL   UNL d   1      22.158 -17.970  -0.895  0.00  0.00    -0.084 Cl
ATOM     14  C   UNL d   1      24.532 -16.725  -1.369  0.00  0.00     0.060 C 
ENDBRANCH   7   8
ENDBRANCH   5   7
ENDBRANCH   2   5
BRANCH   1  15
ATOM     15  N   UNL d   1      25.490 -11.955  -4.212  0.00  0.00    -0.249 N 
ATOM     16  C   UNL d   1      25.941 -10.677  -3.919  0.00  0.00     0.335 C 
ATOM     17  N   UNL d   1      25.161  -9.646  -4.410  0.00  0.00    -0.338 N 
ATOM     18  O   UNL d   1      26.957 -10.498  -3.241  0.00  0.00    -0.246 OA
ATOM     19  H   UNL d   1      24.382  -9.863  -5.015  0.00  0.00     0.164 HD
ATOM     20  H   UNL d   1      24.686 -12.163  -4.795  0.00  0.00     0.192 HD
BRANCH  17  21
ATOM     21  C   UNL d   1      25.486  -8.223  -4.174  0.00  0.00     0.078 C 
ATOM     22  C   UNL d   1      24.472  -7.259  -4.811  0.00  0.00     0.032 C 
ATOM     23  C   UNL d   1      25.558  -7.908  -2.678  0.00  0.00     0.032 C 
ENDBRANCH  17  21
ENDBRANCH   1  15
TORSDOF 5
ENDMDL
MODEL 5
REMARK VINA RESULT:    -7.084      4.728      8.434
REMARK INTER + INTRA:         -10.318
REMARK INTER:                  -8.576
REMARK INTRA:                  -1.742
REMARK CONF_INDEPENDENT:        1.492
REMARK UNBOUND:                -1.742
REMARK  5 active torsions:
REMARK  status: ('A' for Active; 'I' for Inactive)
REMARK    1  A    between atoms: C_2  and  N_4 
REMARK       I    between atoms: N_4  and  C_5 
REMARK       I    between atoms: C_5  and  N_7 
REMARK    2  A    between atoms: N_7  and  N_8 
REMARK       I    between atoms: N_8  and  C_9 
REMARK    3  A    between atoms: C_9  and  C_11 
REMARK    4  A    between atoms: C_11  and  O_13 
REMARK    5  A    between atoms: O_13  and  C_14 
ROOT
ATOM      1  N   UNL d   1      25.954 -12.679  -3.538  0.00  0.00    -0.264 N 
ATOM      2  C   UNL d   1      25.221 -13.809  -3.916  0.00  0.00     0.265 C 
ATOM      3  O   UNL d   1      24.045 -13.700  -4.270  0.00  0.00    -0.269 OA
ATOM      4  H   UNL d   1      26.923 -12.696  -3.218  0.00  0.00     0.190 HD
ENDROOT
BRANCH   2   5
ATOM      5  C   UNL d   1      25.981 -15.200  -3.864  0.00  0.00     0.218 C 
ATOM      6  C   UNL d   1      26.983 -15.211  -5.017  0.00  0.00     0.050 C 
BRANCH   5   7
ATOM      7  O   UNL d   1      26.597 -15.400  -2.557  0.00  0.00    -0.337 OA
BRANCH   7   8
ATOM      8  C   UNL d   1      26.103 -16.350  -1.691  0.00  0.00     0.071 C 
ATOM      9  C   UNL d   1      26.842 -16.895  -0.640  0.00  0.00     0.037 C 
ATOM     10  C   UNL d   1      26.316 -17.852   0.230  0.00  0.00     0.004 C 
ATOM     11  C   UNL d   1      24.979 -18.200   0.138  0.00  0.00     0.024 C 
ATOM     12  C   UNL d   1      24.188 -17.589  -0.834  0.00  0.00     0.036 C 
ATOM     13 CL   UNL d   1      22.511 -17.980  -0.891  0.00  0.00    -0.084 Cl
ATOM     14  C   UNL d   1      24.739 -16.668  -1.746  0.00  0.00     0.060 C 
ENDBRANCH   7   8
ENDBRANCH   5   7
ENDBRANCH   2   5
BRANCH   1  15
ATOM     15  N   UNL d   1      25.324 -11.387  -3.480  0.00  0.00    -0.249 N 
ATOM     16  C   UNL d   1      26.023 -10.325  -2.926  0.00  0.00     0.335 C 
ATOM     17  N   UNL d   1      25.342  -9.123  -2.888  0.00  0.00    -0.338 N 
ATOM     18  O   UNL d   1      27.164 -10.475  -2.481  0.00  0.00    -0.246 OA
ATOM     19  H   UNL d   1      24.438  -9.054  -3.334  0.00  0.00     0.164 HD
ATOM     20  H   UNL d   1      24.401 -11.315  -3.896  0.00  0.00     0.192 HD
BRANCH  17  21
ATOM     21  C   UNL d   1      25.932  -7.894  -2.315  0.00  0.00     0.078 C 
ATOM     22  C   UNL d   1      25.530  -6.620  -3.075  0.00  0.00     0.032 C 
ATOM     23  C   UNL d   1      25.530  -7.713  -0.849  0.00  0.00     0.032 C 
ENDBRANCH  17  21
ENDBRANCH   1  15
TORSDOF 5
ENDMDL
MODEL 6
REMARK VINA RESULT:    -7.007      3.776      8.475
REMARK INTER + INTRA:         -10.036
REMARK INTER:                  -8.499
REMARK INTRA:                  -1.538
REMARK CONF_INDEPENDENT:        1.492
REMARK UNBOUND:                -1.538
REMARK  5 active torsions:
REMARK  status: ('A' for Active; 'I' for Inactive)
REMARK    1  A    between atoms: C_2  and  N_4 
REMARK       I    between atoms: N_4  and  C_5 
REMARK       I    between atoms: C_5  and  N_7 
REMARK    2  A    between atoms: N_7  and  N_8 
REMARK       I    between atoms: N_8  and  C_9 
REMARK    3  A    between atoms: C_9  and  C_11 
REMARK    4  A    between atoms: C_11  and  O_13 
REMARK    5  A    between atoms: O_13  and  C_14 
ROOT
ATOM      1  N   UNL d   1      24.763 -16.464  -1.849  0.00  0.00    -0.264 N 
ATOM      2  C   UNL d   1      24.559 -17.257  -0.714  0.00  0.00     0.265 C 
ATOM      3  O   UNL d   1      25.516 -17.771  -0.131  0.00  0.00    -0.269 OA
ATOM      4  H   UNL d   1      24.020 -16.023  -2.390  0.00  0.00     0.190 HD
ENDROOT
BRANCH   2   5
ATOM      5  C   UNL d   1      23.058 -17.442  -0.238  0.00  0.00     0.218 C 
ATOM      6  C   UNL d   1      22.293 -16.186  -0.651  0.00  0.00     0.050 C 
BRANCH   5   7
ATOM      7  O   UNL d   1      22.494 -18.672  -0.783  0.00  0.00    -0.337 OA
BRANCH   7   8
ATOM      8  C   UNL d   1      21.239 -19.092  -0.403  0.00  0.00     0.071 C 
ATOM      9  C   UNL d   1      20.198 -19.325  -1.304  0.00  0.00     0.037 C 
ATOM     10  C   UNL d   1      18.935 -19.759  -0.895  0.00  0.00     0.004 C 
ATOM     11  C   UNL d   1      18.721 -20.088   0.433  0.00  0.00     0.024 C 
ATOM     12  C   UNL d   1      19.776 -19.969   1.336  0.00  0.00     0.036 C 
ATOM     13 CL   UNL d   1      19.515 -20.450   2.970  0.00  0.00    -0.084 Cl
ATOM     14  C   UNL d   1      21.030 -19.476   0.928  0.00  0.00     0.060 C 
ENDBRANCH   7   8
ENDBRANCH   5   7
ENDBRANCH   2   5
BRANCH   1  15
ATOM     15  N   UNL d   1      26.083 -16.304  -2.398  0.00  0.00    -0.249 N 
ATOM     16  C   UNL d   1      26.282 -15.370  -3.403  0.00  0.00     0.335 C 
ATOM     17  N   UNL d   1      27.572 -15.291  -3.893  0.00  0.00    -0.338 N 
ATOM     18  O   UNL d   1      25.348 -14.687  -3.833  0.00  0.00    -0.246 OA
ATOM     19  H   UNL d   1      28.302 -15.829  -3.448  0.00  0.00     0.164 HD
ATOM     20  H   UNL d   1      26.818 -16.865  -1.979  0.00  0.00     0.192 HD
BRANCH  17  21
ATOM     21  C   UNL d   1      27.954 -14.362  -4.978  0.00  0.00     0.078 C 
ATOM     22  C   UNL d   1      29.239 -13.575  -4.674  0.00  0.00     0.032 C 
ATOM     23  C   UNL d   1      28.159 -15.103  -6.301  0.00  0.00     0.032 C 
ENDBRANCH  17  21
ENDBRANCH   1  15
TORSDOF 5
ENDMDL
MODEL 7
REMARK VINA RESULT:    -6.945      4.945      7.603
REMARK INTER + INTRA:         -10.130
REMARK INTER:                  -8.436
REMARK INTRA:                  -1.694
REMARK CONF_INDEPENDENT:        1.492
REMARK UNBOUND:                -1.694
REMARK  5 active torsions:
REMARK  status: ('A' for Active; 'I' for Inactive)
REMARK    1  A    between atoms: C_2  and  N_4 
REMARK       I    between atoms: N_4  and  C_5 
REMARK       I    between atoms: C_5  and  N_7 
REMARK    2  A    between atoms: N_7  and  N_8 
REMARK       I    between atoms: N_8  and  C_9 
REMARK    3  A    between atoms: C_9  and  C_11 
REMARK    4  A    between atoms: C_11  and  O_13 
REMARK    5  A    between atoms: O_13  and  C_14 
ROOT
ATOM      1  N   UNL d   1      27.170 -14.912   0.691  0.00  0.00    -0.264 N 
ATOM      2  C   UNL d   1      27.621 -15.069  -0.625  0.00  0.00     0.265 C 
ATOM      3  O   UNL d   1      28.786 -15.405  -0.850  0.00  0.00    -0.269 OA
ATOM      4  H   UNL d   1      26.228 -14.620   0.951  0.00  0.00     0.190 HD
ENDROOT
BRANCH   2   5
ATOM      5  C   UNL d   1      26.563 -14.798  -1.775  0.00  0.00     0.218 C 
ATOM      6  C   UNL d   1      26.961 -15.664  -2.970  0.00  0.00     0.050 C 
BRANCH   5   7
ATOM      7  O   UNL d   1      25.209 -15.053  -1.299  0.00  0.00    -0.337 OA
BRANCH   7   8
ATOM      8  C   UNL d   1      24.807 -16.334  -0.992  0.00  0.00     0.071 C 
ATOM      9  C   UNL d   1      25.642 -17.283  -0.398  0.00  0.00     0.037 C 
ATOM     10  C   UNL d   1      25.209 -18.574  -0.089  0.00  0.00     0.004 C 
ATOM     11  C   UNL d   1      23.876 -18.909  -0.260  0.00  0.00     0.024 C 
ATOM     12  C   UNL d   1      22.996 -17.945  -0.749  0.00  0.00     0.036 C 
ATOM     13 CL   UNL d   1      21.328 -18.354  -0.891  0.00  0.00    -0.084 Cl
ATOM     14  C   UNL d   1      23.451 -16.663  -1.114  0.00  0.00     0.060 C 
ENDBRANCH   7   8
ENDBRANCH   5   7
ENDBRANCH   2   5
BRANCH   1  15
ATOM     15  N   UNL d   1      28.081 -15.061   1.795  0.00  0.00    -0.249 N 
ATOM     16  C   UNL d   1      27.803 -14.406   2.984  0.00  0.00     0.335 C 
ATOM     17  N   UNL d   1      28.735 -14.582   3.990  0.00  0.00    -0.338 N 
ATOM     18  O   UNL d   1      26.799 -13.697   3.103  0.00  0.00    -0.246 OA
ATOM     19  H   UNL d   1      29.496 -15.231   3.848  0.00  0.00     0.164 HD
ATOM     20  H   UNL d   1      28.868 -15.686   1.651  0.00  0.00     0.192 HD
BRANCH  17  21
ATOM     21  C   UNL d   1      28.604 -13.940   5.315  0.00  0.00     0.078 C 
ATOM     22  C   UNL d   1      29.845 -14.129   6.203  0.00  0.00     0.032 C 
ATOM     23  C   UNL d   1      28.344 -12.437   5.185  0.00  0.00     0.032 C 
ENDBRANCH  17  21
ENDBRANCH   1  15
TORSDOF 5
ENDMDL
MODEL 8
REMARK VINA RESULT:    -6.886      5.171      9.725
REMARK INTER + INTRA:          -9.938
REMARK INTER:                  -8.378
REMARK INTRA:                  -1.561
REMARK CONF_INDEPENDENT:        1.492
REMARK UNBOUND:                -1.561
REMARK  5 active torsions:
REMARK  status: ('A' for Active; 'I' for Inactive)
REMARK    1  A    between atoms: C_2  and  N_4 
REMARK       I    between atoms: N_4  and  C_5 
REMARK       I    between atoms: C_5  and  N_7 
REMARK    2  A    between atoms: N_7  and  N_8 
REMARK       I    between atoms: N_8  and  C_9 
REMARK    3  A    between atoms: C_9  and  C_11 
REMARK    4  A    between atoms: C_11  and  O_13 
REMARK    5  A    between atoms: O_13  and  C_14 
ROOT
ATOM      1  N   UNL d   1      27.734 -13.742  -5.267  0.00  0.00    -0.264 N 
ATOM      2  C   UNL d   1      26.730 -14.620  -4.841  0.00  0.00     0.265 C 
ATOM      3  O   UNL d   1      26.391 -15.571  -5.548  0.00  0.00    -0.269 OA
ATOM      4  H   UNL d   1      28.053 -12.927  -4.744  0.00  0.00     0.190 HD
ENDROOT
BRANCH   2   5
ATOM      5  C   UNL d   1      26.079 -14.321  -3.427  0.00  0.00     0.218 C 
ATOM      6  C   UNL d   1      25.608 -12.867  -3.443  0.00  0.00     0.050 C 
BRANCH   5   7
ATOM      7  O   UNL d   1      25.012 -15.273  -3.140  0.00  0.00    -0.337 OA
BRANCH   7   8
ATOM      8  C   UNL d   1      25.164 -16.212  -2.145  0.00  0.00     0.071 C 
ATOM      9  C   UNL d   1      26.370 -16.445  -1.482  0.00  0.00     0.037 C 
ATOM     10  C   UNL d   1      26.497 -17.399  -0.469  0.00  0.00     0.004 C 
ATOM     11  C   UNL d   1      25.373 -18.064  -0.010  0.00  0.00     0.024 C 
ATOM     12  C   UNL d   1      24.135 -17.770  -0.580  0.00  0.00     0.036 C 
ATOM     13 CL   UNL d   1      22.736 -18.554   0.050  0.00  0.00    -0.084 Cl
ATOM     14  C   UNL d   1      24.023 -16.851  -1.640  0.00  0.00     0.060 C 
ENDBRANCH   7   8
ENDBRANCH   5   7
ENDBRANCH   2   5
BRANCH   1  15
ATOM     15  N   UNL d   1      28.327 -13.891  -6.569  0.00  0.00    -0.249 N 
ATOM     16  C   UNL d   1      29.198 -12.913  -7.024  0.00  0.00     0.335 C 
ATOM     17  N   UNL d   1      29.709 -13.117  -8.292  0.00  0.00    -0.338 N 
ATOM     18  O   UNL d   1      29.461 -11.923  -6.336  0.00  0.00    -0.246 OA
ATOM     19  H   UNL d   1      29.506 -13.983  -8.772  0.00  0.00     0.164 HD
ATOM     20  H   UNL d   1      28.103 -14.743  -7.073  0.00  0.00     0.192 HD
BRANCH  17  21
ATOM     21  C   UNL d   1      30.636 -12.163  -8.938  0.00  0.00     0.078 C 
ATOM     22  C   UNL d   1      32.019 -12.769  -9.228  0.00  0.00     0.032 C 
ATOM     23  C   UNL d   1      30.067 -11.637 -10.257  0.00  0.00     0.032 C 
ENDBRANCH  17  21
ENDBRANCH   1  15
TORSDOF 5
ENDMDL
MODEL 9
REMARK VINA RESULT:    -6.816      4.710      9.055
REMARK INTER + INTRA:          -9.843
REMARK INTER:                  -8.308
REMARK INTRA:                  -1.535
REMARK CONF_INDEPENDENT:        1.492
REMARK UNBOUND:                -1.535
REMARK  5 active torsions:
REMARK  status: ('A' for Active; 'I' for Inactive)
REMARK    1  A    between atoms: C_2  and  N_4 
REMARK       I    between atoms: N_4  and  C_5 
REMARK       I    between atoms: C_5  and  N_7 
REMARK    2  A    between atoms: N_7  and  N_8 
REMARK       I    between atoms: N_8  and  C_9 
REMARK    3  A    between atoms: C_9  and  C_11 
REMARK    4  A    between atoms: C_11  and  O_13 
REMARK    5  A    between atoms: O_13  and  C_14 
ROOT
ATOM      1  N   UNL d   1      26.242 -13.264  -4.739  0.00  0.00    -0.264 N 
ATOM      2  C   UNL d   1      25.413 -14.193  -4.099  0.00  0.00     0.265 C 
ATOM      3  O   UNL d   1      24.186 -14.074  -4.150  0.00  0.00    -0.269 OA
ATOM      4  H   UNL d   1      27.261 -13.290  -4.724  0.00  0.00     0.190 HD
ENDROOT
BRANCH   2   5
ATOM      5  C   UNL d   1      26.133 -15.378  -3.331  0.00  0.00     0.218 C 
ATOM      6  C   UNL d   1      27.622 -15.296  -3.666  0.00  0.00     0.050 C 
BRANCH   5   7
ATOM      7  O   UNL d   1      25.855 -15.307  -1.901  0.00  0.00    -0.337 OA
BRANCH   7   8
ATOM      8  C   UNL d   1      25.367 -16.406  -1.230  0.00  0.00     0.071 C 
ATOM      9  C   UNL d   1      26.083 -17.090  -0.246  0.00  0.00     0.037 C 
ATOM     10  C   UNL d   1      25.562 -18.198   0.427  0.00  0.00     0.004 C 
ATOM     11  C   UNL d   1      24.248 -18.575   0.210  0.00  0.00     0.024 C 
ATOM     12  C   UNL d   1      23.474 -17.841  -0.688  0.00  0.00     0.036 C 
ATOM     13 CL   UNL d   1      21.821 -18.279  -0.895  0.00  0.00    -0.084 Cl
ATOM     14  C   UNL d   1      24.023 -16.761  -1.406  0.00  0.00     0.060 C 
ENDBRANCH   7   8
ENDBRANCH   5   7
ENDBRANCH   2   5
BRANCH   1  15
ATOM     15  N   UNL d   1      25.678 -12.114  -5.394  0.00  0.00    -0.249 N 
ATOM     16  C   UNL d   1      26.510 -11.296  -6.143  0.00  0.00     0.335 C 
ATOM     17  N   UNL d   1      25.897 -10.201  -6.724  0.00  0.00    -0.338 N 
ATOM     18  O   UNL d   1      27.716 -11.535  -6.246  0.00  0.00    -0.246 OA
ATOM     19  H   UNL d   1      24.894 -10.104  -6.657  0.00  0.00     0.164 HD
ATOM     20  H   UNL d   1      24.674 -11.990  -5.305  0.00  0.00     0.192 HD
BRANCH  17  21
ATOM     21  C   UNL d   1      26.640  -9.216  -7.539  0.00  0.00     0.078 C 
ATOM     22  C   UNL d   1      26.692  -9.584  -9.031  0.00  0.00     0.032 C 
ATOM     23  C   UNL d   1      26.028  -7.818  -7.420  0.00  0.00     0.032 C 
ENDBRANCH  17  21
ENDBRANCH   1  15
TORSDOF 5
ENDMDL
