MODEL 1
REMARK VINA RESULT:   -18.481      0.000      0.000
REMARK INTER + INTRA:         -23.390
REMARK INTER:                 -22.060
REMARK INTRA:                  -1.330
REMARK CONF_INDEPENDENT:        3.580
REMARK UNBOUND:                -1.330
REMARK  12 active torsions:
REMARK  status: ('A' for Active; 'I' for Inactive)
REMARK    1  A    between atoms: C_2  and  C_3 
REMARK    2  A    between atoms: C_3  and  C_4 
REMARK    3  A    between atoms: C_4  and  C_5 
REMARK    4  A    between atoms: C_5  and  C_6 
REMARK    5  A    between atoms: C_6  and  O_7 
REMARK    6  A    between atoms: O_7  and  C_8 
REMARK    7  A    between atoms: C_13  and  C_14 
REMARK       I    between atoms: C_14  and  N_16 
REMARK    8  A    between atoms: N_16  and  C_17 
REMARK    9  A    between atoms: C_17  and  N_19 
REMARK   10  A    between atoms: N_19  and  N_20 
REMARK       I    between atoms: N_20  and  C_21 
REMARK   11  A    between atoms: C_21  and  C_23 
REMARK   12  A    between atoms: C_23  and  N_24 
ROOT
ATOM      1  C   UNL d   1      26.331 -17.119  -0.245  0.00  0.00     0.193 C 
ATOM      2  S   UNL d   1      27.809 -17.911  -0.318  0.00  0.00    -0.039 SA
ENDROOT
BRANCH   1   3
ATOM      3  N   UNL d   1      26.063 -15.884  -0.983  0.00  0.00    -0.298 N 
ATOM      4  C   UNL d   1      25.788 -15.727  -2.415  0.00  0.00     0.260 C 
ATOM      5  O   UNL d   1      25.357 -16.646  -3.105  0.00  0.00    -0.267 OA
ATOM      6  H   UNL d   1      26.201 -14.995  -0.520  0.00  0.00     0.171 HD
BRANCH   4   7
ATOM      7  C   UNL d   1      25.989 -14.413  -3.192  0.00  0.00     0.065 A 
ATOM      8  C   UNL d   1      25.256 -13.270  -2.742  0.00  0.00     0.020 A 
ATOM      9  C   UNL d   1      25.382 -11.993  -3.326  0.00  0.00     0.001 A 
ATOM     10  C   UNL d   1      26.251 -11.816  -4.388  0.00  0.00     0.003 A 
ATOM     11  C   UNL d   1      26.908 -12.934  -4.911  0.00  0.00     0.038 A 
ATOM     12  C   UNL d   1      26.771 -14.224  -4.332  0.00  0.00     0.084 A 
BRANCH  12  13
ATOM     13  O   UNL d   1      27.556 -15.187  -4.891  0.00  0.00    -0.350 OA
BRANCH  13  14
ATOM     14  C   UNL d   1      28.918 -15.217  -4.467  0.00  0.00     0.175 C 
BRANCH  14  15
ATOM     15  C   UNL d   1      29.558 -16.290  -5.340  0.00  0.00     0.027 C 
BRANCH  15  16
ATOM     16  C   UNL d   1      30.488 -15.669  -6.364  0.00  0.00     0.002 C 
BRANCH  16  17
ATOM     17  C   UNL d   1      30.290 -14.163  -6.421  0.00  0.00    -0.000 C 
BRANCH  17  18
ATOM     18  C   UNL d   1      29.512 -13.790  -7.676  0.00  0.00    -0.005 C 
ATOM     19  C   UNL d   1      29.807 -12.357  -8.078  0.00  0.00     0.005 C 
ENDBRANCH  17  18
ENDBRANCH  16  17
ENDBRANCH  15  16
ENDBRANCH  14  15
ENDBRANCH  13  14
ENDBRANCH  12  13
ENDBRANCH   4   7
ENDBRANCH   1   3
BRANCH   1  20
ATOM     20  N   UNL d   1      25.269 -17.685   0.583  0.00  0.00    -0.273 N 
ATOM     21  H   UNL d   1      25.438 -18.171   1.460  0.00  0.00     0.189 HD
BRANCH  20  22
ATOM     22  N   UNL d   1      23.773 -18.079  -0.108  0.00  0.00    -0.266 N 
ATOM     23  C   UNL d   1      22.782 -17.084  -0.681  0.00  0.00     0.264 C 
ATOM     24  O   UNL d   1      23.064 -15.912  -0.598  0.00  0.00    -0.270 OA
ATOM     25  H   UNL d   1      23.845 -19.032  -0.448  0.00  0.00     0.190 HD
BRANCH  23  26
ATOM     26  C   UNL d   1      21.291 -17.697  -1.539  0.00  0.00     0.379 C 
BRANCH  26  27
ATOM     27  N   UNL d   1      19.905 -18.576  -0.895  0.00  0.00     0.129 NA
ATOM     28  C   UNL d   1      20.189 -19.893  -1.282  0.00  0.00     0.286 C 
ATOM     29  C   UNL d   1      18.884 -20.051  -1.644  0.00  0.00     0.021 C 
ATOM     30  C   UNL d   1      18.403 -20.168  -0.354  0.00  0.00    -0.014 A 
ATOM     31  C   UNL d   1      17.497 -21.277  -0.006  0.00  0.00     0.010 A 
ATOM     32  C   UNL d   1      19.183 -19.015   0.534  0.00  0.00     0.249 A 
ATOM     33  C   UNL d   1      17.031 -21.661   1.212  0.00  0.00     0.000 A 
ATOM     34  C   UNL d   1      17.523 -20.839   2.160  0.00  0.00    -0.001 A 
ATOM     35  C   UNL d   1      18.428 -19.652   1.787  0.00  0.00     0.023 A 
ENDBRANCH  26  27
ENDBRANCH  23  26
ENDBRANCH  20  22
ENDBRANCH   1  20
TORSDOF 12
ENDMDL
MODEL 2
REMARK VINA RESULT:   -18.475      1.407      2.290
REMARK INTER + INTRA:         -23.345
REMARK INTER:                 -22.054
REMARK INTRA:                  -1.291
REMARK CONF_INDEPENDENT:        3.580
REMARK UNBOUND:                -1.291
REMARK  12 active torsions:
REMARK  status: ('A' for Active; 'I' for Inactive)
REMARK    1  A    between atoms: C_2  and  C_3 
REMARK    2  A    between atoms: C_3  and  C_4 
REMARK    3  A    between atoms: C_4  and  C_5 
REMARK    4  A    between atoms: C_5  and  C_6 
REMARK    5  A    between atoms: C_6  and  O_7 
REMARK    6  A    between atoms: O_7  and  C_8 
REMARK    7  A    between atoms: C_13  and  C_14 
REMARK       I    between atoms: C_14  and  N_16 
REMARK    8  A    between atoms: N_16  and  C_17 
REMARK    9  A    between atoms: C_17  and  N_19 
REMARK   10  A    between atoms: N_19  and  N_20 
REMARK       I    between atoms: N_20  and  C_21 
REMARK   11  A    between atoms: C_21  and  C_23 
REMARK   12  A    between atoms: C_23  and  N_24 
ROOT
ATOM      1  C   UNL d   1      26.280 -17.211  -0.272  0.00  0.00     0.193 C 
ATOM      2  S   UNL d   1      27.604 -18.243  -0.244  0.00  0.00    -0.039 SA
ENDROOT
BRANCH   1   3
ATOM      3  N   UNL d   1      26.214 -16.040  -1.146  0.00  0.00    -0.298 N 
ATOM      4  C   UNL d   1      25.686 -15.958  -2.512  0.00  0.00     0.260 C 
ATOM      5  O   UNL d   1      24.874 -16.767  -2.951  0.00  0.00    -0.267 OA
ATOM      6  H   UNL d   1      26.695 -15.193  -0.871  0.00  0.00     0.171 HD
BRANCH   4   7
ATOM      7  C   UNL d   1      26.072 -14.861  -3.521  0.00  0.00     0.065 A 
ATOM      8  C   UNL d   1      25.310 -13.651  -3.492  0.00  0.00     0.020 A 
ATOM      9  C   UNL d   1      25.586 -12.546  -4.323  0.00  0.00     0.001 A 
ATOM     10  C   UNL d   1      26.640 -12.615  -5.217  0.00  0.00     0.003 A 
ATOM     11  C   UNL d   1      27.342 -13.819  -5.335  0.00  0.00     0.038 A 
ATOM     12  C   UNL d   1      27.055 -14.939  -4.509  0.00  0.00     0.084 A 
BRANCH  12  13
ATOM     13  O   UNL d   1      27.894 -15.999  -4.674  0.00  0.00    -0.350 OA
BRANCH  13  14
ATOM     14  C   UNL d   1      29.287 -15.734  -4.514  0.00  0.00     0.175 C 
BRANCH  14  15
ATOM     15  C   UNL d   1      29.594 -16.188  -3.092  0.00  0.00     0.027 C 
BRANCH  15  16
ATOM     16  C   UNL d   1      30.931 -16.898  -3.029  0.00  0.00     0.002 C 
BRANCH  16  17
ATOM     17  C   UNL d   1      30.820 -18.299  -3.610  0.00  0.00    -0.000 C 
BRANCH  17  18
ATOM     18  C   UNL d   1      32.140 -18.698  -4.256  0.00  0.00    -0.005 C 
ATOM     19  C   UNL d   1      33.283 -18.542  -3.270  0.00  0.00     0.005 C 
ENDBRANCH  17  18
ENDBRANCH  16  17
ENDBRANCH  15  16
ENDBRANCH  14  15
ENDBRANCH  13  14
ENDBRANCH  12  13
ENDBRANCH   4   7
ENDBRANCH   1   3
BRANCH   1  20
ATOM     20  N   UNL d   1      25.148 -17.495   0.606  0.00  0.00    -0.273 N 
ATOM     21  H   UNL d   1      25.247 -17.791   1.574  0.00  0.00     0.189 HD
BRANCH  20  22
ATOM     22  N   UNL d   1      23.643 -17.905  -0.055  0.00  0.00    -0.266 N 
ATOM     23  C   UNL d   1      22.718 -16.953  -0.788  0.00  0.00     0.264 C 
ATOM     24  O   UNL d   1      23.063 -15.798  -0.868  0.00  0.00    -0.270 OA
ATOM     25  H   UNL d   1      23.668 -18.901  -0.252  0.00  0.00     0.190 HD
BRANCH  23  26
ATOM     26  C   UNL d   1      21.208 -17.605  -1.582  0.00  0.00     0.379 C 
BRANCH  26  27
ATOM     27  N   UNL d   1      19.906 -18.575  -0.897  0.00  0.00     0.129 NA
ATOM     28  C   UNL d   1      20.145 -19.832  -1.469  0.00  0.00     0.286 C 
ATOM     29  C   UNL d   1      18.808 -19.965  -1.697  0.00  0.00     0.021 C 
ATOM     30  C   UNL d   1      18.478 -20.244  -0.384  0.00  0.00    -0.014 A 
ATOM     31  C   UNL d   1      17.620 -21.399  -0.072  0.00  0.00     0.010 A 
ATOM     32  C   UNL d   1      19.353 -19.194   0.542  0.00  0.00     0.249 A 
ATOM     33  C   UNL d   1      17.296 -21.933   1.135  0.00  0.00     0.000 A 
ATOM     34  C   UNL d   1      17.892 -21.224   2.114  0.00  0.00    -0.001 A 
ATOM     35  C   UNL d   1      18.747 -19.988   1.787  0.00  0.00     0.023 A 
ENDBRANCH  26  27
ENDBRANCH  23  26
ENDBRANCH  20  22
ENDBRANCH   1  20
TORSDOF 12
ENDMDL
MODEL 3
REMARK VINA RESULT:   -18.057      4.016      6.193
REMARK INTER + INTRA:         -23.109
REMARK INTER:                 -21.637
REMARK INTRA:                  -1.473
REMARK CONF_INDEPENDENT:        3.580
REMARK UNBOUND:                -1.473
REMARK  12 active torsions:
REMARK  status: ('A' for Active; 'I' for Inactive)
REMARK    1  A    between atoms: C_2  and  C_3 
REMARK    2  A    between atoms: C_3  and  C_4 
REMARK    3  A    between atoms: C_4  and  C_5 
REMARK    4  A    between atoms: C_5  and  C_6 
REMARK    5  A    between atoms: C_6  and  O_7 
REMARK    6  A    between atoms: O_7  and  C_8 
REMARK    7  A    between atoms: C_13  and  C_14 
REMARK       I    between atoms: C_14  and  N_16 
REMARK    8  A    between atoms: N_16  and  C_17 
REMARK    9  A    between atoms: C_17  and  N_19 
REMARK   10  A    between atoms: N_19  and  N_20 
REMARK       I    between atoms: N_20  and  C_21 
REMARK   11  A    between atoms: C_21  and  C_23 
REMARK   12  A    between atoms: C_23  and  N_24 
ROOT
ATOM      1  C   UNL d   1      26.240 -15.164  -2.090  0.00  0.00     0.193 C 
ATOM      2  S   UNL d   1      25.861 -15.162  -3.726  0.00  0.00    -0.039 SA
ENDROOT
BRANCH   1   3
ATOM      3  N   UNL d   1      27.469 -14.566  -1.567  0.00  0.00    -0.298 N 
ATOM      4  C   UNL d   1      28.811 -15.156  -1.513  0.00  0.00     0.260 C 
ATOM      5  O   UNL d   1      29.156 -16.070  -2.256  0.00  0.00    -0.267 OA
ATOM      6  H   UNL d   1      27.412 -13.697  -1.052  0.00  0.00     0.171 HD
BRANCH   4   7
ATOM      7  C   UNL d   1      29.917 -14.693  -0.548  0.00  0.00     0.065 A 
ATOM      8  C   UNL d   1      31.249 -15.137  -0.819  0.00  0.00     0.020 A 
ATOM      9  C   UNL d   1      32.364 -14.749  -0.050  0.00  0.00     0.001 A 
ATOM     10  C   UNL d   1      32.184 -13.897   1.026  0.00  0.00     0.003 A 
ATOM     11  C   UNL d   1      30.882 -13.522   1.373  0.00  0.00     0.038 A 
ATOM     12  C   UNL d   1      29.755 -13.925   0.607  0.00  0.00     0.084 A 
BRANCH  12  13
ATOM     13  O   UNL d   1      28.569 -13.392   1.013  0.00  0.00    -0.350 OA
BRANCH  13  14
ATOM     14  C   UNL d   1      27.869 -14.109   2.029  0.00  0.00     0.175 C 
BRANCH  14  15
ATOM     15  C   UNL d   1      27.424 -13.031   3.009  0.00  0.00     0.027 C 
BRANCH  15  16
ATOM     16  C   UNL d   1      28.231 -13.097   4.290  0.00  0.00     0.002 C 
BRANCH  16  17
ATOM     17  C   UNL d   1      27.892 -14.357   5.071  0.00  0.00    -0.000 C 
BRANCH  17  18
ATOM     18  C   UNL d   1      28.950 -14.606   6.136  0.00  0.00    -0.005 C 
ATOM     19  C   UNL d   1      28.861 -13.557   7.229  0.00  0.00     0.005 C 
ENDBRANCH  17  18
ENDBRANCH  16  17
ENDBRANCH  15  16
ENDBRANCH  14  15
ENDBRANCH  13  14
ENDBRANCH  12  13
ENDBRANCH   4   7
ENDBRANCH   1   3
BRANCH   1  20
ATOM     20  N   UNL d   1      25.306 -15.781  -1.153  0.00  0.00    -0.273 N 
ATOM     21  H   UNL d   1      25.591 -16.207  -0.273  0.00  0.00     0.189 HD
BRANCH  20  22
ATOM     22  N   UNL d   1      23.803 -16.342  -1.696  0.00  0.00    -0.266 N 
ATOM     23  C   UNL d   1      22.859 -17.227  -0.905  0.00  0.00     0.264 C 
ATOM     24  O   UNL d   1      23.229 -17.599   0.183  0.00  0.00    -0.270 OA
ATOM     25  H   UNL d   1      23.473 -15.680  -2.392  0.00  0.00     0.190 HD
BRANCH  23  26
ATOM     26  C   UNL d   1      21.202 -17.598  -1.579  0.00  0.00     0.379 C 
BRANCH  26  27
ATOM     27  N   UNL d   1      19.903 -18.575  -0.897  0.00  0.00     0.129 NA
ATOM     28  C   UNL d   1      20.154 -19.832  -1.464  0.00  0.00     0.286 C 
ATOM     29  C   UNL d   1      18.820 -19.975  -1.698  0.00  0.00     0.021 C 
ATOM     30  C   UNL d   1      18.484 -20.251  -0.386  0.00  0.00    -0.014 A 
ATOM     31  C   UNL d   1      17.633 -21.412  -0.074  0.00  0.00     0.010 A 
ATOM     32  C   UNL d   1      19.347 -19.192   0.541  0.00  0.00     0.249 A 
ATOM     33  C   UNL d   1      17.306 -21.944   1.133  0.00  0.00     0.000 A 
ATOM     34  C   UNL d   1      17.893 -21.227   2.112  0.00  0.00    -0.001 A 
ATOM     35  C   UNL d   1      18.740 -19.986   1.785  0.00  0.00     0.023 A 
ENDBRANCH  26  27
ENDBRANCH  23  26
ENDBRANCH  20  22
ENDBRANCH   1  20
TORSDOF 12
ENDMDL
MODEL 4
REMARK VINA RESULT:   -17.671      2.488      4.060
REMARK INTER + INTRA:         -22.302
REMARK INTER:                 -21.251
REMARK INTRA:                  -1.051
REMARK CONF_INDEPENDENT:        3.580
REMARK UNBOUND:                -1.051
REMARK  12 active torsions:
REMARK  status: ('A' for Active; 'I' for Inactive)
REMARK    1  A    between atoms: C_2  and  C_3 
REMARK    2  A    between atoms: C_3  and  C_4 
REMARK    3  A    between atoms: C_4  and  C_5 
REMARK    4  A    between atoms: C_5  and  C_6 
REMARK    5  A    between atoms: C_6  and  O_7 
REMARK    6  A    between atoms: O_7  and  C_8 
REMARK    7  A    between atoms: C_13  and  C_14 
REMARK       I    between atoms: C_14  and  N_16 
REMARK    8  A    between atoms: N_16  and  C_17 
REMARK    9  A    between atoms: C_17  and  N_19 
REMARK   10  A    between atoms: N_19  and  N_20 
REMARK       I    between atoms: N_20  and  C_21 
REMARK   11  A    between atoms: C_21  and  C_23 
REMARK   12  A    between atoms: C_23  and  N_24 
ROOT
ATOM      1  C   UNL d   1      26.326 -17.001  -0.371  0.00  0.00     0.193 C 
ATOM      2  S   UNL d   1      26.072 -15.457  -0.979  0.00  0.00    -0.039 SA
ENDROOT
BRANCH   1   3
ATOM      3  N   UNL d   1      27.568 -17.741  -0.595  0.00  0.00    -0.298 N 
ATOM      4  C   UNL d   1      28.930 -17.208  -0.718  0.00  0.00     0.260 C 
ATOM      5  O   UNL d   1      29.251 -16.118  -0.256  0.00  0.00    -0.267 OA
ATOM      6  H   UNL d   1      27.519 -18.724  -0.830  0.00  0.00     0.171 HD
BRANCH   4   7
ATOM      7  C   UNL d   1      30.085 -17.951  -1.412  0.00  0.00     0.065 A 
ATOM      8  C   UNL d   1      30.808 -18.908  -0.633  0.00  0.00     0.020 A 
ATOM      9  C   UNL d   1      31.855 -19.696  -1.154  0.00  0.00     0.001 A 
ATOM     10  C   UNL d   1      32.217 -19.551  -2.481  0.00  0.00     0.003 A 
ATOM     11  C   UNL d   1      31.594 -18.556  -3.242  0.00  0.00     0.038 A 
ATOM     12  C   UNL d   1      30.549 -17.751  -2.714  0.00  0.00     0.084 A 
BRANCH  12  13
ATOM     13  O   UNL d   1      29.975 -16.901  -3.610  0.00  0.00    -0.350 OA
BRANCH  13  14
ATOM     14  C   UNL d   1      29.833 -15.544  -3.193  0.00  0.00     0.175 C 
BRANCH  14  15
ATOM     15  C   UNL d   1      30.176 -14.733  -4.436  0.00  0.00     0.027 C 
BRANCH  15  16
ATOM     16  C   UNL d   1      29.259 -15.094  -5.587  0.00  0.00     0.002 C 
BRANCH  16  17
ATOM     17  C   UNL d   1      28.042 -14.182  -5.608  0.00  0.00    -0.000 C 
BRANCH  17  18
ATOM     18  C   UNL d   1      26.976 -14.721  -4.663  0.00  0.00    -0.005 C 
ATOM     19  C   UNL d   1      26.631 -13.688  -3.607  0.00  0.00     0.005 C 
ENDBRANCH  17  18
ENDBRANCH  16  17
ENDBRANCH  15  16
ENDBRANCH  14  15
ENDBRANCH  13  14
ENDBRANCH  12  13
ENDBRANCH   4   7
ENDBRANCH   1   3
BRANCH   1  20
ATOM     20  N   UNL d   1      25.269 -17.629   0.417  0.00  0.00    -0.273 N 
ATOM     21  H   UNL d   1      25.412 -18.456   0.993  0.00  0.00     0.189 HD
BRANCH  20  22
ATOM     22  N   UNL d   1      23.644 -17.394  -0.001  0.00  0.00    -0.266 N 
ATOM     23  C   UNL d   1      23.018 -17.764  -1.332  0.00  0.00     0.264 C 
ATOM     24  O   UNL d   1      23.748 -18.223  -2.178  0.00  0.00    -0.270 OA
ATOM     25  H   UNL d   1      23.114 -17.381   0.865  0.00  0.00     0.190 HD
BRANCH  23  26
ATOM     26  C   UNL d   1      21.213 -17.594  -1.551  0.00  0.00     0.379 C 
BRANCH  26  27
ATOM     27  N   UNL d   1      19.903 -18.575  -0.895  0.00  0.00     0.129 NA
ATOM     28  C   UNL d   1      20.198 -19.843  -1.418  0.00  0.00     0.286 C 
ATOM     29  C   UNL d   1      18.877 -20.015  -1.701  0.00  0.00     0.021 C 
ATOM     30  C   UNL d   1      18.493 -20.262  -0.397  0.00  0.00    -0.014 A 
ATOM     31  C   UNL d   1      17.649 -21.429  -0.088  0.00  0.00     0.010 A 
ATOM     32  C   UNL d   1      19.300 -19.164   0.536  0.00  0.00     0.249 A 
ATOM     33  C   UNL d   1      17.283 -21.935   1.120  0.00  0.00     0.000 A 
ATOM     34  C   UNL d   1      17.817 -21.182   2.102  0.00  0.00    -0.001 A 
ATOM     35  C   UNL d   1      18.656 -19.936   1.776  0.00  0.00     0.023 A 
ENDBRANCH  26  27
ENDBRANCH  23  26
ENDBRANCH  20  22
ENDBRANCH   1  20
TORSDOF 12
ENDMDL
MODEL 5
REMARK VINA RESULT:   -17.632      2.776      3.688
REMARK INTER + INTRA:         -22.509
REMARK INTER:                 -21.212
REMARK INTRA:                  -1.297
REMARK CONF_INDEPENDENT:        3.580
REMARK UNBOUND:                -1.297
REMARK  12 active torsions:
REMARK  status: ('A' for Active; 'I' for Inactive)
REMARK    1  A    between atoms: C_2  and  C_3 
REMARK    2  A    between atoms: C_3  and  C_4 
REMARK    3  A    between atoms: C_4  and  C_5 
REMARK    4  A    between atoms: C_5  and  C_6 
REMARK    5  A    between atoms: C_6  and  O_7 
REMARK    6  A    between atoms: O_7  and  C_8 
REMARK    7  A    between atoms: C_13  and  C_14 
REMARK       I    between atoms: C_14  and  N_16 
REMARK    8  A    between atoms: N_16  and  C_17 
REMARK    9  A    between atoms: C_17  and  N_19 
REMARK   10  A    between atoms: N_19  and  N_20 
REMARK       I    between atoms: N_20  and  C_21 
REMARK   11  A    between atoms: C_21  and  C_23 
REMARK   12  A    between atoms: C_23  and  N_24 
ROOT
ATOM      1  C   UNL d   1      26.204 -16.945  -0.538  0.00  0.00     0.193 C 
ATOM      2  S   UNL d   1      25.726 -16.453  -2.069  0.00  0.00    -0.039 SA
ENDROOT
BRANCH   1   3
ATOM      3  N   UNL d   1      27.580 -16.802  -0.059  0.00  0.00    -0.298 N 
ATOM      4  C   UNL d   1      28.471 -15.646  -0.199  0.00  0.00     0.260 C 
ATOM      5  O   UNL d   1      28.048 -14.510  -0.388  0.00  0.00    -0.267 OA
ATOM      6  H   UNL d   1      28.061 -17.615   0.303  0.00  0.00     0.171 HD
BRANCH   4   7
ATOM      7  C   UNL d   1      30.006 -15.726  -0.111  0.00  0.00     0.065 A 
ATOM      8  C   UNL d   1      30.658 -14.813   0.776  0.00  0.00     0.020 A 
ATOM      9  C   UNL d   1      32.051 -14.809   0.994  0.00  0.00     0.001 A 
ATOM     10  C   UNL d   1      32.844 -15.726   0.326  0.00  0.00     0.003 A 
ATOM     11  C   UNL d   1      32.248 -16.567  -0.618  0.00  0.00     0.038 A 
ATOM     12  C   UNL d   1      30.846 -16.562  -0.849  0.00  0.00     0.084 A 
BRANCH  12  13
ATOM     13  O   UNL d   1      30.408 -17.511  -1.723  0.00  0.00    -0.350 OA
BRANCH  13  14
ATOM     14  C   UNL d   1      30.528 -17.197  -3.110  0.00  0.00     0.175 C 
BRANCH  14  15
ATOM     15  C   UNL d   1      29.200 -16.537  -3.460  0.00  0.00     0.027 C 
BRANCH  15  16
ATOM     16  C   UNL d   1      29.387 -15.057  -3.731  0.00  0.00     0.002 C 
BRANCH  16  17
ATOM     17  C   UNL d   1      28.069 -14.417  -4.136  0.00  0.00    -0.000 C 
BRANCH  17  18
ATOM     18  C   UNL d   1      27.713 -14.823  -5.560  0.00  0.00    -0.005 C 
ATOM     19  C   UNL d   1      28.842 -14.470  -6.511  0.00  0.00     0.005 C 
ENDBRANCH  17  18
ENDBRANCH  16  17
ENDBRANCH  15  16
ENDBRANCH  14  15
ENDBRANCH  13  14
ENDBRANCH  12  13
ENDBRANCH   4   7
ENDBRANCH   1   3
BRANCH   1  20
ATOM     20  N   UNL d   1      25.210 -17.534   0.354  0.00  0.00    -0.273 N 
ATOM     21  H   UNL d   1      25.446 -18.033   1.210  0.00  0.00     0.189 HD
BRANCH  20  22
ATOM     22  N   UNL d   1      23.672 -17.933  -0.234  0.00  0.00    -0.266 N 
ATOM     23  C   UNL d   1      22.716 -16.971  -0.914  0.00  0.00     0.264 C 
ATOM     24  O   UNL d   1      23.063 -15.817  -1.004  0.00  0.00    -0.270 OA
ATOM     25  H   UNL d   1      23.681 -18.927  -0.439  0.00  0.00     0.190 HD
BRANCH  23  26
ATOM     26  C   UNL d   1      21.166 -17.610  -1.637  0.00  0.00     0.379 C 
BRANCH  26  27
ATOM     27  N   UNL d   1      19.895 -18.582  -0.895  0.00  0.00     0.129 NA
ATOM     28  C   UNL d   1      20.128 -19.845  -1.457  0.00  0.00     0.286 C 
ATOM     29  C   UNL d   1      18.786 -19.993  -1.639  0.00  0.00     0.021 C 
ATOM     30  C   UNL d   1      18.501 -20.256  -0.313  0.00  0.00    -0.014 A 
ATOM     31  C   UNL d   1      17.665 -21.414   0.044  0.00  0.00     0.010 A 
ATOM     32  C   UNL d   1      19.396 -19.184   0.569  0.00  0.00     0.249 A 
ATOM     33  C   UNL d   1      17.386 -21.934   1.269  0.00  0.00     0.000 A 
ATOM     34  C   UNL d   1      18.007 -21.205   2.217  0.00  0.00    -0.001 A 
ATOM     35  C   UNL d   1      18.838 -19.966   1.845  0.00  0.00     0.023 A 
ENDBRANCH  26  27
ENDBRANCH  23  26
ENDBRANCH  20  22
ENDBRANCH   1  20
TORSDOF 12
ENDMDL
MODEL 6
REMARK VINA RESULT:   -17.588      4.727      6.686
REMARK INTER + INTRA:         -22.588
REMARK INTER:                 -21.168
REMARK INTRA:                  -1.421
REMARK CONF_INDEPENDENT:        3.580
REMARK UNBOUND:                -1.421
REMARK  12 active torsions:
REMARK  status: ('A' for Active; 'I' for Inactive)
REMARK    1  A    between atoms: C_2  and  C_3 
REMARK    2  A    between atoms: C_3  and  C_4 
REMARK    3  A    between atoms: C_4  and  C_5 
REMARK    4  A    between atoms: C_5  and  C_6 
REMARK    5  A    between atoms: C_6  and  O_7 
REMARK    6  A    between atoms: O_7  and  C_8 
REMARK    7  A    between atoms: C_13  and  C_14 
REMARK       I    between atoms: C_14  and  N_16 
REMARK    8  A    between atoms: N_16  and  C_17 
REMARK    9  A    between atoms: C_17  and  N_19 
REMARK   10  A    between atoms: N_19  and  N_20 
REMARK       I    between atoms: N_20  and  C_21 
REMARK   11  A    between atoms: C_21  and  C_23 
REMARK   12  A    between atoms: C_23  and  N_24 
ROOT
ATOM      1  C   UNL d   1      25.907 -14.586  -1.434  0.00  0.00     0.193 C 
ATOM      2  S   UNL d   1      25.678 -14.357  -3.081  0.00  0.00    -0.039 SA
ENDROOT
BRANCH   1   3
ATOM      3  N   UNL d   1      26.841 -13.777  -0.649  0.00  0.00    -0.298 N 
ATOM      4  C   UNL d   1      27.257 -13.972   0.744  0.00  0.00     0.260 C 
ATOM      5  O   UNL d   1      27.181 -15.060   1.306  0.00  0.00    -0.267 OA
ATOM      6  H   UNL d   1      27.164 -12.895  -1.026  0.00  0.00     0.171 HD
BRANCH   4   7
ATOM      7  C   UNL d   1      27.840 -12.857   1.632  0.00  0.00     0.065 A 
ATOM      8  C   UNL d   1      28.863 -12.036   1.062  0.00  0.00     0.020 A 
ATOM      9  C   UNL d   1      29.448 -10.949   1.742  0.00  0.00     0.001 A 
ATOM     10  C   UNL d   1      29.027 -10.644   3.025  0.00  0.00     0.003 A 
ATOM     11  C   UNL d   1      28.097 -11.486   3.643  0.00  0.00     0.038 A 
ATOM     12  C   UNL d   1      27.517 -12.591   2.964  0.00  0.00     0.084 A 
BRANCH  12  13
ATOM     13  O   UNL d   1      26.553 -13.250   3.665  0.00  0.00    -0.350 OA
BRANCH  13  14
ATOM     14  C   UNL d   1      27.004 -14.075   4.738  0.00  0.00     0.175 C 
BRANCH  14  15
ATOM     15  C   UNL d   1      28.408 -14.496   4.322  0.00  0.00     0.027 C 
BRANCH  15  16
ATOM     16  C   UNL d   1      29.402 -14.236   5.436  0.00  0.00     0.002 C 
BRANCH  16  17
ATOM     17  C   UNL d   1      28.802 -13.313   6.484  0.00  0.00    -0.000 C 
BRANCH  17  18
ATOM     18  C   UNL d   1      29.864 -12.348   6.993  0.00  0.00    -0.005 C 
ATOM     19  C   UNL d   1      31.129 -13.099   7.366  0.00  0.00     0.005 C 
ENDBRANCH  17  18
ENDBRANCH  16  17
ENDBRANCH  15  16
ENDBRANCH  14  15
ENDBRANCH  13  14
ENDBRANCH  12  13
ENDBRANCH   4   7
ENDBRANCH   1   3
BRANCH   1  20
ATOM     20  N   UNL d   1      25.144 -15.629  -0.756  0.00  0.00    -0.273 N 
ATOM     21  H   UNL d   1      25.563 -16.327  -0.146  0.00  0.00     0.189 HD
BRANCH  20  22
ATOM     22  N   UNL d   1      23.637 -16.109  -1.363  0.00  0.00    -0.266 N 
ATOM     23  C   UNL d   1      22.934 -17.413  -1.037  0.00  0.00     0.264 C 
ATOM     24  O   UNL d   1      23.517 -18.192  -0.320  0.00  0.00    -0.270 OA
ATOM     25  H   UNL d   1      23.129 -15.263  -1.601  0.00  0.00     0.190 HD
BRANCH  23  26
ATOM     26  C   UNL d   1      21.236 -17.694  -1.649  0.00  0.00     0.379 C 
BRANCH  26  27
ATOM     27  N   UNL d   1      19.903 -18.574  -0.903  0.00  0.00     0.129 NA
ATOM     28  C   UNL d   1      20.170 -19.894  -1.294  0.00  0.00     0.286 C 
ATOM     29  C   UNL d   1      18.845 -20.064  -1.564  0.00  0.00     0.021 C 
ATOM     30  C   UNL d   1      18.454 -20.170  -0.243  0.00  0.00    -0.014 A 
ATOM     31  C   UNL d   1      17.582 -21.281   0.178  0.00  0.00     0.010 A 
ATOM     32  C   UNL d   1      19.284 -19.002   0.577  0.00  0.00     0.249 A 
ATOM     33  C   UNL d   1      17.202 -21.654   1.429  0.00  0.00     0.000 A 
ATOM     34  C   UNL d   1      17.752 -20.818   2.333  0.00  0.00    -0.001 A 
ATOM     35  C   UNL d   1      18.620 -19.630   1.886  0.00  0.00     0.023 A 
ENDBRANCH  26  27
ENDBRANCH  23  26
ENDBRANCH  20  22
ENDBRANCH   1  20
TORSDOF 12
ENDMDL
MODEL 7
REMARK VINA RESULT:   -17.488      2.613      4.706
REMARK INTER + INTRA:         -22.603
REMARK INTER:                 -21.068
REMARK INTRA:                  -1.536
REMARK CONF_INDEPENDENT:        3.580
REMARK UNBOUND:                -1.536
REMARK  12 active torsions:
REMARK  status: ('A' for Active; 'I' for Inactive)
REMARK    1  A    between atoms: C_2  and  C_3 
REMARK    2  A    between atoms: C_3  and  C_4 
REMARK    3  A    between atoms: C_4  and  C_5 
REMARK    4  A    between atoms: C_5  and  C_6 
REMARK    5  A    between atoms: C_6  and  O_7 
REMARK    6  A    between atoms: O_7  and  C_8 
REMARK    7  A    between atoms: C_13  and  C_14 
REMARK       I    between atoms: C_14  and  N_16 
REMARK    8  A    between atoms: N_16  and  C_17 
REMARK    9  A    between atoms: C_17  and  N_19 
REMARK   10  A    between atoms: N_19  and  N_20 
REMARK       I    between atoms: N_20  and  C_21 
REMARK   11  A    between atoms: C_21  and  C_23 
REMARK   12  A    between atoms: C_23  and  N_24 
ROOT
ATOM      1  C   UNL d   1      26.206 -15.153  -2.171  0.00  0.00     0.193 C 
ATOM      2  S   UNL d   1      25.398 -13.832  -2.818  0.00  0.00    -0.039 SA
ENDROOT
BRANCH   1   3
ATOM      3  N   UNL d   1      27.638 -15.376  -2.372  0.00  0.00    -0.298 N 
ATOM      4  C   UNL d   1      28.329 -15.765  -3.606  0.00  0.00     0.260 C 
ATOM      5  O   UNL d   1      27.847 -15.569  -4.717  0.00  0.00    -0.267 OA
ATOM      6  H   UNL d   1      28.249 -15.406  -1.565  0.00  0.00     0.171 HD
BRANCH   4   7
ATOM      7  C   UNL d   1      29.715 -16.433  -3.642  0.00  0.00     0.065 A 
ATOM      8  C   UNL d   1      29.999 -17.288  -4.754  0.00  0.00     0.020 A 
ATOM      9  C   UNL d   1      31.243 -17.924  -4.941  0.00  0.00     0.001 A 
ATOM     10  C   UNL d   1      32.253 -17.725  -4.016  0.00  0.00     0.003 A 
ATOM     11  C   UNL d   1      31.975 -16.972  -2.871  0.00  0.00     0.038 A 
ATOM     12  C   UNL d   1      30.716 -16.343  -2.673  0.00  0.00     0.084 A 
BRANCH  12  13
ATOM     13  O   UNL d   1      30.637 -15.561  -1.561  0.00  0.00    -0.350 OA
BRANCH  13  14
ATOM     14  C   UNL d   1      29.825 -16.055  -0.497  0.00  0.00     0.175 C 
BRANCH  14  15
ATOM     15  C   UNL d   1      30.629 -15.747   0.761  0.00  0.00     0.027 C 
BRANCH  15  16
ATOM     16  C   UNL d   1      30.229 -14.406   1.343  0.00  0.00     0.002 C 
BRANCH  16  17
ATOM     17  C   UNL d   1      28.717 -14.308   1.469  0.00  0.00    -0.000 C 
BRANCH  17  18
ATOM     18  C   UNL d   1      28.205 -13.134   0.645  0.00  0.00    -0.005 C 
ATOM     19  C   UNL d   1      26.688 -13.107   0.644  0.00  0.00     0.005 C 
ENDBRANCH  17  18
ENDBRANCH  16  17
ENDBRANCH  15  16
ENDBRANCH  14  15
ENDBRANCH  13  14
ENDBRANCH  12  13
ENDBRANCH   4   7
ENDBRANCH   1   3
BRANCH   1  20
ATOM     20  N   UNL d   1      25.452 -16.116  -1.372  0.00  0.00    -0.273 N 
ATOM     21  H   UNL d   1      25.886 -16.791  -0.747  0.00  0.00     0.189 HD
BRANCH  20  22
ATOM     22  N   UNL d   1      23.887 -16.567  -1.840  0.00  0.00    -0.266 N 
ATOM     23  C   UNL d   1      22.912 -17.357  -0.989  0.00  0.00     0.264 C 
ATOM     24  O   UNL d   1      23.298 -17.733   0.092  0.00  0.00    -0.270 OA
ATOM     25  H   UNL d   1      23.582 -15.897  -2.538  0.00  0.00     0.190 HD
BRANCH  23  26
ATOM     26  C   UNL d   1      21.204 -17.610  -1.586  0.00  0.00     0.379 C 
BRANCH  26  27
ATOM     27  N   UNL d   1      19.904 -18.580  -0.896  0.00  0.00     0.129 NA
ATOM     28  C   UNL d   1      20.125 -19.831  -1.490  0.00  0.00     0.286 C 
ATOM     29  C   UNL d   1      18.784 -19.950  -1.700  0.00  0.00     0.021 C 
ATOM     30  C   UNL d   1      18.470 -20.244  -0.387  0.00  0.00    -0.014 A 
ATOM     31  C   UNL d   1      17.607 -21.398  -0.079  0.00  0.00     0.010 A 
ATOM     32  C   UNL d   1      19.366 -19.215   0.541  0.00  0.00     0.249 A 
ATOM     33  C   UNL d   1      17.296 -21.946   1.125  0.00  0.00     0.000 A 
ATOM     34  C   UNL d   1      17.912 -21.255   2.105  0.00  0.00    -0.001 A 
ATOM     35  C   UNL d   1      18.771 -20.021   1.783  0.00  0.00     0.023 A 
ENDBRANCH  26  27
ENDBRANCH  23  26
ENDBRANCH  20  22
ENDBRANCH   1  20
TORSDOF 12
ENDMDL
MODEL 8
REMARK VINA RESULT:   -17.359      1.994      3.585
REMARK INTER + INTRA:         -22.481
REMARK INTER:                 -20.938
REMARK INTRA:                  -1.543
REMARK CONF_INDEPENDENT:        3.580
REMARK UNBOUND:                -1.543
REMARK  12 active torsions:
REMARK  status: ('A' for Active; 'I' for Inactive)
REMARK    1  A    between atoms: C_2  and  C_3 
REMARK    2  A    between atoms: C_3  and  C_4 
REMARK    3  A    between atoms: C_4  and  C_5 
REMARK    4  A    between atoms: C_5  and  C_6 
REMARK    5  A    between atoms: C_6  and  O_7 
REMARK    6  A    between atoms: O_7  and  C_8 
REMARK    7  A    between atoms: C_13  and  C_14 
REMARK       I    between atoms: C_14  and  N_16 
REMARK    8  A    between atoms: N_16  and  C_17 
REMARK    9  A    between atoms: C_17  and  N_19 
REMARK   10  A    between atoms: N_19  and  N_20 
REMARK       I    between atoms: N_20  and  C_21 
REMARK   11  A    between atoms: C_21  and  C_23 
REMARK   12  A    between atoms: C_23  and  N_24 
ROOT
ATOM      1  C   UNL d   1      26.331 -16.589  -0.582  0.00  0.00     0.193 C 
ATOM      2  S   UNL d   1      26.386 -17.817   0.561  0.00  0.00    -0.039 SA
ENDROOT
BRANCH   1   3
ATOM      3  N   UNL d   1      27.373 -16.409  -1.594  0.00  0.00    -0.298 N 
ATOM      4  C   UNL d   1      28.827 -16.373  -1.399  0.00  0.00     0.260 C 
ATOM      5  O   UNL d   1      29.371 -16.882  -0.425  0.00  0.00    -0.267 OA
ATOM      6  H   UNL d   1      27.106 -16.144  -2.533  0.00  0.00     0.171 HD
BRANCH   4   7
ATOM      7  C   UNL d   1      29.811 -15.720  -2.386  0.00  0.00     0.065 A 
ATOM      8  C   UNL d   1      30.403 -16.567  -3.375  0.00  0.00     0.020 A 
ATOM      9  C   UNL d   1      31.280 -16.094  -4.372  0.00  0.00     0.001 A 
ATOM     10  C   UNL d   1      31.599 -14.748  -4.413  0.00  0.00     0.003 A 
ATOM     11  C   UNL d   1      31.112 -13.913  -3.402  0.00  0.00     0.038 A 
ATOM     12  C   UNL d   1      30.239 -14.391  -2.388  0.00  0.00     0.084 A 
BRANCH  12  13
ATOM     13  O   UNL d   1      29.771 -13.434  -1.540  0.00  0.00    -0.350 OA
BRANCH  13  14
ATOM     14  C   UNL d   1      28.869 -12.480  -2.099  0.00  0.00     0.175 C 
BRANCH  14  15
ATOM     15  C   UNL d   1      27.581 -13.264  -2.315  0.00  0.00     0.027 C 
BRANCH  15  16
ATOM     16  C   UNL d   1      26.596 -12.467  -3.147  0.00  0.00     0.002 C 
BRANCH  16  17
ATOM     17  C   UNL d   1      26.329 -13.163  -4.472  0.00  0.00    -0.000 C 
BRANCH  17  18
ATOM     18  C   UNL d   1      25.414 -14.359  -4.253  0.00  0.00    -0.005 C 
ATOM     19  C   UNL d   1      25.915 -15.561  -5.033  0.00  0.00     0.005 C 
ENDBRANCH  17  18
ENDBRANCH  16  17
ENDBRANCH  15  16
ENDBRANCH  14  15
ENDBRANCH  13  14
ENDBRANCH  12  13
ENDBRANCH   4   7
ENDBRANCH   1   3
BRANCH   1  20
ATOM     20  N   UNL d   1      25.199 -15.667  -0.571  0.00  0.00    -0.273 N 
ATOM     21  H   UNL d   1      25.111 -14.892   0.082  0.00  0.00     0.189 HD
BRANCH  20  22
ATOM     22  N   UNL d   1      23.713 -16.139  -1.233  0.00  0.00    -0.266 N 
ATOM     23  C   UNL d   1      22.918 -17.364  -0.821  0.00  0.00     0.264 C 
ATOM     24  O   UNL d   1      23.406 -18.084   0.017  0.00  0.00    -0.270 OA
ATOM     25  H   UNL d   1      23.271 -15.301  -1.599  0.00  0.00     0.190 HD
BRANCH  23  26
ATOM     26  C   UNL d   1      21.253 -17.629  -1.524  0.00  0.00     0.379 C 
BRANCH  26  27
ATOM     27  N   UNL d   1      19.905 -18.575  -0.895  0.00  0.00     0.129 NA
ATOM     28  C   UNL d   1      20.225 -19.868  -1.336  0.00  0.00     0.286 C 
ATOM     29  C   UNL d   1      18.921 -20.053  -1.685  0.00  0.00     0.021 C 
ATOM     30  C   UNL d   1      18.463 -20.234  -0.394  0.00  0.00    -0.014 A 
ATOM     31  C   UNL d   1      17.598 -21.384  -0.076  0.00  0.00     0.010 A 
ATOM     32  C   UNL d   1      19.220 -19.091   0.526  0.00  0.00     0.249 A 
ATOM     33  C   UNL d   1      17.162 -21.828   1.133  0.00  0.00     0.000 A 
ATOM     34  C   UNL d   1      17.642 -21.027   2.105  0.00  0.00    -0.001 A 
ATOM     35  C   UNL d   1      18.504 -19.799   1.765  0.00  0.00     0.023 A 
ENDBRANCH  26  27
ENDBRANCH  23  26
ENDBRANCH  20  22
ENDBRANCH   1  20
TORSDOF 12
ENDMDL
MODEL 9
REMARK VINA RESULT:   -17.234      2.773      4.136
REMARK INTER + INTRA:         -23.168
REMARK INTER:                 -20.813
REMARK INTRA:                  -2.355
REMARK CONF_INDEPENDENT:        3.580
REMARK UNBOUND:                -2.355
REMARK  12 active torsions:
REMARK  status: ('A' for Active; 'I' for Inactive)
REMARK    1  A    between atoms: C_2  and  C_3 
REMARK    2  A    between atoms: C_3  and  C_4 
REMARK    3  A    between atoms: C_4  and  C_5 
REMARK    4  A    between atoms: C_5  and  C_6 
REMARK    5  A    between atoms: C_6  and  O_7 
REMARK    6  A    between atoms: O_7  and  C_8 
REMARK    7  A    between atoms: C_13  and  C_14 
REMARK       I    between atoms: C_14  and  N_16 
REMARK    8  A    between atoms: N_16  and  C_17 
REMARK    9  A    between atoms: C_17  and  N_19 
REMARK   10  A    between atoms: N_19  and  N_20 
REMARK       I    between atoms: N_20  and  C_21 
REMARK   11  A    between atoms: C_21  and  C_23 
REMARK   12  A    between atoms: C_23  and  N_24 
ROOT
ATOM      1  C   UNL d   1      26.375 -16.047  -0.877  0.00  0.00     0.193 C 
ATOM      2  S   UNL d   1      26.923 -16.575   0.619  0.00  0.00    -0.039 SA
ENDROOT
BRANCH   1   3
ATOM      3  N   UNL d   1      26.548 -14.668  -1.337  0.00  0.00    -0.298 N 
ATOM      4  C   UNL d   1      25.907 -14.009  -2.480  0.00  0.00     0.260 C 
ATOM      5  O   UNL d   1      24.850 -14.407  -2.959  0.00  0.00    -0.267 OA
ATOM      6  H   UNL d   1      27.282 -14.104  -0.930  0.00  0.00     0.171 HD
BRANCH   4   7
ATOM      7  C   UNL d   1      26.471 -12.759  -3.179  0.00  0.00     0.065 A 
ATOM      8  C   UNL d   1      25.667 -12.163  -4.200  0.00  0.00     0.020 A 
ATOM      9  C   UNL d   1      26.035 -10.988  -4.887  0.00  0.00     0.001 A 
ATOM     10  C   UNL d   1      27.231 -10.366  -4.573  0.00  0.00     0.003 A 
ATOM     11  C   UNL d   1      28.083 -10.977  -3.647  0.00  0.00     0.038 A 
ATOM     12  C   UNL d   1      27.719 -12.169  -2.965  0.00  0.00     0.084 A 
BRANCH  12  13
ATOM     13  O   UNL d   1      28.609 -12.581  -2.021  0.00  0.00    -0.350 OA
BRANCH  13  14
ATOM     14  C   UNL d   1      29.410 -11.564  -1.421  0.00  0.00     0.175 C 
BRANCH  14  15
ATOM     15  C   UNL d   1      29.778 -12.134  -0.056  0.00  0.00     0.027 C 
BRANCH  15  16
ATOM     16  C   UNL d   1      29.061 -11.388   1.052  0.00  0.00     0.002 C 
BRANCH  16  17
ATOM     17  C   UNL d   1      27.604 -11.816   1.127  0.00  0.00    -0.000 C 
BRANCH  17  18
ATOM     18  C   UNL d   1      26.869 -10.969   2.157  0.00  0.00    -0.005 C 
ATOM     19  C   UNL d   1      27.482 -11.155   3.533  0.00  0.00     0.005 C 
ENDBRANCH  17  18
ENDBRANCH  16  17
ENDBRANCH  15  16
ENDBRANCH  14  15
ENDBRANCH  13  14
ENDBRANCH  12  13
ENDBRANCH   4   7
ENDBRANCH   1   3
BRANCH   1  20
ATOM     20  N   UNL d   1      25.705 -17.000  -1.758  0.00  0.00    -0.273 N 
ATOM     21  H   UNL d   1      26.172 -17.486  -2.520  0.00  0.00     0.189 HD
BRANCH  20  22
ATOM     22  N   UNL d   1      24.023 -16.942  -1.949  0.00  0.00    -0.266 N 
ATOM     23  C   UNL d   1      23.049 -18.003  -1.474  0.00  0.00     0.264 C 
ATOM     24  O   UNL d   1      23.514 -18.989  -0.955  0.00  0.00    -0.270 OA
ATOM     25  H   UNL d   1      23.767 -15.962  -2.025  0.00  0.00     0.190 HD
BRANCH  23  26
ATOM     26  C   UNL d   1      21.253 -17.697  -1.614  0.00  0.00     0.379 C 
BRANCH  26  27
ATOM     27  N   UNL d   1      19.904 -18.575  -0.895  0.00  0.00     0.129 NA
ATOM     28  C   UNL d   1      20.180 -19.897  -1.274  0.00  0.00     0.286 C 
ATOM     29  C   UNL d   1      18.862 -20.068  -1.574  0.00  0.00     0.021 C 
ATOM     30  C   UNL d   1      18.440 -20.169  -0.262  0.00  0.00    -0.014 A 
ATOM     31  C   UNL d   1      17.560 -21.278   0.143  0.00  0.00     0.010 A 
ATOM     32  C   UNL d   1      19.251 -18.997   0.572  0.00  0.00     0.249 A 
ATOM     33  C   UNL d   1      17.151 -21.646   1.387  0.00  0.00     0.000 A 
ATOM     34  C   UNL d   1      17.680 -20.806   2.299  0.00  0.00    -0.001 A 
ATOM     35  C   UNL d   1      18.558 -19.620   1.868  0.00  0.00     0.023 A 
ENDBRANCH  26  27
ENDBRANCH  23  26
ENDBRANCH  20  22
ENDBRANCH   1  20
TORSDOF 12
ENDMDL
