MODEL 1
REMARK VINA RESULT:    -8.251      0.000      0.000
REMARK INTER + INTRA:         -10.617
REMARK INTER:                  -9.445
REMARK INTRA:                  -1.172
REMARK CONF_INDEPENDENT:        1.193
REMARK UNBOUND:                -1.172
REMARK  4 active torsions:
REMARK  status: ('A' for Active; 'I' for Inactive)
REMARK    1  A    between atoms: C_4  and  C_3 
REMARK    2  A    between atoms: C_4  and  C_12 
REMARK    3  A    between atoms: C_4  and  C_5 
REMARK    4  A    between atoms: C_19  and  O_20 
ROOT
ATOM      1  C   UNL d   1      26.122 -16.013  -2.046  0.00  0.00     0.095 C 
ENDROOT
BRANCH   1   2
ATOM      2  C   UNL d   1      27.473 -16.325  -1.409  0.00  0.00     0.050 A 
ATOM      3  C   UNL d   1      28.743 -16.475  -2.046  0.00  0.00     0.063 A 
ATOM      4  C   UNL d   1      29.104 -16.309  -3.465  0.00  0.00     0.073 C 
ATOM      5  N   UNL d   1      29.703 -16.812  -1.182  0.00  0.00    -0.176 NA
ATOM      6  N   UNL d   1      29.060 -16.807  -0.003  0.00  0.00    -0.243 N 
ATOM      7  C   UNL d   1      27.722 -16.515  -0.049  0.00  0.00     0.270 A 
ATOM      8  H   UNL d   1      29.571 -17.016   0.840  0.00  0.00     0.192 HD
ATOM      9  O   UNL d   1      27.113 -16.499   1.012  0.00  0.00    -0.266 OA
ENDBRANCH   1   2
BRANCH   1  10
ATOM     10  C   UNL d   1      25.114 -16.732  -1.162  0.00  0.00    -0.045 C 
ATOM     11  C   UNL d   1      25.165 -18.024  -0.611  0.00  0.00     0.009 C 
ATOM     12  C   UNL d   1      23.977 -18.689  -0.283  0.00  0.00     0.007 C 
ATOM     13  C   UNL d   1      22.749 -18.054  -0.484  0.00  0.00    -0.062 C 
ATOM     14  C   UNL d   1      21.442 -18.747  -0.317  0.00  0.00     0.048 C 
ATOM     15  C   UNL d   1      22.714 -16.728  -0.896  0.00  0.00     0.007 C 
ATOM     16  C   UNL d   1      23.883 -16.063  -1.168  0.00  0.00     0.009 C 
ENDBRANCH   1  10
BRANCH   1  17
ATOM     17  C   UNL d   1      25.987 -14.609  -2.473  0.00  0.00     0.010 A 
ATOM     18  C   UNL d   1      26.257 -13.537  -1.718  0.00  0.00     0.060 A 
ATOM     19  C   UNL d   1      26.712 -13.513  -0.293  0.00  0.00     0.072 C 
ATOM     20  N   UNL d   1      26.134 -12.370  -2.425  0.00  0.00    -0.157 NA
ATOM     21  N   UNL d   1      25.870 -12.630  -3.634  0.00  0.00    -0.155 NA
ATOM     22  C   UNL d   1      25.709 -14.094  -3.821  0.00  0.00     0.296 A 
BRANCH  22  23
ATOM     23  O   UNL d   1      24.406 -14.450  -4.234  0.00  0.00    -0.369 OA
ATOM     24  H   UNL d   1      24.265 -13.888  -5.015  0.00  0.00     0.212 HD
ENDBRANCH  22  23
ENDBRANCH   1  17
TORSDOF 4
ENDMDL
MODEL 2
REMARK VINA RESULT:    -8.191      2.016      3.014
REMARK INTER + INTRA:         -10.541
REMARK INTER:                  -9.384
REMARK INTRA:                  -1.157
REMARK CONF_INDEPENDENT:        1.193
REMARK UNBOUND:                -1.157
REMARK  4 active torsions:
REMARK  status: ('A' for Active; 'I' for Inactive)
REMARK    1  A    between atoms: C_4  and  C_3 
REMARK    2  A    between atoms: C_4  and  C_12 
REMARK    3  A    between atoms: C_4  and  C_5 
REMARK    4  A    between atoms: C_19  and  O_20 
ROOT
ATOM      1  C   UNL d   1      26.932 -15.366  -2.082  0.00  0.00     0.095 C 
ENDROOT
BRANCH   1   2
ATOM      2  C   UNL d   1      26.960 -13.991  -1.422  0.00  0.00     0.050 A 
ATOM      3  C   UNL d   1      26.920 -12.704  -2.043  0.00  0.00     0.063 A 
ATOM      4  C   UNL d   1      26.778 -12.357  -3.468  0.00  0.00     0.073 C 
ATOM      5  N   UNL d   1      27.029 -11.713  -1.156  0.00  0.00    -0.176 NA
ATOM      6  N   UNL d   1      27.068 -12.364   0.018  0.00  0.00    -0.243 N 
ATOM      7  C   UNL d   1      27.021 -13.731  -0.052  0.00  0.00     0.270 A 
ATOM      8  H   UNL d   1      27.132 -11.837   0.874  0.00  0.00     0.192 HD
ATOM      9  O   UNL d   1      27.050 -14.350   1.004  0.00  0.00    -0.266 OA
ENDBRANCH   1   2
BRANCH   1  10
ATOM     10  C   UNL d   1      25.981 -16.179  -1.218  0.00  0.00    -0.045 C 
ATOM     11  C   UNL d   1      26.232 -17.319  -0.435  0.00  0.00     0.009 C 
ATOM     12  C   UNL d   1      25.190 -18.209  -0.146  0.00  0.00     0.007 C 
ATOM     13  C   UNL d   1      23.902 -17.945  -0.617  0.00  0.00    -0.062 C 
ATOM     14  C   UNL d   1      22.781 -18.916  -0.495  0.00  0.00     0.048 C 
ATOM     15  C   UNL d   1      23.635 -16.748  -1.269  0.00  0.00     0.007 C 
ATOM     16  C   UNL d   1      24.649 -15.855  -1.506  0.00  0.00     0.009 C 
ENDBRANCH   1  10
BRANCH   1  17
ATOM     17  C   UNL d   1      26.862 -15.306  -3.552  0.00  0.00     0.010 A 
ATOM     18  C   UNL d   1      27.912 -15.252  -4.381  0.00  0.00     0.060 A 
ATOM     19  C   UNL d   1      29.362 -15.205  -4.016  0.00  0.00     0.072 C 
ATOM     20  N   UNL d   1      27.530 -15.309  -5.695  0.00  0.00    -0.157 NA
ATOM     21  N   UNL d   1      26.279 -15.477  -5.769  0.00  0.00    -0.155 NA
ATOM     22  C   UNL d   1      25.679 -15.466  -4.411  0.00  0.00     0.296 A 
BRANCH  22  23
ATOM     23  O   UNL d   1      24.777 -14.395  -4.224  0.00  0.00    -0.369 OA
ATOM     24  H   UNL d   1      24.415 -14.257  -5.116  0.00  0.00     0.212 HD
ENDBRANCH  22  23
ENDBRANCH   1  17
TORSDOF 4
ENDMDL
MODEL 3
REMARK VINA RESULT:    -8.044      2.181      3.086
REMARK INTER + INTRA:         -11.356
REMARK INTER:                  -9.237
REMARK INTRA:                  -2.119
REMARK CONF_INDEPENDENT:        1.193
REMARK UNBOUND:                -2.119
REMARK  4 active torsions:
REMARK  status: ('A' for Active; 'I' for Inactive)
REMARK    1  A    between atoms: C_4  and  C_3 
REMARK    2  A    between atoms: C_4  and  C_12 
REMARK    3  A    between atoms: C_4  and  C_5 
REMARK    4  A    between atoms: C_19  and  O_20 
ROOT
ATOM      1  C   UNL d   1      26.774 -15.752  -1.705  0.00  0.00     0.095 C 
ENDROOT
BRANCH   1   2
ATOM      2  C   UNL d   1      26.907 -14.435  -0.947  0.00  0.00     0.050 A 
ATOM      3  C   UNL d   1      27.318 -14.223   0.405  0.00  0.00     0.063 A 
ATOM      4  C   UNL d   1      27.780 -15.200   1.407  0.00  0.00     0.073 C 
ATOM      5  N   UNL d   1      27.255 -12.936   0.755  0.00  0.00    -0.176 NA
ATOM      6  N   UNL d   1      26.876 -12.334  -0.385  0.00  0.00    -0.243 N 
ATOM      7  C   UNL d   1      26.656 -13.159  -1.455  0.00  0.00     0.270 A 
ATOM      8  H   UNL d   1      26.768 -11.332  -0.402  0.00  0.00     0.192 HD
ATOM      9  O   UNL d   1      26.314 -12.636  -2.508  0.00  0.00    -0.266 OA
ENDBRANCH   1   2
BRANCH   1  10
ATOM     10  C   UNL d   1      25.710 -16.522  -0.938  0.00  0.00    -0.045 C 
ATOM     11  C   UNL d   1      25.779 -17.790  -0.335  0.00  0.00     0.009 C 
ATOM     12  C   UNL d   1      24.608 -18.535  -0.145  0.00  0.00     0.007 C 
ATOM     13  C   UNL d   1      23.377 -18.003  -0.533  0.00  0.00    -0.062 C 
ATOM     14  C   UNL d   1      22.114 -18.790  -0.516  0.00  0.00     0.048 C 
ATOM     15  C   UNL d   1      23.303 -16.696  -0.997  0.00  0.00     0.007 C 
ATOM     16  C   UNL d   1      24.446 -15.950  -1.134  0.00  0.00     0.009 C 
ENDBRANCH   1  10
BRANCH   1  17
ATOM     17  C   UNL d   1      26.775 -15.587  -3.169  0.00  0.00     0.010 A 
ATOM     18  C   UNL d   1      27.862 -15.569  -3.950  0.00  0.00     0.060 A 
ATOM     19  C   UNL d   1      29.293 -15.676  -3.527  0.00  0.00     0.072 C 
ATOM     20  N   UNL d   1      27.536 -15.502  -5.279  0.00  0.00    -0.157 NA
ATOM     21  N   UNL d   1      26.280 -15.553  -5.413  0.00  0.00    -0.155 NA
ATOM     22  C   UNL d   1      25.622 -15.581  -4.082  0.00  0.00     0.296 A 
BRANCH  22  23
ATOM     23  O   UNL d   1      24.808 -14.450  -3.853  0.00  0.00    -0.369 OA
ATOM     24  H   UNL d   1      25.438 -13.712  -3.917  0.00  0.00     0.212 HD
ENDBRANCH  22  23
ENDBRANCH   1  17
TORSDOF 4
ENDMDL
MODEL 4
REMARK VINA RESULT:    -7.478      1.053      4.246
REMARK INTER + INTRA:          -9.529
REMARK INTER:                  -8.671
REMARK INTRA:                  -0.858
REMARK CONF_INDEPENDENT:        1.193
REMARK UNBOUND:                -0.858
REMARK  4 active torsions:
REMARK  status: ('A' for Active; 'I' for Inactive)
REMARK    1  A    between atoms: C_4  and  C_3 
REMARK    2  A    between atoms: C_4  and  C_12 
REMARK    3  A    between atoms: C_4  and  C_5 
REMARK    4  A    between atoms: C_19  and  O_20 
ROOT
ATOM      1  C   UNL d   1      26.505 -15.305  -1.558  0.00  0.00     0.095 C 
ENDROOT
BRANCH   1   2
ATOM      2  C   UNL d   1      26.150 -14.070  -2.380  0.00  0.00     0.050 A 
ATOM      3  C   UNL d   1      26.531 -12.711  -2.154  0.00  0.00     0.063 A 
ATOM      4  C   UNL d   1      27.414 -12.147  -1.118  0.00  0.00     0.073 C 
ATOM      5  N   UNL d   1      25.981 -11.880  -3.043  0.00  0.00    -0.176 NA
ATOM      6  N   UNL d   1      25.316 -12.713  -3.860  0.00  0.00    -0.243 N 
ATOM      7  C   UNL d   1      25.374 -14.043  -3.540  0.00  0.00     0.270 A 
ATOM      8  H   UNL d   1      24.814 -12.335  -4.649  0.00  0.00     0.192 HD
ATOM      9  O   UNL d   1      24.780 -14.824  -4.271  0.00  0.00    -0.266 OA
ENDBRANCH   1   2
BRANCH   1  10
ATOM     10  C   UNL d   1      25.228 -16.130  -1.546  0.00  0.00    -0.045 C 
ATOM     11  C   UNL d   1      23.888 -15.711  -1.612  0.00  0.00     0.009 C 
ATOM     12  C   UNL d   1      22.877 -16.520  -1.077  0.00  0.00     0.007 C 
ATOM     13  C   UNL d   1      23.205 -17.751  -0.504  0.00  0.00    -0.062 C 
ATOM     14  C   UNL d   1      22.219 -18.591   0.228  0.00  0.00     0.048 C 
ATOM     15  C   UNL d   1      24.511 -18.219  -0.570  0.00  0.00     0.007 C 
ATOM     16  C   UNL d   1      25.490 -17.445  -1.140  0.00  0.00     0.009 C 
ENDBRANCH   1  10
BRANCH   1  17
ATOM     17  C   UNL d   1      27.836 -15.854  -1.874  0.00  0.00     0.010 A 
ATOM     18  C   UNL d   1      28.366 -15.953  -3.100  0.00  0.00     0.060 A 
ATOM     19  C   UNL d   1      27.736 -15.571  -4.401  0.00  0.00     0.072 C 
ATOM     20  N   UNL d   1      29.657 -16.408  -3.062  0.00  0.00    -0.157 NA
ATOM     21  N   UNL d   1      30.029 -16.541  -1.861  0.00  0.00    -0.155 NA
ATOM     22  C   UNL d   1      28.905 -16.236  -0.940  0.00  0.00     0.296 A 
BRANCH  22  23
ATOM     23  O   UNL d   1      28.517 -17.352  -0.165  0.00  0.00    -0.369 OA
ATOM     24  H   UNL d   1      29.315 -17.539   0.359  0.00  0.00     0.212 HD
ENDBRANCH  22  23
ENDBRANCH   1  17
TORSDOF 4
ENDMDL
MODEL 5
REMARK VINA RESULT:    -7.399      2.353      4.492
REMARK INTER + INTRA:          -9.704
REMARK INTER:                  -8.592
REMARK INTRA:                  -1.113
REMARK CONF_INDEPENDENT:        1.193
REMARK UNBOUND:                -1.113
REMARK  4 active torsions:
REMARK  status: ('A' for Active; 'I' for Inactive)
REMARK    1  A    between atoms: C_4  and  C_3 
REMARK    2  A    between atoms: C_4  and  C_12 
REMARK    3  A    between atoms: C_4  and  C_5 
REMARK    4  A    between atoms: C_19  and  O_20 
ROOT
ATOM      1  C   UNL d   1      25.970 -15.043  -1.713  0.00  0.00     0.095 C 
ENDROOT
BRANCH   1   2
ATOM      2  C   UNL d   1      25.573 -16.367  -1.068  0.00  0.00     0.050 A 
ATOM      3  C   UNL d   1      26.421 -17.415  -0.593  0.00  0.00     0.063 A 
ATOM      4  C   UNL d   1      27.892 -17.476  -0.537  0.00  0.00     0.073 C 
ATOM      5  N   UNL d   1      25.724 -18.462  -0.145  0.00  0.00    -0.176 NA
ATOM      6  N   UNL d   1      24.452 -18.052  -0.272  0.00  0.00    -0.243 N 
ATOM      7  C   UNL d   1      24.273 -16.804  -0.807  0.00  0.00     0.270 A 
ATOM      8  H   UNL d   1      23.704 -18.662   0.019  0.00  0.00     0.192 HD
ATOM      9  O   UNL d   1      23.123 -16.404  -0.930  0.00  0.00    -0.266 OA
ENDBRANCH   1   2
BRANCH   1  10
ATOM     10  C   UNL d   1      26.796 -14.338  -0.648  0.00  0.00    -0.045 C 
ATOM     11  C   UNL d   1      27.025 -14.694   0.692  0.00  0.00     0.009 C 
ATOM     12  C   UNL d   1      27.353 -13.706   1.629  0.00  0.00     0.007 C 
ATOM     13  C   UNL d   1      27.475 -12.376   1.220  0.00  0.00    -0.062 C 
ATOM     14  C   UNL d   1      27.658 -11.249   2.175  0.00  0.00     0.048 C 
ATOM     15  C   UNL d   1      27.385 -12.055  -0.128  0.00  0.00     0.007 C 
ATOM     16  C   UNL d   1      27.114 -13.034  -1.050  0.00  0.00     0.009 C 
ENDBRANCH   1  10
BRANCH   1  17
ATOM     17  C   UNL d   1      26.385 -15.180  -3.120  0.00  0.00     0.010 A 
ATOM     18  C   UNL d   1      27.637 -15.388  -3.546  0.00  0.00     0.060 A 
ATOM     19  C   UNL d   1      28.878 -15.493  -2.717  0.00  0.00     0.072 C 
ATOM     20  N   UNL d   1      27.692 -15.574  -4.901  0.00  0.00    -0.157 NA
ATOM     21  N   UNL d   1      26.521 -15.575  -5.380  0.00  0.00    -0.155 NA
ATOM     22  C   UNL d   1      25.530 -15.291  -4.311  0.00  0.00     0.296 A 
BRANCH  22  23
ATOM     23  O   UNL d   1      24.821 -14.090  -4.532  0.00  0.00    -0.369 OA
ATOM     24  H   UNL d   1      24.041 -14.387  -5.031  0.00  0.00     0.212 HD
ENDBRANCH  22  23
ENDBRANCH   1  17
TORSDOF 4
ENDMDL
MODEL 6
REMARK VINA RESULT:    -7.349      2.123      4.582
REMARK INTER + INTRA:          -9.865
REMARK INTER:                  -8.542
REMARK INTRA:                  -1.322
REMARK CONF_INDEPENDENT:        1.193
REMARK UNBOUND:                -1.322
REMARK  4 active torsions:
REMARK  status: ('A' for Active; 'I' for Inactive)
REMARK    1  A    between atoms: C_4  and  C_3 
REMARK    2  A    between atoms: C_4  and  C_12 
REMARK    3  A    between atoms: C_4  and  C_5 
REMARK    4  A    between atoms: C_19  and  O_20 
ROOT
ATOM      1  C   UNL d   1      26.033 -15.118  -1.757  0.00  0.00     0.095 C 
ENDROOT
BRANCH   1   2
ATOM      2  C   UNL d   1      25.839 -16.472  -1.082  0.00  0.00     0.050 A 
ATOM      3  C   UNL d   1      24.618 -17.107  -0.694  0.00  0.00     0.063 A 
ATOM      4  C   UNL d   1      23.228 -16.662  -0.895  0.00  0.00     0.073 C 
ATOM      5  N   UNL d   1      24.831 -18.266  -0.066  0.00  0.00    -0.176 NA
ATOM      6  N   UNL d   1      26.167 -18.395  -0.119  0.00  0.00    -0.243 N 
ATOM      7  C   UNL d   1      26.846 -17.369  -0.720  0.00  0.00     0.270 A 
ATOM      8  H   UNL d   1      26.600 -19.214   0.277  0.00  0.00     0.192 HD
ATOM      9  O   UNL d   1      28.065 -17.463  -0.786  0.00  0.00    -0.266 OA
ENDBRANCH   1   2
BRANCH   1  10
ATOM     10  C   UNL d   1      26.795 -14.292  -0.732  0.00  0.00    -0.045 C 
ATOM     11  C   UNL d   1      26.934 -14.487   0.653  0.00  0.00     0.009 C 
ATOM     12  C   UNL d   1      27.209 -13.395   1.486  0.00  0.00     0.007 C 
ATOM     13  C   UNL d   1      27.367 -12.123   0.932  0.00  0.00    -0.062 C 
ATOM     14  C   UNL d   1      27.497 -10.891   1.757  0.00  0.00     0.048 C 
ATOM     15  C   UNL d   1      27.367 -11.964  -0.448  0.00  0.00     0.007 C 
ATOM     16  C   UNL d   1      27.148 -13.045  -1.264  0.00  0.00     0.009 C 
ENDBRANCH   1  10
BRANCH   1  17
ATOM     17  C   UNL d   1      26.414 -15.222  -3.177  0.00  0.00     0.010 A 
ATOM     18  C   UNL d   1      27.655 -15.421  -3.637  0.00  0.00     0.060 A 
ATOM     19  C   UNL d   1      28.916 -15.545  -2.842  0.00  0.00     0.072 C 
ATOM     20  N   UNL d   1      27.677 -15.575  -4.998  0.00  0.00    -0.157 NA
ATOM     21  N   UNL d   1      26.495 -15.565  -5.448  0.00  0.00    -0.155 NA
ATOM     22  C   UNL d   1      25.530 -15.306  -4.349  0.00  0.00     0.296 A 
BRANCH  22  23
ATOM     23  O   UNL d   1      24.817 -14.099  -4.524  0.00  0.00    -0.369 OA
ATOM     24  H   UNL d   1      24.400 -14.218  -5.395  0.00  0.00     0.212 HD
ENDBRANCH  22  23
ENDBRANCH   1  17
TORSDOF 4
ENDMDL
MODEL 7
REMARK VINA RESULT:    -7.084      1.636      3.625
REMARK INTER + INTRA:          -9.488
REMARK INTER:                  -8.277
REMARK INTRA:                  -1.211
REMARK CONF_INDEPENDENT:        1.193
REMARK UNBOUND:                -1.211
REMARK  4 active torsions:
REMARK  status: ('A' for Active; 'I' for Inactive)
REMARK    1  A    between atoms: C_4  and  C_3 
REMARK    2  A    between atoms: C_4  and  C_12 
REMARK    3  A    between atoms: C_4  and  C_5 
REMARK    4  A    between atoms: C_19  and  O_20 
ROOT
ATOM      1  C   UNL d   1      26.433 -15.463  -1.549  0.00  0.00     0.095 C 
ENDROOT
BRANCH   1   2
ATOM      2  C   UNL d   1      26.649 -15.288  -3.049  0.00  0.00     0.050 A 
ATOM      3  C   UNL d   1      27.815 -15.581  -3.821  0.00  0.00     0.063 A 
ATOM      4  C   UNL d   1      29.090 -16.187  -3.397  0.00  0.00     0.073 C 
ATOM      5  N   UNL d   1      27.670 -15.239  -5.103  0.00  0.00    -0.176 NA
ATOM      6  N   UNL d   1      26.402 -14.799  -5.154  0.00  0.00    -0.243 N 
ATOM      7  C   UNL d   1      25.716 -14.804  -3.968  0.00  0.00     0.270 A 
ATOM      8  H   UNL d   1      26.021 -14.488  -6.034  0.00  0.00     0.192 HD
ATOM      9  O   UNL d   1      24.557 -14.412  -3.987  0.00  0.00    -0.266 OA
ENDBRANCH   1   2
BRANCH   1  10
ATOM     10  C   UNL d   1      25.568 -16.709  -1.436  0.00  0.00    -0.045 C 
ATOM     11  C   UNL d   1      24.737 -17.315  -2.394  0.00  0.00     0.009 C 
ATOM     12  C   UNL d   1      23.657 -18.104  -1.980  0.00  0.00     0.007 C 
ATOM     13  C   UNL d   1      23.428 -18.306  -0.617  0.00  0.00    -0.062 C 
ATOM     14  C   UNL d   1      22.215 -18.991  -0.094  0.00  0.00     0.048 C 
ATOM     15  C   UNL d   1      24.334 -17.820   0.316  0.00  0.00     0.007 C 
ATOM     16  C   UNL d   1      25.419 -17.089  -0.096  0.00  0.00     0.009 C 
ENDBRANCH   1  10
BRANCH   1  17
ATOM     17  C   UNL d   1      27.651 -15.232  -0.753  0.00  0.00     0.010 A 
ATOM     18  C   UNL d   1      28.295 -14.064  -0.635  0.00  0.00     0.060 A 
ATOM     19  C   UNL d   1      27.956 -12.764  -1.293  0.00  0.00     0.072 C 
ATOM     20  N   UNL d   1      29.334 -14.140   0.254  0.00  0.00    -0.157 NA
ATOM     21  N   UNL d   1      29.357 -15.287   0.786  0.00  0.00    -0.155 NA
ATOM     22  C   UNL d   1      28.305 -16.150   0.192  0.00  0.00     0.296 A 
BRANCH  22  23
ATOM     23  O   UNL d   1      28.838 -17.269  -0.486  0.00  0.00    -0.369 OA
ATOM     24  H   UNL d   1      29.262 -17.774   0.230  0.00  0.00     0.212 HD
ENDBRANCH  22  23
ENDBRANCH   1  17
TORSDOF 4
ENDMDL
MODEL 8
REMARK VINA RESULT:    -6.973      2.520      5.007
REMARK INTER + INTRA:         -10.006
REMARK INTER:                  -8.167
REMARK INTRA:                  -1.839
REMARK CONF_INDEPENDENT:        1.193
REMARK UNBOUND:                -1.839
REMARK  4 active torsions:
REMARK  status: ('A' for Active; 'I' for Inactive)
REMARK    1  A    between atoms: C_4  and  C_3 
REMARK    2  A    between atoms: C_4  and  C_12 
REMARK    3  A    between atoms: C_4  and  C_5 
REMARK    4  A    between atoms: C_19  and  O_20 
ROOT
ATOM      1  C   UNL d   1      25.351 -15.810  -0.857  0.00  0.00     0.095 C 
ENDROOT
BRANCH   1   2
ATOM      2  C   UNL d   1      26.648 -15.653  -0.069  0.00  0.00     0.050 A 
ATOM      3  C   UNL d   1      27.039 -14.586   0.798  0.00  0.00     0.063 A 
ATOM      4  C   UNL d   1      26.280 -13.393   1.214  0.00  0.00     0.073 C 
ATOM      5  N   UNL d   1      28.276 -14.749   1.271  0.00  0.00    -0.176 NA
ATOM      6  N   UNL d   1      28.636 -15.940   0.764  0.00  0.00    -0.243 N 
ATOM      7  C   UNL d   1      27.714 -16.553  -0.042  0.00  0.00     0.270 A 
ATOM      8  H   UNL d   1      29.544 -16.318   0.986  0.00  0.00     0.192 HD
ATOM      9  O   UNL d   1      28.015 -17.642  -0.514  0.00  0.00    -0.266 OA
ENDBRANCH   1   2
BRANCH   1  10
ATOM     10  C   UNL d   1      25.721 -15.408  -2.276  0.00  0.00    -0.045 C 
ATOM     11  C   UNL d   1      26.932 -15.575  -2.969  0.00  0.00     0.009 C 
ATOM     12  C   UNL d   1      27.255 -14.713  -4.025  0.00  0.00     0.007 C 
ATOM     13  C   UNL d   1      26.359 -13.709  -4.399  0.00  0.00    -0.062 C 
ATOM     14  C   UNL d   1      26.694 -12.656  -5.396  0.00  0.00     0.048 C 
ATOM     15  C   UNL d   1      25.107 -13.641  -3.802  0.00  0.00     0.007 C 
ATOM     16  C   UNL d   1      24.774 -14.520  -2.802  0.00  0.00     0.009 C 
ENDBRANCH   1  10
BRANCH   1  17
ATOM     17  C   UNL d   1      24.606 -17.036  -0.517  0.00  0.00     0.010 A 
ATOM     18  C   UNL d   1      23.274 -17.172  -0.550  0.00  0.00     0.060 A 
ATOM     19  C   UNL d   1      22.258 -16.130  -0.896  0.00  0.00     0.072 C 
ATOM     20  N   UNL d   1      22.885 -18.457  -0.280  0.00  0.00    -0.157 NA
ATOM     21  N   UNL d   1      23.905 -19.192  -0.146  0.00  0.00    -0.155 NA
ATOM     22  C   UNL d   1      25.142 -18.378  -0.248  0.00  0.00     0.296 A 
BRANCH  22  23
ATOM     23  O   UNL d   1      25.898 -18.385   0.946  0.00  0.00    -0.369 OA
ATOM     24  H   UNL d   1      26.781 -18.653   0.642  0.00  0.00     0.212 HD
ENDBRANCH  22  23
ENDBRANCH   1  17
TORSDOF 4
ENDMDL
MODEL 9
REMARK VINA RESULT:    -6.873      2.084      4.235
REMARK INTER + INTRA:          -9.715
REMARK INTER:                  -8.066
REMARK INTRA:                  -1.648
REMARK CONF_INDEPENDENT:        1.193
REMARK UNBOUND:                -1.648
REMARK  4 active torsions:
REMARK  status: ('A' for Active; 'I' for Inactive)
REMARK    1  A    between atoms: C_4  and  C_3 
REMARK    2  A    between atoms: C_4  and  C_12 
REMARK    3  A    between atoms: C_4  and  C_5 
REMARK    4  A    between atoms: C_19  and  O_20 
ROOT
ATOM      1  C   UNL d   1      27.412 -15.055  -2.471  0.00  0.00     0.095 C 
ENDROOT
BRANCH   1   2
ATOM      2  C   UNL d   1      26.437 -14.173  -3.245  0.00  0.00     0.050 A 
ATOM      3  C   UNL d   1      26.106 -12.802  -3.020  0.00  0.00     0.063 A 
ATOM      4  C   UNL d   1      26.657 -11.856  -2.033  0.00  0.00     0.073 C 
ATOM      5  N   UNL d   1      25.159 -12.368  -3.855  0.00  0.00    -0.176 NA
ATOM      6  N   UNL d   1      24.944 -13.434  -4.644  0.00  0.00    -0.243 N 
ATOM      7  C   UNL d   1      25.676 -14.554  -4.352  0.00  0.00     0.270 A 
ATOM      8  H   UNL d   1      24.271 -13.369  -5.391  0.00  0.00     0.192 HD
ATOM      9  O   UNL d   1      25.503 -15.539  -5.058  0.00  0.00    -0.266 OA
ENDBRANCH   1   2
BRANCH   1  10
ATOM     10  C   UNL d   1      26.526 -15.875  -1.546  0.00  0.00    -0.045 C 
ATOM     11  C   UNL d   1      26.803 -17.078  -0.873  0.00  0.00     0.009 C 
ATOM     12  C   UNL d   1      25.752 -17.930  -0.510  0.00  0.00     0.007 C 
ATOM     13  C   UNL d   1      24.434 -17.567  -0.798  0.00  0.00    -0.062 C 
ATOM     14  C   UNL d   1      23.280 -18.484  -0.595  0.00  0.00     0.048 C 
ATOM     15  C   UNL d   1      24.162 -16.316  -1.336  0.00  0.00     0.007 C 
ATOM     16  C   UNL d   1      25.191 -15.462  -1.643  0.00  0.00     0.009 C 
ENDBRANCH   1  10
BRANCH   1  17
ATOM     17  C   UNL d   1      28.476 -15.629  -3.315  0.00  0.00     0.010 A 
ATOM     18  C   UNL d   1      29.644 -16.112  -2.873  0.00  0.00     0.060 A 
ATOM     19  C   UNL d   1      30.143 -16.150  -1.463  0.00  0.00     0.072 C 
ATOM     20  N   UNL d   1      30.380 -16.671  -3.884  0.00  0.00    -0.157 NA
ATOM     21  N   UNL d   1      29.717 -16.647  -4.959  0.00  0.00    -0.155 NA
ATOM     22  C   UNL d   1      28.423 -15.949  -4.748  0.00  0.00     0.296 A 
BRANCH  22  23
ATOM     23  O   UNL d   1      28.308 -14.772  -5.520  0.00  0.00    -0.369 OA
ATOM     24  H   UNL d   1      27.395 -14.818  -5.853  0.00  0.00     0.212 HD
ENDBRANCH  22  23
ENDBRANCH   1  17
TORSDOF 4
ENDMDL
