MODEL 1
REMARK VINA RESULT:   -31.668      0.000      0.000
REMARK INTER + INTRA:         -33.750
REMARK INTER:                 -32.861
REMARK INTRA:                  -0.888
REMARK CONF_INDEPENDENT:        1.193
REMARK UNBOUND:                -0.888
REMARK  4 active torsions:
REMARK  status: ('A' for Active; 'I' for Inactive)
REMARK    1  A    between atoms: C_6  and  C_7 
REMARK    2  A    between atoms: C_7  and  C_8 
REMARK       I    between atoms: C_8  and  N_10 
REMARK    3  A    between atoms: N_10  and  C_11 
REMARK    4  A    between atoms: C_15  and  C_16 
ROOT
ATOM      1  C   UNL d   1      25.532 -14.270  -2.357  0.00  0.00     0.235 C 
ATOM      2  O   UNL d   1      26.232 -14.109  -1.355  0.00  0.00    -0.272 OA
ATOM      3  N   UNL d   1      24.452 -15.128  -2.409  0.00  0.00    -0.326 N 
ATOM      4  H   UNL d   1      23.687 -14.896  -3.028  0.00  0.00     0.169 HD
ENDROOT
BRANCH   3   5
ATOM      5  C   UNL d   1      24.311 -16.231  -1.512  0.00  0.00     0.035 A 
ATOM      6  C   UNL d   1      25.423 -16.733  -0.840  0.00  0.00     0.029 A 
ATOM      7  C   UNL d   1      25.299 -17.876  -0.028  0.00  0.00     0.003 A 
ATOM      8  C   UNL d   1      24.057 -18.497   0.172  0.00  0.00     0.014 A 
ATOM      9  C   UNL d   1      22.932 -17.979  -0.452  0.00  0.00    -0.006 A 
ATOM     10  C   UNL d   1      23.076 -16.845  -1.257  0.00  0.00     0.043 A 
BRANCH   9  11
ATOM     11  C   UNL d   1      21.634 -18.638  -0.451  0.00  0.00     0.061 A 
ATOM     12  C   UNL d   1      21.245 -19.775   0.230  0.00  0.00     0.053 A 
ATOM     13  C   UNL d   1      19.949 -20.056  -0.225  0.00  0.00     0.141 A 
ATOM     14  N   UNL d   1      19.530 -19.172  -1.133  0.00  0.00    -0.187 NA
ATOM     15  N   UNL d   1      20.579 -18.334  -1.268  0.00  0.00    -0.278 N 
ATOM     16  H   UNL d   1      20.514 -17.597  -1.961  0.00  0.00     0.189 HD
ENDBRANCH   9  11
ENDBRANCH   3   5
BRANCH   1  17
ATOM     17  C   UNL d   1      26.076 -13.618  -3.614  0.00  0.00     0.068 A 
ATOM     18  C   UNL d   1      26.163 -12.119  -3.180  0.00  0.00     0.026 A 
ATOM     19  C   UNL d   1      25.962 -12.433  -4.581  0.00  0.00     0.026 A 
BRANCH  17  20
ATOM     20  C   UNL d   1      27.064 -14.660  -4.172  0.00  0.00    -0.040 C 
ATOM     21  C   UNL d   1      27.572 -15.583  -3.215  0.00  0.00     0.008 C 
ATOM     22  C   UNL d   1      28.840 -16.134  -3.338  0.00  0.00     0.001 C 
ATOM     23  C   UNL d   1      29.533 -15.967  -4.523  0.00  0.00     0.007 C 
ATOM     24  C   UNL d   1      28.965 -15.228  -5.570  0.00  0.00    -0.061 C 
ATOM     25  C   UNL d   1      29.661 -15.146  -6.890  0.00  0.00     0.048 C 
ATOM     26  C   UNL d   1      27.759 -14.531  -5.374  0.00  0.00     0.015 C 
ENDBRANCH  17  20
ENDBRANCH   1  17
TORSDOF 4
ENDMDL
MODEL 2
REMARK VINA RESULT:   -31.600      1.302      3.221
REMARK INTER + INTRA:         -33.557
REMARK INTER:                 -32.794
REMARK INTRA:                  -0.764
REMARK CONF_INDEPENDENT:        1.193
REMARK UNBOUND:                -0.764
REMARK  4 active torsions:
REMARK  status: ('A' for Active; 'I' for Inactive)
REMARK    1  A    between atoms: C_6  and  C_7 
REMARK    2  A    between atoms: C_7  and  C_8 
REMARK       I    between atoms: C_8  and  N_10 
REMARK    3  A    between atoms: N_10  and  C_11 
REMARK    4  A    between atoms: C_15  and  C_16 
ROOT
ATOM      1  C   UNL d   1      26.045 -14.803  -2.718  0.00  0.00     0.235 C 
ATOM      2  O   UNL d   1      27.002 -14.907  -1.947  0.00  0.00    -0.272 OA
ATOM      3  N   UNL d   1      24.788 -15.307  -2.454  0.00  0.00    -0.326 N 
ATOM      4  H   UNL d   1      23.989 -14.829  -2.850  0.00  0.00     0.169 HD
ENDROOT
BRANCH   3   5
ATOM      5  C   UNL d   1      24.572 -16.369  -1.524  0.00  0.00     0.035 A 
ATOM      6  C   UNL d   1      25.651 -16.946  -0.858  0.00  0.00     0.029 A 
ATOM      7  C   UNL d   1      25.447 -18.052  -0.012  0.00  0.00     0.003 A 
ATOM      8  C   UNL d   1      24.162 -18.560   0.227  0.00  0.00     0.014 A 
ATOM      9  C   UNL d   1      23.072 -17.967  -0.392  0.00  0.00    -0.006 A 
ATOM     10  C   UNL d   1      23.295 -16.871  -1.232  0.00  0.00     0.043 A 
BRANCH   9  11
ATOM     11  C   UNL d   1      21.724 -18.513  -0.352  0.00  0.00     0.061 A 
ATOM     12  C   UNL d   1      21.289 -19.691   0.226  0.00  0.00     0.053 A 
ATOM     13  C   UNL d   1      19.940 -19.809  -0.140  0.00  0.00     0.141 A 
ATOM     14  N   UNL d   1      19.532 -18.789  -0.899  0.00  0.00    -0.187 NA
ATOM     15  N   UNL d   1      20.639 -18.028  -1.030  0.00  0.00    -0.278 N 
ATOM     16  H   UNL d   1      20.586 -17.208  -1.624  0.00  0.00     0.189 HD
ENDBRANCH   9  11
ENDBRANCH   3   5
BRANCH   1  17
ATOM     17  C   UNL d   1      26.403 -14.268  -4.092  0.00  0.00     0.068 A 
ATOM     18  C   UNL d   1      26.025 -15.475  -5.010  0.00  0.00     0.026 A 
ATOM     19  C   UNL d   1      27.075 -14.571  -5.437  0.00  0.00     0.026 A 
BRANCH  17  20
ATOM     20  C   UNL d   1      26.016 -12.779  -4.020  0.00  0.00    -0.040 C 
ATOM     21  C   UNL d   1      25.685 -12.181  -5.268  0.00  0.00     0.008 C 
ATOM     22  C   UNL d   1      25.919 -10.835  -5.514  0.00  0.00     0.001 C 
ATOM     23  C   UNL d   1      26.264 -10.009  -4.460  0.00  0.00     0.007 C 
ATOM     24  C   UNL d   1      26.398 -10.538  -3.169  0.00  0.00    -0.061 C 
ATOM     25  C   UNL d   1      26.655  -9.628  -2.012  0.00  0.00     0.048 C 
ATOM     26  C   UNL d   1      26.328 -11.928  -2.960  0.00  0.00     0.015 C 
ENDBRANCH  17  20
ENDBRANCH   1  17
TORSDOF 4
ENDMDL
MODEL 3
REMARK VINA RESULT:   -31.340      0.445      1.394
REMARK INTER + INTRA:         -33.593
REMARK INTER:                 -32.533
REMARK INTRA:                  -1.060
REMARK CONF_INDEPENDENT:        1.193
REMARK UNBOUND:                -1.060
REMARK  4 active torsions:
REMARK  status: ('A' for Active; 'I' for Inactive)
REMARK    1  A    between atoms: C_6  and  C_7 
REMARK    2  A    between atoms: C_7  and  C_8 
REMARK       I    between atoms: C_8  and  N_10 
REMARK    3  A    between atoms: N_10  and  C_11 
REMARK    4  A    between atoms: C_15  and  C_16 
ROOT
ATOM      1  C   UNL d   1      25.585 -14.193  -2.390  0.00  0.00     0.235 C 
ATOM      2  O   UNL d   1      26.283 -14.048  -1.383  0.00  0.00    -0.272 OA
ATOM      3  N   UNL d   1      24.526 -15.073  -2.468  0.00  0.00    -0.326 N 
ATOM      4  H   UNL d   1      23.755 -14.839  -3.080  0.00  0.00     0.169 HD
ENDROOT
BRANCH   3   5
ATOM      5  C   UNL d   1      24.410 -16.206  -1.607  0.00  0.00     0.035 A 
ATOM      6  C   UNL d   1      25.551 -16.787  -1.058  0.00  0.00     0.029 A 
ATOM      7  C   UNL d   1      25.443 -17.958  -0.284  0.00  0.00     0.003 A 
ATOM      8  C   UNL d   1      24.195 -18.531   0.001  0.00  0.00     0.014 A 
ATOM      9  C   UNL d   1      23.047 -17.937  -0.499  0.00  0.00    -0.006 A 
ATOM     10  C   UNL d   1      23.173 -16.776  -1.268  0.00  0.00     0.043 A 
BRANCH   9  11
ATOM     11  C   UNL d   1      21.723 -18.537  -0.410  0.00  0.00     0.061 A 
ATOM     12  C   UNL d   1      21.347 -19.702   0.232  0.00  0.00     0.053 A 
ATOM     13  C   UNL d   1      20.000 -19.894  -0.106  0.00  0.00     0.141 A 
ATOM     14  N   UNL d   1      19.538 -18.931  -0.907  0.00  0.00    -0.187 NA
ATOM     15  N   UNL d   1      20.609 -18.132  -1.093  0.00  0.00    -0.278 N 
ATOM     16  H   UNL d   1      20.513 -17.345  -1.726  0.00  0.00     0.189 HD
ENDBRANCH   9  11
ENDBRANCH   3   5
BRANCH   1  17
ATOM     17  C   UNL d   1      26.113 -13.489  -3.625  0.00  0.00     0.068 A 
ATOM     18  C   UNL d   1      25.671 -12.013  -3.361  0.00  0.00     0.026 A 
ATOM     19  C   UNL d   1      25.814 -12.468  -4.730  0.00  0.00     0.026 A 
BRANCH  17  20
ATOM     20  C   UNL d   1      27.448 -14.201  -3.913  0.00  0.00    -0.040 C 
ATOM     21  C   UNL d   1      27.875 -14.157  -5.270  0.00  0.00     0.008 C 
ATOM     22  C   UNL d   1      28.629 -15.180  -5.829  0.00  0.00     0.001 C 
ATOM     23  C   UNL d   1      29.170 -16.145  -5.001  0.00  0.00     0.007 C 
ATOM     24  C   UNL d   1      28.934 -16.097  -3.620  0.00  0.00    -0.061 C 
ATOM     25  C   UNL d   1      29.614 -17.071  -2.712  0.00  0.00     0.048 C 
ATOM     26  C   UNL d   1      28.031 -15.160  -3.086  0.00  0.00     0.015 C 
ENDBRANCH  17  20
ENDBRANCH   1  17
TORSDOF 4
ENDMDL
MODEL 4
REMARK VINA RESULT:   -31.049      1.149      2.178
REMARK INTER + INTRA:         -33.444
REMARK INTER:                 -32.242
REMARK INTRA:                  -1.202
REMARK CONF_INDEPENDENT:        1.193
REMARK UNBOUND:                -1.202
REMARK  4 active torsions:
REMARK  status: ('A' for Active; 'I' for Inactive)
REMARK    1  A    between atoms: C_6  and  C_7 
REMARK    2  A    between atoms: C_7  and  C_8 
REMARK       I    between atoms: C_8  and  N_10 
REMARK    3  A    between atoms: N_10  and  C_11 
REMARK    4  A    between atoms: C_15  and  C_16 
ROOT
ATOM      1  C   UNL d   1      26.169 -15.221  -3.207  0.00  0.00     0.235 C 
ATOM      2  O   UNL d   1      26.250 -14.394  -2.295  0.00  0.00    -0.272 OA
ATOM      3  N   UNL d   1      25.394 -16.361  -3.142  0.00  0.00    -0.326 N 
ATOM      4  H   UNL d   1      25.012 -16.728  -4.004  0.00  0.00     0.169 HD
ENDROOT
BRANCH   3   5
ATOM      5  C   UNL d   1      24.990 -16.939  -1.900  0.00  0.00     0.035 A 
ATOM      6  C   UNL d   1      25.930 -17.181  -0.902  0.00  0.00     0.029 A 
ATOM      7  C   UNL d   1      25.547 -17.834   0.285  0.00  0.00     0.003 A 
ATOM      8  C   UNL d   1      24.213 -18.201   0.517  0.00  0.00     0.014 A 
ATOM      9  C   UNL d   1      23.257 -17.923  -0.448  0.00  0.00    -0.006 A 
ATOM     10  C   UNL d   1      23.657 -17.277  -1.622  0.00  0.00     0.043 A 
BRANCH   9  11
ATOM     11  C   UNL d   1      21.885 -18.408  -0.388  0.00  0.00     0.061 A 
ATOM     12  C   UNL d   1      21.407 -19.572   0.184  0.00  0.00     0.053 A 
ATOM     13  C   UNL d   1      20.048 -19.622  -0.157  0.00  0.00     0.141 A 
ATOM     14  N   UNL d   1      19.674 -18.575  -0.895  0.00  0.00    -0.187 NA
ATOM     15  N   UNL d   1      20.811 -17.864  -1.039  0.00  0.00    -0.278 N 
ATOM     16  H   UNL d   1      20.785 -17.035  -1.622  0.00  0.00     0.189 HD
ENDBRANCH   9  11
ENDBRANCH   3   5
BRANCH   1  17
ATOM     17  C   UNL d   1      27.162 -15.010  -4.334  0.00  0.00     0.068 A 
ATOM     18  C   UNL d   1      26.709 -13.625  -4.899  0.00  0.00     0.026 A 
ATOM     19  C   UNL d   1      27.355 -14.569  -5.789  0.00  0.00     0.026 A 
BRANCH  17  20
ATOM     20  C   UNL d   1      28.475 -15.595  -3.782  0.00  0.00    -0.040 C 
ATOM     21  C   UNL d   1      29.446 -15.932  -4.766  0.00  0.00     0.008 C 
ATOM     22  C   UNL d   1      30.346 -16.972  -4.575  0.00  0.00     0.001 C 
ATOM     23  C   UNL d   1      30.457 -17.541  -3.320  0.00  0.00     0.007 C 
ATOM     24  C   UNL d   1      29.650 -17.085  -2.268  0.00  0.00    -0.061 C 
ATOM     25  C   UNL d   1      29.852 -17.618  -0.887  0.00  0.00     0.048 C 
ATOM     26  C   UNL d   1      28.625 -16.153  -2.513  0.00  0.00     0.015 C 
ENDBRANCH  17  20
ENDBRANCH   1  17
TORSDOF 4
ENDMDL
MODEL 5
REMARK VINA RESULT:   -30.543      1.709      2.776
REMARK INTER + INTRA:         -32.962
REMARK INTER:                 -31.736
REMARK INTRA:                  -1.226
REMARK CONF_INDEPENDENT:        1.193
REMARK UNBOUND:                -1.226
REMARK  4 active torsions:
REMARK  status: ('A' for Active; 'I' for Inactive)
REMARK    1  A    between atoms: C_6  and  C_7 
REMARK    2  A    between atoms: C_7  and  C_8 
REMARK       I    between atoms: C_8  and  N_10 
REMARK    3  A    between atoms: N_10  and  C_11 
REMARK    4  A    between atoms: C_15  and  C_16 
ROOT
ATOM      1  C   UNL d   1      25.168 -14.954  -2.970  0.00  0.00     0.235 C 
ATOM      2  O   UNL d   1      24.195 -14.404  -2.447  0.00  0.00    -0.272 OA
ATOM      3  N   UNL d   1      25.504 -16.276  -2.765  0.00  0.00    -0.326 N 
ATOM      4  H   UNL d   1      25.974 -16.770  -3.512  0.00  0.00     0.169 HD
ENDROOT
BRANCH   3   5
ATOM      5  C   UNL d   1      25.071 -17.003  -1.615  0.00  0.00     0.035 A 
ATOM      6  C   UNL d   1      25.999 -17.429  -0.667  0.00  0.00     0.029 A 
ATOM      7  C   UNL d   1      25.584 -18.224   0.418  0.00  0.00     0.003 A 
ATOM      8  C   UNL d   1      24.234 -18.555   0.605  0.00  0.00     0.014 A 
ATOM      9  C   UNL d   1      23.292 -18.098  -0.304  0.00  0.00    -0.006 A 
ATOM     10  C   UNL d   1      23.723 -17.313  -1.378  0.00  0.00     0.043 A 
BRANCH   9  11
ATOM     11  C   UNL d   1      21.899 -18.519  -0.303  0.00  0.00     0.061 A 
ATOM     12  C   UNL d   1      21.346 -19.668   0.230  0.00  0.00     0.053 A 
ATOM     13  C   UNL d   1      20.000 -19.650  -0.162  0.00  0.00     0.141 A 
ATOM     14  N   UNL d   1      19.702 -18.575  -0.895  0.00  0.00    -0.187 NA
ATOM     15  N   UNL d   1      20.876 -17.916  -0.984  0.00  0.00    -0.278 N 
ATOM     16  H   UNL d   1      20.911 -17.078  -1.554  0.00  0.00     0.189 HD
ENDBRANCH   9  11
ENDBRANCH   3   5
BRANCH   1  17
ATOM     17  C   UNL d   1      26.111 -14.007  -3.689  0.00  0.00     0.068 A 
ATOM     18  C   UNL d   1      25.131 -13.249  -4.642  0.00  0.00     0.026 A 
ATOM     19  C   UNL d   1      26.516 -13.403  -5.039  0.00  0.00     0.026 A 
BRANCH  17  20
ATOM     20  C   UNL d   1      27.123 -13.599  -2.603  0.00  0.00    -0.040 C 
ATOM     21  C   UNL d   1      28.169 -14.534  -2.370  0.00  0.00     0.008 C 
ATOM     22  C   UNL d   1      28.756 -14.673  -1.120  0.00  0.00     0.001 C 
ATOM     23  C   UNL d   1      28.486 -13.732  -0.143  0.00  0.00     0.007 C 
ATOM     24  C   UNL d   1      27.609 -12.672  -0.413  0.00  0.00    -0.061 C 
ATOM     25  C   UNL d   1      27.408 -11.593   0.601  0.00  0.00     0.048 C 
ATOM     26  C   UNL d   1      26.888 -12.637  -1.620  0.00  0.00     0.015 C 
ENDBRANCH  17  20
ENDBRANCH   1  17
TORSDOF 4
ENDMDL
MODEL 6
REMARK VINA RESULT:   -29.053      3.972      5.521
REMARK INTER + INTRA:         -31.188
REMARK INTER:                 -30.247
REMARK INTRA:                  -0.942
REMARK CONF_INDEPENDENT:        1.193
REMARK UNBOUND:                -0.942
REMARK  4 active torsions:
REMARK  status: ('A' for Active; 'I' for Inactive)
REMARK    1  A    between atoms: C_6  and  C_7 
REMARK    2  A    between atoms: C_7  and  C_8 
REMARK       I    between atoms: C_8  and  N_10 
REMARK    3  A    between atoms: N_10  and  C_11 
REMARK    4  A    between atoms: C_15  and  C_16 
ROOT
ATOM      1  C   UNL d   1      26.965 -14.810   0.585  0.00  0.00     0.235 C 
ATOM      2  O   UNL d   1      27.809 -15.680   0.354  0.00  0.00    -0.272 OA
ATOM      3  N   UNL d   1      25.612 -14.981   0.380  0.00  0.00    -0.326 N 
ATOM      4  H   UNL d   1      24.970 -14.474   0.976  0.00  0.00     0.169 HD
ENDROOT
BRANCH   3   5
ATOM      5  C   UNL d   1      25.095 -15.957  -0.525  0.00  0.00     0.035 A 
ATOM      6  C   UNL d   1      25.722 -16.178  -1.749  0.00  0.00     0.029 A 
ATOM      7  C   UNL d   1      25.160 -17.074  -2.678  0.00  0.00     0.003 A 
ATOM      8  C   UNL d   1      24.000 -17.803  -2.378  0.00  0.00     0.014 A 
ATOM      9  C   UNL d   1      23.391 -17.629  -1.144  0.00  0.00    -0.006 A 
ATOM     10  C   UNL d   1      23.962 -16.733  -0.235  0.00  0.00     0.043 A 
BRANCH   9  11
ATOM     11  C   UNL d   1      22.098 -18.201  -0.794  0.00  0.00     0.061 A 
ATOM     12  C   UNL d   1      21.830 -19.310  -0.015  0.00  0.00     0.053 A 
ATOM     13  C   UNL d   1      20.445 -19.506  -0.112  0.00  0.00     0.141 A 
ATOM     14  N   UNL d   1      19.860 -18.597  -0.895  0.00  0.00    -0.187 NA
ATOM     15  N   UNL d   1      20.888 -17.830  -1.314  0.00  0.00    -0.278 N 
ATOM     16  H   UNL d   1      20.691 -17.090  -1.979  0.00  0.00     0.189 HD
ENDBRANCH   9  11
ENDBRANCH   3   5
BRANCH   1  17
ATOM     17  C   UNL d   1      27.544 -13.446   0.908  0.00  0.00     0.068 A 
ATOM     18  C   UNL d   1      27.044 -12.595  -0.305  0.00  0.00     0.026 A 
ATOM     19  C   UNL d   1      28.275 -12.215   0.358  0.00  0.00     0.026 A 
BRANCH  17  20
ATOM     20  C   UNL d   1      27.427 -13.348   2.440  0.00  0.00    -0.040 C 
ATOM     21  C   UNL d   1      27.334 -12.025   2.956  0.00  0.00     0.008 C 
ATOM     22  C   UNL d   1      27.831 -11.696   4.209  0.00  0.00     0.001 C 
ATOM     23  C   UNL d   1      28.214 -12.711   5.067  0.00  0.00     0.007 C 
ATOM     24  C   UNL d   1      28.122 -14.048   4.658  0.00  0.00    -0.061 C 
ATOM     25  C   UNL d   1      28.423 -15.147   5.624  0.00  0.00     0.048 C 
ATOM     26  C   UNL d   1      27.781 -14.362   3.330  0.00  0.00     0.015 C 
ENDBRANCH  17  20
ENDBRANCH   1  17
TORSDOF 4
ENDMDL
MODEL 7
REMARK VINA RESULT:   -28.669      1.531      3.448
REMARK INTER + INTRA:         -30.582
REMARK INTER:                 -29.862
REMARK INTRA:                  -0.720
REMARK CONF_INDEPENDENT:        1.193
REMARK UNBOUND:                -0.720
REMARK  4 active torsions:
REMARK  status: ('A' for Active; 'I' for Inactive)
REMARK    1  A    between atoms: C_6  and  C_7 
REMARK    2  A    between atoms: C_7  and  C_8 
REMARK       I    between atoms: C_8  and  N_10 
REMARK    3  A    between atoms: N_10  and  C_11 
REMARK    4  A    between atoms: C_15  and  C_16 
ROOT
ATOM      1  C   UNL d   1      26.247 -14.431  -1.345  0.00  0.00     0.235 C 
ATOM      2  O   UNL d   1      26.138 -14.066  -0.171  0.00  0.00    -0.272 OA
ATOM      3  N   UNL d   1      25.622 -15.547  -1.862  0.00  0.00    -0.326 N 
ATOM      4  H   UNL d   1      25.369 -15.541  -2.842  0.00  0.00     0.169 HD
ENDROOT
BRANCH   3   5
ATOM      5  C   UNL d   1      25.183 -16.626  -1.037  0.00  0.00     0.035 A 
ATOM      6  C   UNL d   1      26.097 -17.321  -0.248  0.00  0.00     0.029 A 
ATOM      7  C   UNL d   1      25.679 -18.442   0.493  0.00  0.00     0.003 A 
ATOM      8  C   UNL d   1      24.337 -18.850   0.505  0.00  0.00     0.014 A 
ATOM      9  C   UNL d   1      23.406 -18.139  -0.237  0.00  0.00    -0.006 A 
ATOM     10  C   UNL d   1      23.840 -17.030  -0.970  0.00  0.00     0.043 A 
BRANCH   9  11
ATOM     11  C   UNL d   1      22.030 -18.571  -0.432  0.00  0.00     0.061 A 
ATOM     12  C   UNL d   1      21.452 -19.781  -0.101  0.00  0.00     0.053 A 
ATOM     13  C   UNL d   1      20.153 -19.729  -0.626  0.00  0.00     0.141 A 
ATOM     14  N   UNL d   1      19.908 -18.576  -1.253  0.00  0.00    -0.187 NA
ATOM     15  N   UNL d   1      21.070 -17.900  -1.140  0.00  0.00    -0.278 N 
ATOM     16  H   UNL d   1      21.144 -16.998  -1.598  0.00  0.00     0.189 HD
ENDBRANCH   9  11
ENDBRANCH   3   5
BRANCH   1  17
ATOM     17  C   UNL d   1      27.304 -13.686  -2.137  0.00  0.00     0.068 A 
ATOM     18  C   UNL d   1      27.886 -14.824  -3.037  0.00  0.00     0.026 A 
ATOM     19  C   UNL d   1      28.740 -13.710  -2.675  0.00  0.00     0.026 A 
BRANCH  17  20
ATOM     20  C   UNL d   1      26.672 -12.304  -2.386  0.00  0.00    -0.040 C 
ATOM     21  C   UNL d   1      25.774 -12.240  -3.488  0.00  0.00     0.008 C 
ATOM     22  C   UNL d   1      25.610 -11.077  -4.227  0.00  0.00     0.001 C 
ATOM     23  C   UNL d   1      26.150  -9.896  -3.750  0.00  0.00     0.007 C 
ATOM     24  C   UNL d   1      26.872  -9.890  -2.548  0.00  0.00    -0.061 C 
ATOM     25  C   UNL d   1      27.353  -8.598  -1.973  0.00  0.00     0.048 C 
ATOM     26  C   UNL d   1      27.178 -11.099  -1.898  0.00  0.00     0.015 C 
ENDBRANCH  17  20
ENDBRANCH   1  17
TORSDOF 4
ENDMDL
