MODEL 1
REMARK VINA RESULT:    -8.363      0.000      0.000
REMARK INTER + INTRA:         -10.381
REMARK INTER:                  -9.258
REMARK INTRA:                  -1.124
REMARK CONF_INDEPENDENT:        0.895
REMARK UNBOUND:                -1.124
REMARK  3 active torsions:
REMARK  status: ('A' for Active; 'I' for Inactive)
REMARK    1  A    between atoms: C_5  and  N_6 
REMARK       I    between atoms: N_6  and  C_7 
REMARK    2  A    between atoms: C_7  and  C_9 
REMARK    3  A    between atoms: C_17  and  O_18 
ROOT
ATOM      1  N   UNL d   1      22.160 -18.180   0.316  0.00  0.00    -0.321 N 
ATOM      2  C   UNL d   1      23.154 -18.406  -0.637  0.00  0.00     0.256 C 
ATOM      3  O   UNL d   1      23.232 -19.352  -1.419  0.00  0.00    -0.267 OA
ATOM      4  H   UNL d   1      22.224 -17.327   0.851  0.00  0.00     0.169 HD
ENDROOT
BRANCH   1   5
ATOM      5  C   UNL d   1      21.038 -19.041   0.552  0.00  0.00     0.068 A 
ATOM      6  C   UNL d   1      20.607 -19.325   1.857  0.00  0.00     0.033 A 
ATOM      7  C   UNL d   1      19.503 -20.141   2.127  0.00  0.00     0.009 A 
ATOM      8  C   UNL d   1      18.774 -20.702   1.088  0.00  0.00    -0.059 A 
ATOM      9  C   UNL d   1      17.572 -21.554   1.355  0.00  0.00     0.048 C 
ATOM     10  C   UNL d   1      19.188 -20.450  -0.224  0.00  0.00     0.045 A 
ATOM     11  C   UNL d   1      20.305 -19.639  -0.491  0.00  0.00     0.092 A 
BRANCH  11  12
ATOM     12  O   UNL d   1      20.580 -19.501  -1.825  0.00  0.00    -0.358 OA
ATOM     13  H   UNL d   1      21.222 -18.795  -1.963  0.00  0.00     0.217 HD
ENDBRANCH  11  12
ENDBRANCH   1   5
BRANCH   2  14
ATOM     14  C   UNL d   1      24.234 -17.398  -0.774  0.00  0.00     0.033 A 
ATOM     15  C   UNL d   1      24.012 -16.317  -1.645  0.00  0.00     0.020 A 
ATOM     16  C   UNL d   1      25.010 -15.367  -1.862  0.00  0.00     0.044 A 
ATOM     17  C   UNL d   1      26.240 -15.518  -1.233  0.00  0.00     0.122 A 
ATOM     18  F   UNL d   1      27.188 -14.596  -1.451  0.00  0.00    -0.206 F 
ATOM     19  C   UNL d   1      26.498 -16.609  -0.396  0.00  0.00    -0.022 A 
ATOM     20  C   UNL d   1      27.845 -16.776   0.238  0.00  0.00     0.051 C 
ATOM     21  C   UNL d   1      25.485 -17.559  -0.169  0.00  0.00     0.027 A 
ENDBRANCH   2  14
TORSDOF 3
ENDMDL
MODEL 2
REMARK VINA RESULT:    -7.868      3.054      7.368
REMARK INTER + INTRA:          -9.365
REMARK INTER:                  -8.763
REMARK INTRA:                  -0.602
REMARK CONF_INDEPENDENT:        0.895
REMARK UNBOUND:                -0.602
REMARK  3 active torsions:
REMARK  status: ('A' for Active; 'I' for Inactive)
REMARK    1  A    between atoms: C_5  and  N_6 
REMARK       I    between atoms: N_6  and  C_7 
REMARK    2  A    between atoms: C_7  and  C_9 
REMARK    3  A    between atoms: C_17  and  O_18 
ROOT
ATOM      1  N   UNL d   1      23.074 -18.469  -0.044  0.00  0.00    -0.321 N 
ATOM      2  C   UNL d   1      21.742 -18.279  -0.417  0.00  0.00     0.256 C 
ATOM      3  O   UNL d   1      21.307 -17.457  -1.223  0.00  0.00    -0.267 OA
ATOM      4  H   UNL d   1      23.265 -19.219   0.602  0.00  0.00     0.169 HD
ENDROOT
BRANCH   1   5
ATOM      5  C   UNL d   1      24.184 -17.714  -0.548  0.00  0.00     0.068 A 
ATOM      6  C   UNL d   1      24.034 -16.853  -1.645  0.00  0.00     0.033 A 
ATOM      7  C   UNL d   1      25.086 -16.082  -2.149  0.00  0.00     0.009 A 
ATOM      8  C   UNL d   1      26.342 -16.138  -1.561  0.00  0.00    -0.059 A 
ATOM      9  C   UNL d   1      27.475 -15.299  -2.068  0.00  0.00     0.048 C 
ATOM     10  C   UNL d   1      26.527 -16.999  -0.476  0.00  0.00     0.045 A 
ATOM     11  C   UNL d   1      25.470 -17.781   0.022  0.00  0.00     0.092 A 
BRANCH  11  12
ATOM     12  O   UNL d   1      25.821 -18.575   1.080  0.00  0.00    -0.358 OA
ATOM     13  H   UNL d   1      26.614 -19.083   0.870  0.00  0.00     0.217 HD
ENDBRANCH  11  12
ENDBRANCH   1   5
BRANCH   2  14
ATOM     14  C   UNL d   1      20.714 -19.167   0.177  0.00  0.00     0.033 A 
ATOM     15  C   UNL d   1      19.705 -19.658  -0.670  0.00  0.00     0.020 A 
ATOM     16  C   UNL d   1      18.677 -20.451  -0.161  0.00  0.00     0.044 A 
ATOM     17  C   UNL d   1      18.642 -20.725   1.201  0.00  0.00     0.122 A 
ATOM     18  F   UNL d   1      17.649 -21.490   1.675  0.00  0.00    -0.206 F 
ATOM     19  C   UNL d   1      19.612 -20.213   2.070  0.00  0.00    -0.022 A 
ATOM     20  C   UNL d   1      19.531 -20.484   3.541  0.00  0.00     0.051 C 
ATOM     21  C   UNL d   1      20.655 -19.423   1.551  0.00  0.00     0.027 A 
ENDBRANCH   2  14
TORSDOF 3
ENDMDL
MODEL 3
REMARK VINA RESULT:    -7.593      3.112      7.280
REMARK INTER + INTRA:          -9.571
REMARK INTER:                  -8.488
REMARK INTRA:                  -1.084
REMARK CONF_INDEPENDENT:        0.895
REMARK UNBOUND:                -1.084
REMARK  3 active torsions:
REMARK  status: ('A' for Active; 'I' for Inactive)
REMARK    1  A    between atoms: C_5  and  N_6 
REMARK       I    between atoms: N_6  and  C_7 
REMARK    2  A    between atoms: C_7  and  C_9 
REMARK    3  A    between atoms: C_17  and  O_18 
ROOT
ATOM      1  N   UNL d   1      22.908 -18.574   0.240  0.00  0.00    -0.321 N 
ATOM      2  C   UNL d   1      21.630 -18.495  -0.316  0.00  0.00     0.256 C 
ATOM      3  O   UNL d   1      21.276 -17.805  -1.270  0.00  0.00    -0.267 OA
ATOM      4  H   UNL d   1      23.038 -19.225   0.998  0.00  0.00     0.169 HD
ENDROOT
BRANCH   1   5
ATOM      5  C   UNL d   1      24.050 -17.837  -0.219  0.00  0.00     0.068 A 
ATOM      6  C   UNL d   1      25.342 -18.373  -0.122  0.00  0.00     0.033 A 
ATOM      7  C   UNL d   1      26.478 -17.696  -0.580  0.00  0.00     0.009 A 
ATOM      8  C   UNL d   1      26.358 -16.445  -1.169  0.00  0.00    -0.059 A 
ATOM      9  C   UNL d   1      27.557 -15.716  -1.692  0.00  0.00     0.048 C 
ATOM     10  C   UNL d   1      25.084 -15.877  -1.266  0.00  0.00     0.045 A 
ATOM     11  C   UNL d   1      23.947 -16.556  -0.795  0.00  0.00     0.092 A 
BRANCH  11  12
ATOM     12  O   UNL d   1      22.780 -15.858  -0.958  0.00  0.00    -0.358 OA
ATOM     13  H   UNL d   1      22.108 -16.419  -1.361  0.00  0.00     0.217 HD
ENDBRANCH  11  12
ENDBRANCH   1   5
BRANCH   2  14
ATOM     14  C   UNL d   1      20.562 -19.348   0.261  0.00  0.00     0.033 A 
ATOM     15  C   UNL d   1      19.485 -19.698  -0.571  0.00  0.00     0.020 A 
ATOM     16  C   UNL d   1      18.421 -20.450  -0.072  0.00  0.00     0.044 A 
ATOM     17  C   UNL d   1      18.420 -20.823   1.266  0.00  0.00     0.122 A 
ATOM     18  F   UNL d   1      17.392 -21.546   1.730  0.00  0.00    -0.206 F 
ATOM     19  C   UNL d   1      19.462 -20.450   2.123  0.00  0.00    -0.022 A 
ATOM     20  C   UNL d   1      19.421 -20.825   3.573  0.00  0.00     0.051 C 
ATOM     21  C   UNL d   1      20.540 -19.702   1.614  0.00  0.00     0.027 A 
ENDBRANCH   2  14
TORSDOF 3
ENDMDL
MODEL 4
REMARK VINA RESULT:    -6.743     10.108     13.356
REMARK INTER + INTRA:          -8.203
REMARK INTER:                  -7.638
REMARK INTRA:                  -0.565
REMARK CONF_INDEPENDENT:        0.895
REMARK UNBOUND:                -0.565
REMARK  3 active torsions:
REMARK  status: ('A' for Active; 'I' for Inactive)
REMARK    1  A    between atoms: C_5  and  N_6 
REMARK       I    between atoms: N_6  and  C_7 
REMARK    2  A    between atoms: C_7  and  C_9 
REMARK    3  A    between atoms: C_17  and  O_18 
ROOT
ATOM      1  N   UNL d   1      33.136 -21.950   5.606  0.00  0.00    -0.321 N 
ATOM      2  C   UNL d   1      31.790 -21.579   5.633  0.00  0.00     0.256 C 
ATOM      3  O   UNL d   1      31.147 -21.187   6.605  0.00  0.00    -0.267 OA
ATOM      4  H   UNL d   1      33.521 -22.209   4.711  0.00  0.00     0.169 HD
ENDROOT
BRANCH   1   5
ATOM      5  C   UNL d   1      34.012 -21.942   6.740  0.00  0.00     0.068 A 
ATOM      6  C   UNL d   1      34.444 -20.735   7.311  0.00  0.00     0.033 A 
ATOM      7  C   UNL d   1      35.280 -20.686   8.432  0.00  0.00     0.009 A 
ATOM      8  C   UNL d   1      35.712 -21.858   9.036  0.00  0.00    -0.059 A 
ATOM      9  C   UNL d   1      36.583 -21.827  10.254  0.00  0.00     0.048 C 
ATOM     10  C   UNL d   1      35.311 -23.077   8.481  0.00  0.00     0.045 A 
ATOM     11  C   UNL d   1      34.480 -23.123   7.348  0.00  0.00     0.092 A 
BRANCH  11  12
ATOM     12  O   UNL d   1      34.190 -24.393   6.927  0.00  0.00    -0.358 OA
ATOM     13  H   UNL d   1      33.718 -24.367   6.086  0.00  0.00     0.217 HD
ENDBRANCH  11  12
ENDBRANCH   1   5
BRANCH   2  14
ATOM     14  C   UNL d   1      31.028 -21.617   4.361  0.00  0.00     0.033 A 
ATOM     15  C   UNL d   1      29.664 -21.950   4.426  0.00  0.00     0.020 A 
ATOM     16  C   UNL d   1      28.905 -22.059   3.260  0.00  0.00     0.044 A 
ATOM     17  C   UNL d   1      29.520 -21.867   2.029  0.00  0.00     0.122 A 
ATOM     18  F   UNL d   1      28.778 -21.973   0.919  0.00  0.00    -0.206 F 
ATOM     19  C   UNL d   1      30.886 -21.575   1.938  0.00  0.00    -0.022 A 
ATOM     20  C   UNL d   1      31.538 -21.414   0.599  0.00  0.00     0.051 C 
ATOM     21  C   UNL d   1      31.645 -21.454   3.116  0.00  0.00     0.027 A 
ENDBRANCH   2  14
TORSDOF 3
ENDMDL
MODEL 5
REMARK VINA RESULT:    -6.283      4.737      8.966
REMARK INTER + INTRA:          -8.310
REMARK INTER:                  -7.178
REMARK INTRA:                  -1.132
REMARK CONF_INDEPENDENT:        0.895
REMARK UNBOUND:                -1.132
REMARK  3 active torsions:
REMARK  status: ('A' for Active; 'I' for Inactive)
REMARK    1  A    between atoms: C_5  and  N_6 
REMARK       I    between atoms: N_6  and  C_7 
REMARK    2  A    between atoms: C_7  and  C_9 
REMARK    3  A    between atoms: C_17  and  O_18 
ROOT
ATOM      1  N   UNL d   1      26.789 -14.666  -3.692  0.00  0.00    -0.321 N 
ATOM      2  C   UNL d   1      25.497 -14.888  -3.213  0.00  0.00     0.256 C 
ATOM      3  O   UNL d   1      24.450 -14.416  -3.652  0.00  0.00    -0.267 OA
ATOM      4  H   UNL d   1      27.538 -15.167  -3.240  0.00  0.00     0.169 HD
ENDROOT
BRANCH   1   5
ATOM      5  C   UNL d   1      27.119 -13.821  -4.803  0.00  0.00     0.068 A 
ATOM      6  C   UNL d   1      28.079 -14.211  -5.748  0.00  0.00     0.033 A 
ATOM      7  C   UNL d   1      28.410 -13.426  -6.857  0.00  0.00     0.009 A 
ATOM      8  C   UNL d   1      27.778 -12.209  -7.068  0.00  0.00    -0.059 A 
ATOM      9  C   UNL d   1      28.097 -11.366  -8.265  0.00  0.00     0.048 C 
ATOM     10  C   UNL d   1      26.827 -11.784  -6.135  0.00  0.00     0.045 A 
ATOM     11  C   UNL d   1      26.505 -12.571  -5.016  0.00  0.00     0.092 A 
BRANCH  11  12
ATOM     12  O   UNL d   1      25.563 -12.008  -4.198  0.00  0.00    -0.358 OA
ATOM     13  H   UNL d   1      24.694 -12.385  -4.377  0.00  0.00     0.217 HD
ENDBRANCH  11  12
ENDBRANCH   1   5
BRANCH   2  14
ATOM     14  C   UNL d   1      25.325 -15.817  -2.069  0.00  0.00     0.033 A 
ATOM     15  C   UNL d   1      26.485 -16.356  -1.485  0.00  0.00     0.020 A 
ATOM     16  C   UNL d   1      26.389 -17.280  -0.444  0.00  0.00     0.044 A 
ATOM     17  C   UNL d   1      25.134 -17.688  -0.011  0.00  0.00     0.122 A 
ATOM     18  F   UNL d   1      25.058 -18.575   0.990  0.00  0.00    -0.206 F 
ATOM     19  C   UNL d   1      23.966 -17.198  -0.606  0.00  0.00    -0.022 A 
ATOM     20  C   UNL d   1      22.623 -17.683  -0.154  0.00  0.00     0.051 C 
ATOM     21  C   UNL d   1      24.066 -16.256  -1.648  0.00  0.00     0.027 A 
ENDBRANCH   2  14
TORSDOF 3
ENDMDL
MODEL 6
REMARK VINA RESULT:    -5.940      4.525      8.824
REMARK INTER + INTRA:          -7.988
REMARK INTER:                  -6.835
REMARK INTRA:                  -1.153
REMARK CONF_INDEPENDENT:        0.895
REMARK UNBOUND:                -1.153
REMARK  3 active torsions:
REMARK  status: ('A' for Active; 'I' for Inactive)
REMARK    1  A    between atoms: C_5  and  N_6 
REMARK       I    between atoms: N_6  and  C_7 
REMARK    2  A    between atoms: C_7  and  C_9 
REMARK    3  A    between atoms: C_17  and  O_18 
ROOT
ATOM      1  N   UNL d   1      26.561 -14.254  -3.201  0.00  0.00    -0.321 N 
ATOM      2  C   UNL d   1      25.906 -15.484  -3.295  0.00  0.00     0.256 C 
ATOM      3  O   UNL d   1      25.501 -16.033  -4.319  0.00  0.00    -0.267 OA
ATOM      4  H   UNL d   1      26.866 -13.967  -2.284  0.00  0.00     0.169 HD
ENDROOT
BRANCH   1   5
ATOM      5  C   UNL d   1      26.870 -13.402  -4.312  0.00  0.00     0.068 A 
ATOM      6  C   UNL d   1      26.604 -12.025  -4.263  0.00  0.00     0.033 A 
ATOM      7  C   UNL d   1      26.913 -11.158  -5.316  0.00  0.00     0.009 A 
ATOM      8  C   UNL d   1      27.517 -11.641  -6.468  0.00  0.00    -0.059 A 
ATOM      9  C   UNL d   1      27.882 -10.725  -7.595  0.00  0.00     0.048 C 
ATOM     10  C   UNL d   1      27.780 -13.011  -6.554  0.00  0.00     0.045 A 
ATOM     11  C   UNL d   1      27.458 -13.882  -5.498  0.00  0.00     0.092 A 
BRANCH  11  12
ATOM     12  O   UNL d   1      27.773 -15.191  -5.747  0.00  0.00    -0.358 OA
ATOM     13  H   UNL d   1      27.494 -15.748  -5.011  0.00  0.00     0.217 HD
ENDBRANCH  11  12
ENDBRANCH   1   5
BRANCH   2  14
ATOM     14  C   UNL d   1      25.688 -16.258  -2.049  0.00  0.00     0.033 A 
ATOM     15  C   UNL d   1      26.816 -16.583  -1.276  0.00  0.00     0.020 A 
ATOM     16  C   UNL d   1      26.685 -17.358  -0.123  0.00  0.00     0.044 A 
ATOM     17  C   UNL d   1      25.430 -17.834   0.236  0.00  0.00     0.122 A 
ATOM     18  F   UNL d   1      25.320 -18.575   1.347  0.00  0.00    -0.206 F 
ATOM     19  C   UNL d   1      24.300 -17.558  -0.541  0.00  0.00    -0.022 A 
ATOM     20  C   UNL d   1      22.963 -18.117  -0.160  0.00  0.00     0.051 C 
ATOM     21  C   UNL d   1      24.434 -16.765  -1.696  0.00  0.00     0.027 A 
ENDBRANCH   2  14
TORSDOF 3
ENDMDL
MODEL 7
REMARK VINA RESULT:    -5.928      4.603      9.012
REMARK INTER + INTRA:          -7.986
REMARK INTER:                  -6.822
REMARK INTRA:                  -1.164
REMARK CONF_INDEPENDENT:        0.895
REMARK UNBOUND:                -1.164
REMARK  3 active torsions:
REMARK  status: ('A' for Active; 'I' for Inactive)
REMARK    1  A    between atoms: C_5  and  N_6 
REMARK       I    between atoms: N_6  and  C_7 
REMARK    2  A    between atoms: C_7  and  C_9 
REMARK    3  A    between atoms: C_17  and  O_18 
ROOT
ATOM      1  N   UNL d   1      27.527 -15.314  -3.304  0.00  0.00    -0.321 N 
ATOM      2  C   UNL d   1      26.153 -15.496  -3.136  0.00  0.00     0.256 C 
ATOM      3  O   UNL d   1      25.256 -15.114  -3.887  0.00  0.00    -0.267 OA
ATOM      4  H   UNL d   1      28.131 -15.729  -2.612  0.00  0.00     0.169 HD
ENDROOT
BRANCH   1   5
ATOM      5  C   UNL d   1      28.136 -14.627  -4.406  0.00  0.00     0.068 A 
ATOM      6  C   UNL d   1      29.216 -13.755  -4.205  0.00  0.00     0.033 A 
ATOM      7  C   UNL d   1      29.851 -13.085  -5.256  0.00  0.00     0.009 A 
ATOM      8  C   UNL d   1      29.429 -13.273  -6.565  0.00  0.00    -0.059 A 
ATOM      9  C   UNL d   1      30.115 -12.588  -7.707  0.00  0.00     0.048 C 
ATOM     10  C   UNL d   1      28.345 -14.125  -6.795  0.00  0.00     0.045 A 
ATOM     11  C   UNL d   1      27.702 -14.788  -5.735  0.00  0.00     0.092 A 
BRANCH  11  12
ATOM     12  O   UNL d   1      26.654 -15.575  -6.132  0.00  0.00    -0.358 OA
ATOM     13  H   UNL d   1      25.924 -15.502  -5.505  0.00  0.00     0.217 HD
ENDBRANCH  11  12
ENDBRANCH   1   5
BRANCH   2  14
ATOM     14  C   UNL d   1      25.687 -16.258  -1.952  0.00  0.00     0.033 A 
ATOM     15  C   UNL d   1      26.662 -16.749  -1.066  0.00  0.00     0.020 A 
ATOM     16  C   UNL d   1      26.293 -17.522   0.035  0.00  0.00     0.044 A 
ATOM     17  C   UNL d   1      24.952 -17.829   0.230  0.00  0.00     0.122 A 
ATOM     18  F   UNL d   1      24.613 -18.571   1.293  0.00  0.00    -0.206 F 
ATOM     19  C   UNL d   1      23.969 -17.387  -0.662  0.00  0.00    -0.022 A 
ATOM     20  C   UNL d   1      22.534 -17.766  -0.457  0.00  0.00     0.051 C 
ATOM     21  C   UNL d   1      24.343 -16.597  -1.765  0.00  0.00     0.027 A 
ENDBRANCH   2  14
TORSDOF 3
ENDMDL
MODEL 8
REMARK VINA RESULT:    -5.803      4.525      8.691
REMARK INTER + INTRA:          -7.879
REMARK INTER:                  -6.697
REMARK INTRA:                  -1.182
REMARK CONF_INDEPENDENT:        0.895
REMARK UNBOUND:                -1.182
REMARK  3 active torsions:
REMARK  status: ('A' for Active; 'I' for Inactive)
REMARK    1  A    between atoms: C_5  and  N_6 
REMARK       I    between atoms: N_6  and  C_7 
REMARK    2  A    between atoms: C_7  and  C_9 
REMARK    3  A    between atoms: C_17  and  O_18 
ROOT
ATOM      1  N   UNL d   1      25.945 -13.521  -2.822  0.00  0.00    -0.321 N 
ATOM      2  C   UNL d   1      25.520 -14.828  -3.070  0.00  0.00     0.256 C 
ATOM      3  O   UNL d   1      25.156 -15.299  -4.146  0.00  0.00    -0.267 OA
ATOM      4  H   UNL d   1      26.251 -13.310  -1.885  0.00  0.00     0.169 HD
ENDROOT
BRANCH   1   5
ATOM      5  C   UNL d   1      26.023 -12.483  -3.808  0.00  0.00     0.068 A 
ATOM      6  C   UNL d   1      25.563 -11.187  -3.529  0.00  0.00     0.033 A 
ATOM      7  C   UNL d   1      25.644 -10.141  -4.455  0.00  0.00     0.009 A 
ATOM      8  C   UNL d   1      26.204 -10.355  -5.707  0.00  0.00    -0.059 A 
ATOM      9  C   UNL d   1      26.327  -9.243  -6.702  0.00  0.00     0.048 C 
ATOM     10  C   UNL d   1      26.658 -11.640  -6.020  0.00  0.00     0.045 A 
ATOM     11  C   UNL d   1      26.565 -12.691  -5.091  0.00  0.00     0.092 A 
BRANCH  11  12
ATOM     12  O   UNL d   1      27.045 -13.885  -5.558  0.00  0.00    -0.358 OA
ATOM     13  H   UNL d   1      26.479 -14.610  -5.268  0.00  0.00     0.217 HD
ENDBRANCH  11  12
ENDBRANCH   1   5
BRANCH   2  14
ATOM     14  C   UNL d   1      25.525 -15.791  -1.942  0.00  0.00     0.033 A 
ATOM     15  C   UNL d   1      26.734 -15.979  -1.249  0.00  0.00     0.020 A 
ATOM     16  C   UNL d   1      26.820 -16.913  -0.217  0.00  0.00     0.044 A 
ATOM     17  C   UNL d   1      25.707 -17.681   0.099  0.00  0.00     0.122 A 
ATOM     18  F   UNL d   1      25.805 -18.573   1.094  0.00  0.00    -0.206 F 
ATOM     19  C   UNL d   1      24.505 -17.542  -0.605  0.00  0.00    -0.022 A 
ATOM     20  C   UNL d   1      23.329 -18.410  -0.278  0.00  0.00     0.051 C 
ATOM     21  C   UNL d   1      24.418 -16.590  -1.638  0.00  0.00     0.027 A 
ENDBRANCH   2  14
TORSDOF 3
ENDMDL
MODEL 9
REMARK VINA RESULT:    -5.457      5.439      7.509
REMARK INTER + INTRA:          -7.541
REMARK INTER:                  -6.352
REMARK INTRA:                  -1.189
REMARK CONF_INDEPENDENT:        0.895
REMARK UNBOUND:                -1.189
REMARK  3 active torsions:
REMARK  status: ('A' for Active; 'I' for Inactive)
REMARK    1  A    between atoms: C_5  and  N_6 
REMARK       I    between atoms: N_6  and  C_7 
REMARK    2  A    between atoms: C_7  and  C_9 
REMARK    3  A    between atoms: C_17  and  O_18 
ROOT
ATOM      1  N   UNL d   1      27.540 -15.136  -3.722  0.00  0.00    -0.321 N 
ATOM      2  C   UNL d   1      27.389 -15.116  -5.110  0.00  0.00     0.256 C 
ATOM      3  O   UNL d   1      26.453 -15.575  -5.762  0.00  0.00    -0.267 OA
ATOM      4  H   UNL d   1      28.353 -14.675  -3.343  0.00  0.00     0.169 HD
ENDROOT
BRANCH   1   5
ATOM      5  C   UNL d   1      26.605 -15.718  -2.803  0.00  0.00     0.068 A 
ATOM      6  C   UNL d   1      27.016 -16.675  -1.863  0.00  0.00     0.033 A 
ATOM      7  C   UNL d   1      26.140 -17.247  -0.935  0.00  0.00     0.009 A 
ATOM      8  C   UNL d   1      24.804 -16.870  -0.907  0.00  0.00    -0.059 A 
ATOM      9  C   UNL d   1      23.856 -17.449   0.097  0.00  0.00     0.048 C 
ATOM     10  C   UNL d   1      24.361 -15.930  -1.842  0.00  0.00     0.045 A 
ATOM     11  C   UNL d   1      25.242 -15.365  -2.781  0.00  0.00     0.092 A 
BRANCH  11  12
ATOM     12  O   UNL d   1      24.647 -14.470  -3.628  0.00  0.00    -0.358 OA
ATOM     13  H   UNL d   1      25.014 -14.554  -4.516  0.00  0.00     0.217 HD
ENDBRANCH  11  12
ENDBRANCH   1   5
BRANCH   2  14
ATOM     14  C   UNL d   1      28.438 -14.447  -5.918  0.00  0.00     0.033 A 
ATOM     15  C   UNL d   1      28.153 -13.168  -6.428  0.00  0.00     0.020 A 
ATOM     16  C   UNL d   1      29.074 -12.509  -7.243  0.00  0.00     0.044 A 
ATOM     17  C   UNL d   1      30.264 -13.145  -7.574  0.00  0.00     0.122 A 
ATOM     18  F   UNL d   1      31.140 -12.499  -8.356  0.00  0.00    -0.206 F 
ATOM     19  C   UNL d   1      30.551 -14.435  -7.113  0.00  0.00    -0.022 A 
ATOM     20  C   UNL d   1      31.821 -15.120  -7.517  0.00  0.00     0.051 C 
ATOM     21  C   UNL d   1      29.625 -15.091  -6.280  0.00  0.00     0.027 A 
ENDBRANCH   2  14
TORSDOF 3
ENDMDL
