MODEL 1
REMARK VINA RESULT:    -8.616      0.000      0.000
REMARK INTER + INTRA:         -12.850
REMARK INTER:                 -11.002
REMARK INTRA:                  -1.848
REMARK CONF_INDEPENDENT:        2.386
REMARK UNBOUND:                -1.848
REMARK  8 active torsions:
REMARK  status: ('A' for Active; 'I' for Inactive)
REMARK    1  A    between atoms: C_2  and  O_3 
REMARK    2  A    between atoms: O_3  and  C_4 
REMARK    3  A    between atoms: C_9  and  N_10 
REMARK    4  A    between atoms: C_11  and  N_12 
REMARK    5  A    between atoms: C_20  and  S_21 
REMARK    6  A    between atoms: S_21  and  C_22 
REMARK    7  A    between atoms: C_22  and  C_23 
REMARK       I    between atoms: C_23  and  N_25 
REMARK    8  A    between atoms: N_25  and  C_26 
ROOT
ATOM      1  N   UNL d   1      26.133 -14.686  -1.651  0.00  0.00    -0.296 N 
ATOM      2  C   UNL d   1      25.010 -15.480  -1.549  0.00  0.00     0.141 A 
ATOM      3  C   UNL d   1      25.180 -16.736  -0.893  0.00  0.00     0.085 A 
ATOM      4  C   UNL d   1      24.397 -17.769  -0.598  0.00  0.00     0.071 A 
ATOM      5  C   UNL d   1      22.935 -17.846  -0.874  0.00  0.00     0.073 C 
ATOM      6  N   UNL d   1      25.111 -18.782  -0.020  0.00  0.00    -0.152 NA
ATOM      7  N   UNL d   1      26.339 -18.448   0.052  0.00  0.00    -0.129 NA
ATOM      8  C   UNL d   1      26.475 -17.179  -0.471  0.00  0.00     0.185 A 
ATOM      9  N   UNL d   1      27.576 -16.524  -0.586  0.00  0.00    -0.232 NA
ATOM     10  C   UNL d   1      27.462 -15.131  -1.143  0.00  0.00     0.281 A 
ENDROOT
BRANCH  10  11
ATOM     11  S   UNL d   1      28.147 -13.929   0.067  0.00  0.00    -0.111 SA
BRANCH  11  12
ATOM     12  C   UNL d   1      28.668 -14.958   1.507  0.00  0.00     0.181 C 
BRANCH  12  13
ATOM     13  C   UNL d   1      28.599 -14.111   2.766  0.00  0.00     0.231 C 
ATOM     14  O   UNL d   1      28.624 -12.882   2.715  0.00  0.00    -0.272 OA
ATOM     15  N   UNL d   1      28.623 -14.818   3.967  0.00  0.00    -0.327 N 
ATOM     16  H   UNL d   1      28.916 -15.787   3.982  0.00  0.00     0.169 HD
BRANCH  15  17
ATOM     17  C   UNL d   1      28.633 -14.107   5.190  0.00  0.00     0.034 A 
ATOM     18  C   UNL d   1      29.511 -14.460   6.213  0.00  0.00     0.030 A 
ATOM     19  C   UNL d   1      29.519 -13.722   7.405  0.00  0.00     0.009 A 
ATOM     20  C   UNL d   1      28.684 -12.608   7.565  0.00  0.00    -0.062 A 
ATOM     21  C   UNL d   1      28.795 -11.721   8.770  0.00  0.00     0.048 C 
ATOM     22  C   UNL d   1      27.780 -12.286   6.551  0.00  0.00     0.009 A 
ATOM     23  C   UNL d   1      27.760 -13.031   5.375  0.00  0.00     0.030 A 
ENDBRANCH  15  17
ENDBRANCH  12  13
ENDBRANCH  11  12
ENDBRANCH  10  11
BRANCH   1  24
ATOM     24  C   UNL d   1      26.056 -13.643  -2.578  0.00  0.00     0.072 A 
ATOM     25  C   UNL d   1      26.476 -12.374  -2.090  0.00  0.00     0.033 A 
ATOM     26  C   UNL d   1      26.488 -11.250  -2.890  0.00  0.00     0.002 A 
ATOM     27  C   UNL d   1      26.042 -11.372  -4.195  0.00  0.00     0.003 A 
ATOM     28  C   UNL d   1      25.545 -12.600  -4.670  0.00  0.00     0.039 A 
ATOM     29  C   UNL d   1      25.552 -13.753  -3.875  0.00  0.00     0.095 A 
BRANCH  29  30
ATOM     30  O   UNL d   1      25.154 -14.911  -4.491  0.00  0.00    -0.349 OA
BRANCH  30  31
ATOM     31  C   UNL d   1      26.071 -15.569  -5.373  0.00  0.00     0.171 C 
ATOM     32  C   UNL d   1      27.488 -15.178  -4.995  0.00  0.00     0.034 C 
ENDBRANCH  30  31
ENDBRANCH  29  30
ENDBRANCH   1  24
BRANCH   2  33
ATOM     33  N   UNL d   1      23.836 -15.225  -2.044  0.00  0.00    -0.283 NA
ATOM     34  H   UNL d   1      23.893 -14.783  -2.960  0.00  0.00     0.188 HD
ENDBRANCH   2  33
TORSDOF 8
ENDMDL
MODEL 2
REMARK VINA RESULT:    -7.516      1.330      2.318
REMARK INTER + INTRA:         -13.098
REMARK INTER:                  -9.903
REMARK INTRA:                  -3.196
REMARK CONF_INDEPENDENT:        2.386
REMARK UNBOUND:                -3.196
REMARK  8 active torsions:
REMARK  status: ('A' for Active; 'I' for Inactive)
REMARK    1  A    between atoms: C_2  and  O_3 
REMARK    2  A    between atoms: O_3  and  C_4 
REMARK    3  A    between atoms: C_9  and  N_10 
REMARK    4  A    between atoms: C_11  and  N_12 
REMARK    5  A    between atoms: C_20  and  S_21 
REMARK    6  A    between atoms: S_21  and  C_22 
REMARK    7  A    between atoms: C_22  and  C_23 
REMARK       I    between atoms: C_23  and  N_25 
REMARK    8  A    between atoms: N_25  and  C_26 
ROOT
ATOM      1  N   UNL d   1      27.202 -15.690  -2.267  0.00  0.00    -0.296 N 
ATOM      2  C   UNL d   1      26.077 -16.467  -2.083  0.00  0.00     0.141 A 
ATOM      3  C   UNL d   1      25.960 -17.124  -0.821  0.00  0.00     0.085 A 
ATOM      4  C   UNL d   1      25.079 -17.940  -0.253  0.00  0.00     0.071 A 
ATOM      5  C   UNL d   1      23.795 -18.381  -0.865  0.00  0.00     0.073 C 
ATOM      6  N   UNL d   1      25.510 -18.353   0.978  0.00  0.00    -0.152 NA
ATOM      7  N   UNL d   1      26.655 -17.847   1.218  0.00  0.00    -0.129 NA
ATOM      8  C   UNL d   1      27.015 -17.060   0.144  0.00  0.00     0.185 A 
ATOM      9  N   UNL d   1      28.118 -16.409   0.023  0.00  0.00    -0.232 NA
ATOM     10  C   UNL d   1      28.261 -15.577  -1.223  0.00  0.00     0.281 A 
ENDROOT
BRANCH  10  11
ATOM     11  S   UNL d   1      28.548 -13.822  -0.758  0.00  0.00    -0.111 SA
BRANCH  11  12
ATOM     12  C   UNL d   1      27.008 -13.311   0.121  0.00  0.00     0.181 C 
BRANCH  12  13
ATOM     13  C   UNL d   1      27.310 -13.177   1.603  0.00  0.00     0.231 C 
ATOM     14  O   UNL d   1      27.073 -12.138   2.216  0.00  0.00    -0.272 OA
ATOM     15  N   UNL d   1      27.971 -14.261   2.180  0.00  0.00    -0.327 N 
ATOM     16  H   UNL d   1      28.426 -14.951   1.595  0.00  0.00     0.169 HD
BRANCH  15  17
ATOM     17  C   UNL d   1      28.354 -14.195   3.540  0.00  0.00     0.034 A 
ATOM     18  C   UNL d   1      29.670 -14.450   3.924  0.00  0.00     0.030 A 
ATOM     19  C   UNL d   1      30.029 -14.352   5.276  0.00  0.00     0.009 A 
ATOM     20  C   UNL d   1      29.092 -13.959   6.241  0.00  0.00    -0.062 A 
ATOM     21  C   UNL d   1      29.501 -13.700   7.661  0.00  0.00     0.048 C 
ATOM     22  C   UNL d   1      27.768 -13.744   5.853  0.00  0.00     0.009 A 
ATOM     23  C   UNL d   1      27.408 -13.860   4.513  0.00  0.00     0.030 A 
ENDBRANCH  15  17
ENDBRANCH  12  13
ENDBRANCH  11  12
ENDBRANCH  10  11
BRANCH   1  24
ATOM     24  C   UNL d   1      27.489 -15.342  -3.590  0.00  0.00     0.072 A 
ATOM     25  C   UNL d   1      28.833 -15.577  -3.995  0.00  0.00     0.033 A 
ATOM     26  C   UNL d   1      29.267 -15.315  -5.278  0.00  0.00     0.002 A 
ATOM     27  C   UNL d   1      28.362 -14.774  -6.175  0.00  0.00     0.003 A 
ATOM     28  C   UNL d   1      27.052 -14.458  -5.770  0.00  0.00     0.039 A 
ATOM     29  C   UNL d   1      26.593 -14.744  -4.478  0.00  0.00     0.095 A 
BRANCH  29  30
ATOM     30  O   UNL d   1      25.265 -14.499  -4.242  0.00  0.00    -0.349 OA
BRANCH  30  31
ATOM     31  C   UNL d   1      24.911 -13.406  -3.387  0.00  0.00     0.171 C 
ATOM     32  C   UNL d   1      26.008 -12.357  -3.446  0.00  0.00     0.034 C 
ENDBRANCH  30  31
ENDBRANCH  29  30
ENDBRANCH   1  24
BRANCH   2  33
ATOM     33  N   UNL d   1      25.152 -16.707  -2.964  0.00  0.00    -0.283 NA
ATOM     34  H   UNL d   1      24.781 -15.852  -3.374  0.00  0.00     0.188 HD
ENDBRANCH   2  33
TORSDOF 8
ENDMDL
MODEL 3
REMARK VINA RESULT:    -7.344      4.995      7.157
REMARK INTER + INTRA:         -13.189
REMARK INTER:                  -9.731
REMARK INTRA:                  -3.458
REMARK CONF_INDEPENDENT:        2.386
REMARK UNBOUND:                -3.458
REMARK  8 active torsions:
REMARK  status: ('A' for Active; 'I' for Inactive)
REMARK    1  A    between atoms: C_2  and  O_3 
REMARK    2  A    between atoms: O_3  and  C_4 
REMARK    3  A    between atoms: C_9  and  N_10 
REMARK    4  A    between atoms: C_11  and  N_12 
REMARK    5  A    between atoms: C_20  and  S_21 
REMARK    6  A    between atoms: S_21  and  C_22 
REMARK    7  A    between atoms: C_22  and  C_23 
REMARK       I    between atoms: C_23  and  N_25 
REMARK    8  A    between atoms: N_25  and  C_26 
ROOT
ATOM      1  N   UNL d   1      28.810 -13.699  -6.151  0.00  0.00    -0.296 N 
ATOM      2  C   UNL d   1      28.033 -12.667  -5.667  0.00  0.00     0.141 A 
ATOM      3  C   UNL d   1      26.826 -13.040  -5.003  0.00  0.00     0.085 A 
ATOM      4  C   UNL d   1      25.823 -12.393  -4.419  0.00  0.00     0.071 A 
ATOM      5  C   UNL d   1      25.737 -10.917  -4.247  0.00  0.00     0.073 C 
ATOM      6  N   UNL d   1      24.849 -13.260  -4.007  0.00  0.00    -0.152 NA
ATOM      7  N   UNL d   1      25.178 -14.450  -4.324  0.00  0.00    -0.129 NA
ATOM      8  C   UNL d   1      26.406 -14.408  -4.952  0.00  0.00     0.185 A 
ATOM      9  N   UNL d   1      27.043 -15.418  -5.431  0.00  0.00    -0.232 NA
ATOM     10  C   UNL d   1      28.393 -15.125  -6.027  0.00  0.00     0.281 A 
ENDROOT
BRANCH  10  11
ATOM     11  S   UNL d   1      29.674 -16.118  -5.160  0.00  0.00    -0.111 SA
BRANCH  11  12
ATOM     12  C   UNL d   1      29.682 -15.469  -3.433  0.00  0.00     0.181 C 
BRANCH  12  13
ATOM     13  C   UNL d   1      28.715 -16.288  -2.596  0.00  0.00     0.231 C 
ATOM     14  O   UNL d   1      29.049 -17.359  -2.091  0.00  0.00    -0.272 OA
ATOM     15  N   UNL d   1      27.409 -15.801  -2.540  0.00  0.00    -0.327 N 
ATOM     16  H   UNL d   1      27.095 -15.108  -3.209  0.00  0.00     0.169 HD
BRANCH  15  17
ATOM     17  C   UNL d   1      26.424 -16.537  -1.841  0.00  0.00     0.034 A 
ATOM     18  C   UNL d   1      26.704 -17.102  -0.598  0.00  0.00     0.030 A 
ATOM     19  C   UNL d   1      25.702 -17.804   0.086  0.00  0.00     0.009 A 
ATOM     20  C   UNL d   1      24.409 -17.910  -0.445  0.00  0.00    -0.062 A 
ATOM     21  C   UNL d   1      23.292 -18.523   0.347  0.00  0.00     0.048 C 
ATOM     22  C   UNL d   1      24.149 -17.375  -1.708  0.00  0.00     0.009 A 
ATOM     23  C   UNL d   1      25.150 -16.695  -2.395  0.00  0.00     0.030 A 
ENDBRANCH  15  17
ENDBRANCH  12  13
ENDBRANCH  11  12
ENDBRANCH  10  11
BRANCH   1  24
ATOM     24  C   UNL d   1      29.785 -13.338  -7.086  0.00  0.00     0.072 A 
ATOM     25  C   UNL d   1      31.096 -13.808  -6.797  0.00  0.00     0.033 A 
ATOM     26  C   UNL d   1      32.163 -13.563  -7.637  0.00  0.00     0.002 A 
ATOM     27  C   UNL d   1      31.938 -12.803  -8.773  0.00  0.00     0.003 A 
ATOM     28  C   UNL d   1      30.666 -12.260  -9.032  0.00  0.00     0.039 A 
ATOM     29  C   UNL d   1      29.571 -12.525  -8.200  0.00  0.00     0.095 A 
BRANCH  29  30
ATOM     30  O   UNL d   1      28.361 -12.037  -8.623  0.00  0.00    -0.349 OA
BRANCH  30  31
ATOM     31  C   UNL d   1      27.792 -12.566  -9.827  0.00  0.00     0.171 C 
ATOM     32  C   UNL d   1      26.649 -11.669 -10.269  0.00  0.00     0.034 C 
ENDBRANCH  30  31
ENDBRANCH  29  30
ENDBRANCH   1  24
BRANCH   2  33
ATOM     33  N   UNL d   1      28.261 -11.396  -5.812  0.00  0.00    -0.283 NA
ATOM     34  H   UNL d   1      28.130 -11.089  -6.774  0.00  0.00     0.188 HD
ENDBRANCH   2  33
TORSDOF 8
ENDMDL
MODEL 4
REMARK VINA RESULT:    -6.742      2.855      6.512
REMARK INTER + INTRA:         -13.377
REMARK INTER:                  -9.128
REMARK INTRA:                  -4.248
REMARK CONF_INDEPENDENT:        2.386
REMARK UNBOUND:                -4.248
REMARK  8 active torsions:
REMARK  status: ('A' for Active; 'I' for Inactive)
REMARK    1  A    between atoms: C_2  and  O_3 
REMARK    2  A    between atoms: O_3  and  C_4 
REMARK    3  A    between atoms: C_9  and  N_10 
REMARK    4  A    between atoms: C_11  and  N_12 
REMARK    5  A    between atoms: C_20  and  S_21 
REMARK    6  A    between atoms: S_21  and  C_22 
REMARK    7  A    between atoms: C_22  and  C_23 
REMARK       I    between atoms: C_23  and  N_25 
REMARK    8  A    between atoms: N_25  and  C_26 
ROOT
ATOM      1  N   UNL d   1      28.443 -14.105  -1.908  0.00  0.00    -0.296 N 
ATOM      2  C   UNL d   1      27.111 -13.884  -2.192  0.00  0.00     0.141 A 
ATOM      3  C   UNL d   1      26.608 -14.488  -3.383  0.00  0.00     0.085 A 
ATOM      4  C   UNL d   1      25.438 -14.523  -4.011  0.00  0.00     0.071 A 
ATOM      5  C   UNL d   1      24.180 -13.894  -3.520  0.00  0.00     0.073 C 
ATOM      6  N   UNL d   1      25.532 -15.199  -5.196  0.00  0.00    -0.152 NA
ATOM      7  N   UNL d   1      26.734 -15.587  -5.369  0.00  0.00    -0.129 NA
ATOM      8  C   UNL d   1      27.480 -15.187  -4.279  0.00  0.00     0.185 A 
ATOM      9  N   UNL d   1      28.741 -15.383  -4.116  0.00  0.00    -0.232 NA
ATOM     10  C   UNL d   1      29.322 -14.895  -2.816  0.00  0.00     0.281 A 
ENDROOT
BRANCH  10  11
ATOM     11  S   UNL d   1      30.101 -16.303  -1.927  0.00  0.00    -0.111 SA
BRANCH  11  12
ATOM     12  C   UNL d   1      29.335 -16.280  -0.249  0.00  0.00     0.181 C 
BRANCH  12  13
ATOM     13  C   UNL d   1      27.994 -16.990  -0.311  0.00  0.00     0.231 C 
ATOM     14  O   UNL d   1      27.917 -18.200  -0.520  0.00  0.00    -0.272 OA
ATOM     15  N   UNL d   1      26.873 -16.165  -0.230  0.00  0.00    -0.327 N 
ATOM     16  H   UNL d   1      26.964 -15.166  -0.374  0.00  0.00     0.169 HD
BRANCH  15  17
ATOM     17  C   UNL d   1      25.584 -16.733  -0.349  0.00  0.00     0.034 A 
ATOM     18  C   UNL d   1      24.587 -16.094  -1.084  0.00  0.00     0.030 A 
ATOM     19  C   UNL d   1      23.325 -16.692  -1.209  0.00  0.00     0.009 A 
ATOM     20  C   UNL d   1      23.066 -17.945  -0.637  0.00  0.00    -0.062 A 
ATOM     21  C   UNL d   1      21.774 -18.663  -0.895  0.00  0.00     0.048 C 
ATOM     22  C   UNL d   1      24.057 -18.560   0.130  0.00  0.00     0.009 A 
ATOM     23  C   UNL d   1      25.303 -17.956   0.269  0.00  0.00     0.030 A 
ENDBRANCH  15  17
ENDBRANCH  12  13
ENDBRANCH  11  12
ENDBRANCH  10  11
BRANCH   1  24
ATOM     24  C   UNL d   1      29.011 -13.248  -0.961  0.00  0.00     0.072 A 
ATOM     25  C   UNL d   1      30.104 -12.469  -1.435  0.00  0.00     0.033 A 
ATOM     26  C   UNL d   1      30.752 -11.554  -0.632  0.00  0.00     0.002 A 
ATOM     27  C   UNL d   1      30.336 -11.428   0.682  0.00  0.00     0.003 A 
ATOM     28  C   UNL d   1      29.313 -12.248   1.192  0.00  0.00     0.039 A 
ATOM     29  C   UNL d   1      28.630 -13.162   0.380  0.00  0.00     0.095 A 
BRANCH  29  30
ATOM     30  O   UNL d   1      27.575 -13.816   0.962  0.00  0.00    -0.349 OA
BRANCH  30  31
ATOM     31  C   UNL d   1      27.780 -14.456   2.227  0.00  0.00     0.171 C 
ATOM     32  C   UNL d   1      27.194 -13.585   3.324  0.00  0.00     0.034 C 
ENDBRANCH  30  31
ENDBRANCH  29  30
ENDBRANCH   1  24
BRANCH   2  33
ATOM     33  N   UNL d   1      26.292 -13.133  -1.518  0.00  0.00    -0.283 NA
ATOM     34  H   UNL d   1      26.465 -13.177  -0.516  0.00  0.00     0.188 HD
ENDBRANCH   2  33
TORSDOF 8
ENDMDL
MODEL 5
REMARK VINA RESULT:    -6.731      4.147      6.879
REMARK INTER + INTRA:         -12.211
REMARK INTER:                  -9.118
REMARK INTRA:                  -3.094
REMARK CONF_INDEPENDENT:        2.386
REMARK UNBOUND:                -3.094
REMARK  8 active torsions:
REMARK  status: ('A' for Active; 'I' for Inactive)
REMARK    1  A    between atoms: C_2  and  O_3 
REMARK    2  A    between atoms: O_3  and  C_4 
REMARK    3  A    between atoms: C_9  and  N_10 
REMARK    4  A    between atoms: C_11  and  N_12 
REMARK    5  A    between atoms: C_20  and  S_21 
REMARK    6  A    between atoms: S_21  and  C_22 
REMARK    7  A    between atoms: C_22  and  C_23 
REMARK       I    between atoms: C_23  and  N_25 
REMARK    8  A    between atoms: N_25  and  C_26 
ROOT
ATOM      1  N   UNL d   1      29.076 -14.928  -3.134  0.00  0.00    -0.296 N 
ATOM      2  C   UNL d   1      28.335 -13.889  -3.658  0.00  0.00     0.141 A 
ATOM      3  C   UNL d   1      26.917 -14.059  -3.658  0.00  0.00     0.085 A 
ATOM      4  C   UNL d   1      25.874 -13.341  -4.060  0.00  0.00     0.071 A 
ATOM      5  C   UNL d   1      25.944 -11.971  -4.639  0.00  0.00     0.073 C 
ATOM      6  N   UNL d   1      24.705 -14.033  -3.897  0.00  0.00    -0.152 NA
ATOM      7  N   UNL d   1      24.959 -15.188  -3.421  0.00  0.00    -0.129 NA
ATOM      8  C   UNL d   1      26.322 -15.291  -3.237  0.00  0.00     0.185 A 
ATOM      9  N   UNL d   1      26.947 -16.325  -2.794  0.00  0.00    -0.232 NA
ATOM     10  C   UNL d   1      28.436 -16.178  -2.633  0.00  0.00     0.281 A 
ENDROOT
BRANCH  10  11
ATOM     11  S   UNL d   1      28.899 -16.506  -0.885  0.00  0.00    -0.111 SA
BRANCH  11  12
ATOM     12  C   UNL d   1      27.610 -15.640   0.112  0.00  0.00     0.181 C 
BRANCH  12  13
ATOM     13  C   UNL d   1      26.394 -16.541   0.231  0.00  0.00     0.231 C 
ATOM     14  O   UNL d   1      26.405 -17.547   0.939  0.00  0.00    -0.272 OA
ATOM     15  N   UNL d   1      25.321 -16.214  -0.598  0.00  0.00    -0.327 N 
ATOM     16  H   UNL d   1      25.456 -15.586  -1.381  0.00  0.00     0.169 HD
BRANCH  15  17
ATOM     17  C   UNL d   1      24.173 -17.039  -0.605  0.00  0.00     0.034 A 
ATOM     18  C   UNL d   1      22.900 -16.490  -0.753  0.00  0.00     0.030 A 
ATOM     19  C   UNL d   1      21.780 -17.333  -0.782  0.00  0.00     0.009 A 
ATOM     20  C   UNL d   1      21.927 -18.725  -0.707  0.00  0.00    -0.062 A 
ATOM     21  C   UNL d   1      20.754 -19.641  -0.895  0.00  0.00     0.048 C 
ATOM     22  C   UNL d   1      23.202 -19.263  -0.521  0.00  0.00     0.009 A 
ATOM     23  C   UNL d   1      24.311 -18.424  -0.472  0.00  0.00     0.030 A 
ENDBRANCH  15  17
ENDBRANCH  12  13
ENDBRANCH  11  12
ENDBRANCH  10  11
BRANCH   1  24
ATOM     24  C   UNL d   1      30.438 -14.920  -3.448  0.00  0.00     0.072 A 
ATOM     25  C   UNL d   1      31.218 -13.987  -2.709  0.00  0.00     0.033 A 
ATOM     26  C   UNL d   1      32.582 -13.877  -2.879  0.00  0.00     0.002 A 
ATOM     27  C   UNL d   1      33.189 -14.683  -3.827  0.00  0.00     0.003 A 
ATOM     28  C   UNL d   1      32.422 -15.552  -4.625  0.00  0.00     0.039 A 
ATOM     29  C   UNL d   1      31.040 -15.691  -4.443  0.00  0.00     0.095 A 
BRANCH  29  30
ATOM     30  O   UNL d   1      30.426 -16.655  -5.200  0.00  0.00    -0.349 OA
BRANCH  30  31
ATOM     31  C   UNL d   1      30.039 -16.331  -6.540  0.00  0.00     0.171 C 
ATOM     32  C   UNL d   1      29.653 -14.864  -6.602  0.00  0.00     0.034 C 
ENDBRANCH  30  31
ENDBRANCH  29  30
ENDBRANCH   1  24
BRANCH   2  33
ATOM     33  N   UNL d   1      28.801 -12.808  -4.206  0.00  0.00    -0.283 NA
ATOM     34  H   UNL d   1      28.923 -12.056  -3.531  0.00  0.00     0.188 HD
ENDBRANCH   2  33
TORSDOF 8
ENDMDL
MODEL 6
REMARK VINA RESULT:    -6.688      5.230      7.648
REMARK INTER + INTRA:         -12.738
REMARK INTER:                  -9.075
REMARK INTRA:                  -3.664
REMARK CONF_INDEPENDENT:        2.386
REMARK UNBOUND:                -3.664
REMARK  8 active torsions:
REMARK  status: ('A' for Active; 'I' for Inactive)
REMARK    1  A    between atoms: C_2  and  O_3 
REMARK    2  A    between atoms: O_3  and  C_4 
REMARK    3  A    between atoms: C_9  and  N_10 
REMARK    4  A    between atoms: C_11  and  N_12 
REMARK    5  A    between atoms: C_20  and  S_21 
REMARK    6  A    between atoms: S_21  and  C_22 
REMARK    7  A    between atoms: C_22  and  C_23 
REMARK       I    between atoms: C_23  and  N_25 
REMARK    8  A    between atoms: N_25  and  C_26 
ROOT
ATOM      1  N   UNL d   1      30.331 -16.403  -5.047  0.00  0.00    -0.296 N 
ATOM      2  C   UNL d   1      30.460 -17.177  -3.911  0.00  0.00     0.141 A 
ATOM      3  C   UNL d   1      30.024 -16.584  -2.688  0.00  0.00     0.085 A 
ATOM      4  C   UNL d   1      29.979 -16.958  -1.414  0.00  0.00     0.071 A 
ATOM      5  C   UNL d   1      30.380 -18.295  -0.895  0.00  0.00     0.073 C 
ATOM      6  N   UNL d   1      29.533 -15.941  -0.616  0.00  0.00    -0.152 NA
ATOM      7  N   UNL d   1      29.306 -14.909  -1.330  0.00  0.00    -0.129 NA
ATOM      8  C   UNL d   1      29.585 -15.222  -2.644  0.00  0.00     0.185 A 
ATOM      9  N   UNL d   1      29.494 -14.420  -3.646  0.00  0.00    -0.232 NA
ATOM     10  C   UNL d   1      29.805 -15.009  -4.995  0.00  0.00     0.281 A 
ENDROOT
BRANCH  10  11
ATOM     11  S   UNL d   1      28.352 -14.807  -6.102  0.00  0.00    -0.111 SA
BRANCH  11  12
ATOM     12  C   UNL d   1      27.165 -13.776  -5.135  0.00  0.00     0.181 C 
BRANCH  12  13
ATOM     13  C   UNL d   1      26.276 -14.692  -4.313  0.00  0.00     0.231 C 
ATOM     14  O   UNL d   1      25.155 -15.018  -4.701  0.00  0.00    -0.272 OA
ATOM     15  N   UNL d   1      26.769 -15.037  -3.055  0.00  0.00    -0.327 N 
ATOM     16  H   UNL d   1      27.531 -14.511  -2.645  0.00  0.00     0.169 HD
BRANCH  15  17
ATOM     17  C   UNL d   1      25.976 -15.830  -2.193  0.00  0.00     0.034 A 
ATOM     18  C   UNL d   1      24.615 -15.575  -2.041  0.00  0.00     0.030 A 
ATOM     19  C   UNL d   1      23.846 -16.393  -1.200  0.00  0.00     0.009 A 
ATOM     20  C   UNL d   1      24.421 -17.490  -0.544  0.00  0.00    -0.062 A 
ATOM     21  C   UNL d   1      23.579 -18.460   0.231  0.00  0.00     0.048 C 
ATOM     22  C   UNL d   1      25.793 -17.714  -0.672  0.00  0.00     0.009 A 
ATOM     23  C   UNL d   1      26.559 -16.890  -1.491  0.00  0.00     0.030 A 
ENDBRANCH  15  17
ENDBRANCH  12  13
ENDBRANCH  11  12
ENDBRANCH  10  11
BRANCH   1  24
ATOM     24  C   UNL d   1      31.063 -16.831  -6.158  0.00  0.00     0.072 A 
ATOM     25  C   UNL d   1      31.907 -15.842  -6.736  0.00  0.00     0.033 A 
ATOM     26  C   UNL d   1      32.718 -16.115  -7.819  0.00  0.00     0.002 A 
ATOM     27  C   UNL d   1      32.668 -17.385  -8.368  0.00  0.00     0.003 A 
ATOM     28  C   UNL d   1      31.779 -18.350  -7.862  0.00  0.00     0.039 A 
ATOM     29  C   UNL d   1      30.971 -18.093  -6.747  0.00  0.00     0.095 A 
BRANCH  29  30
ATOM     30  O   UNL d   1      30.237 -19.151  -6.277  0.00  0.00    -0.349 OA
BRANCH  30  31
ATOM     31  C   UNL d   1      30.780 -20.471  -6.402  0.00  0.00     0.171 C 
ATOM     32  C   UNL d   1      30.780 -21.137  -5.037  0.00  0.00     0.034 C 
ENDBRANCH  30  31
ENDBRANCH  29  30
ENDBRANCH   1  24
BRANCH   2  33
ATOM     33  N   UNL d   1      30.994 -18.359  -3.839  0.00  0.00    -0.283 NA
ATOM     34  H   UNL d   1      30.957 -18.853  -4.729  0.00  0.00     0.188 HD
ENDBRANCH   2  33
TORSDOF 8
ENDMDL
MODEL 7
REMARK VINA RESULT:    -6.680      3.459      5.903
REMARK INTER + INTRA:         -12.426
REMARK INTER:                  -9.066
REMARK INTRA:                  -3.360
REMARK CONF_INDEPENDENT:        2.386
REMARK UNBOUND:                -3.360
REMARK  8 active torsions:
REMARK  status: ('A' for Active; 'I' for Inactive)
REMARK    1  A    between atoms: C_2  and  O_3 
REMARK    2  A    between atoms: O_3  and  C_4 
REMARK    3  A    between atoms: C_9  and  N_10 
REMARK    4  A    between atoms: C_11  and  N_12 
REMARK    5  A    between atoms: C_20  and  S_21 
REMARK    6  A    between atoms: S_21  and  C_22 
REMARK    7  A    between atoms: C_22  and  C_23 
REMARK       I    between atoms: C_23  and  N_25 
REMARK    8  A    between atoms: N_25  and  C_26 
ROOT
ATOM      1  N   UNL d   1      26.032 -14.877  -1.473  0.00  0.00    -0.296 N 
ATOM      2  C   UNL d   1      24.843 -15.578  -1.476  0.00  0.00     0.141 A 
ATOM      3  C   UNL d   1      24.871 -16.875  -0.881  0.00  0.00     0.085 A 
ATOM      4  C   UNL d   1      23.991 -17.851  -0.687  0.00  0.00     0.071 A 
ATOM      5  C   UNL d   1      22.547 -17.791  -1.047  0.00  0.00     0.073 C 
ATOM      6  N   UNL d   1      24.585 -18.949  -0.126  0.00  0.00    -0.152 NA
ATOM      7  N   UNL d   1      25.830 -18.724   0.031  0.00  0.00    -0.129 NA
ATOM      8  C   UNL d   1      26.099 -17.446  -0.414  0.00  0.00     0.185 A 
ATOM      9  N   UNL d   1      27.255 -16.881  -0.432  0.00  0.00    -0.232 NA
ATOM     10  C   UNL d   1      27.288 -15.458  -0.918  0.00  0.00     0.281 A 
ENDROOT
BRANCH  10  11
ATOM     11  S   UNL d   1      27.995 -14.379   0.392  0.00  0.00    -0.111 SA
BRANCH  11  12
ATOM     12  C   UNL d   1      29.759 -14.903   0.530  0.00  0.00     0.181 C 
BRANCH  12  13
ATOM     13  C   UNL d   1      30.198 -15.502  -0.795  0.00  0.00     0.231 C 
ATOM     14  O   UNL d   1      30.617 -14.797  -1.712  0.00  0.00    -0.272 OA
ATOM     15  N   UNL d   1      29.987 -16.873  -0.933  0.00  0.00    -0.327 N 
ATOM     16  H   UNL d   1      29.364 -17.359  -0.299  0.00  0.00     0.169 HD
BRANCH  15  17
ATOM     17  C   UNL d   1      30.302 -17.503  -2.159  0.00  0.00     0.034 A 
ATOM     18  C   UNL d   1      31.126 -18.627  -2.194  0.00  0.00     0.030 A 
ATOM     19  C   UNL d   1      31.401 -19.248  -3.420  0.00  0.00     0.009 A 
ATOM     20  C   UNL d   1      30.824 -18.778  -4.608  0.00  0.00    -0.062 A 
ATOM     21  C   UNL d   1      30.985 -19.526  -5.898  0.00  0.00     0.048 C 
ATOM     22  C   UNL d   1      30.032 -17.630  -4.569  0.00  0.00     0.009 A 
ATOM     23  C   UNL d   1      29.775 -17.002  -3.354  0.00  0.00     0.030 A 
ENDBRANCH  15  17
ENDBRANCH  12  13
ENDBRANCH  11  12
ENDBRANCH  10  11
BRANCH   1  24
ATOM     24  C   UNL d   1      26.094 -13.786  -2.344  0.00  0.00     0.072 A 
ATOM     25  C   UNL d   1      26.614 -12.591  -1.773  0.00  0.00     0.033 A 
ATOM     26  C   UNL d   1      26.769 -11.435  -2.510  0.00  0.00     0.002 A 
ATOM     27  C   UNL d   1      26.368 -11.447  -3.835  0.00  0.00     0.003 A 
ATOM     28  C   UNL d   1      25.775 -12.594  -4.394  0.00  0.00     0.039 A 
ATOM     29  C   UNL d   1      25.637 -13.781  -3.663  0.00  0.00     0.095 A 
BRANCH  29  30
ATOM     30  O   UNL d   1      25.155 -14.862  -4.354  0.00  0.00    -0.349 OA
BRANCH  30  31
ATOM     31  C   UNL d   1      26.045 -15.574  -5.222  0.00  0.00     0.171 C 
ATOM     32  C   UNL d   1      27.476 -15.200  -4.877  0.00  0.00     0.034 C 
ENDBRANCH  30  31
ENDBRANCH  29  30
ENDBRANCH   1  24
BRANCH   2  33
ATOM     33  N   UNL d   1      23.726 -15.201  -2.020  0.00  0.00    -0.283 NA
ATOM     34  H   UNL d   1      23.823 -15.029  -3.019  0.00  0.00     0.188 HD
ENDBRANCH   2  33
TORSDOF 8
ENDMDL
MODEL 8
REMARK VINA RESULT:    -6.455      3.077      8.253
REMARK INTER + INTRA:         -12.386
REMARK INTER:                  -8.842
REMARK INTRA:                  -3.544
REMARK CONF_INDEPENDENT:        2.386
REMARK UNBOUND:                -3.544
REMARK  8 active torsions:
REMARK  status: ('A' for Active; 'I' for Inactive)
REMARK    1  A    between atoms: C_2  and  O_3 
REMARK    2  A    between atoms: O_3  and  C_4 
REMARK    3  A    between atoms: C_9  and  N_10 
REMARK    4  A    between atoms: C_11  and  N_12 
REMARK    5  A    between atoms: C_20  and  S_21 
REMARK    6  A    between atoms: S_21  and  C_22 
REMARK    7  A    between atoms: C_22  and  C_23 
REMARK       I    between atoms: C_23  and  N_25 
REMARK    8  A    between atoms: N_25  and  C_26 
ROOT
ATOM      1  N   UNL d   1      26.643 -15.069  -0.795  0.00  0.00    -0.296 N 
ATOM      2  C   UNL d   1      27.429 -14.700   0.277  0.00  0.00     0.141 A 
ATOM      3  C   UNL d   1      28.412 -13.696   0.026  0.00  0.00     0.085 A 
ATOM      4  C   UNL d   1      29.347 -13.080   0.743  0.00  0.00     0.071 A 
ATOM      5  C   UNL d   1      29.587 -13.282   2.198  0.00  0.00     0.073 C 
ATOM      6  N   UNL d   1      30.091 -12.238  -0.036  0.00  0.00    -0.152 NA
ATOM      7  N   UNL d   1      29.684 -12.303  -1.242  0.00  0.00    -0.129 NA
ATOM      8  C   UNL d   1      28.630 -13.192  -1.296  0.00  0.00     0.185 A 
ATOM      9  N   UNL d   1      27.981 -13.529  -2.355  0.00  0.00    -0.232 NA
ATOM     10  C   UNL d   1      26.835 -14.483  -2.152  0.00  0.00     0.281 A 
ENDROOT
BRANCH  10  11
ATOM     11  S   UNL d   1      25.284 -13.716  -2.770  0.00  0.00    -0.111 SA
BRANCH  11  12
ATOM     12  C   UNL d   1      25.527 -13.568  -4.593  0.00  0.00     0.181 C 
BRANCH  12  13
ATOM     13  C   UNL d   1      26.517 -14.627  -5.044  0.00  0.00     0.231 C 
ATOM     14  O   UNL d   1      26.146 -15.746  -5.395  0.00  0.00    -0.272 OA
ATOM     15  N   UNL d   1      27.863 -14.281  -4.923  0.00  0.00    -0.327 N 
ATOM     16  H   UNL d   1      28.136 -13.493  -4.348  0.00  0.00     0.169 HD
BRANCH  15  17
ATOM     17  C   UNL d   1      28.855 -15.232  -5.255  0.00  0.00     0.034 A 
ATOM     18  C   UNL d   1      29.261 -16.192  -4.329  0.00  0.00     0.030 A 
ATOM     19  C   UNL d   1      30.228 -17.140  -4.692  0.00  0.00     0.009 A 
ATOM     20  C   UNL d   1      30.762 -17.161  -5.987  0.00  0.00    -0.062 A 
ATOM     21  C   UNL d   1      31.678 -18.263  -6.432  0.00  0.00     0.048 C 
ATOM     22  C   UNL d   1      30.379 -16.173  -6.895  0.00  0.00     0.009 A 
ATOM     23  C   UNL d   1      29.433 -15.220  -6.528  0.00  0.00     0.030 A 
ENDBRANCH  15  17
ENDBRANCH  12  13
ENDBRANCH  11  12
ENDBRANCH  10  11
BRANCH   1  24
ATOM     24  C   UNL d   1      25.941 -16.268  -0.647  0.00  0.00     0.072 A 
ATOM     25  C   UNL d   1      24.555 -16.195  -0.961  0.00  0.00     0.033 A 
ATOM     26  C   UNL d   1      23.730 -17.299  -0.895  0.00  0.00     0.002 A 
ATOM     27  C   UNL d   1      24.278 -18.499  -0.475  0.00  0.00     0.003 A 
ATOM     28  C   UNL d   1      25.627 -18.572  -0.081  0.00  0.00     0.039 A 
ATOM     29  C   UNL d   1      26.479 -17.464  -0.169  0.00  0.00     0.095 A 
BRANCH  29  30
ATOM     30  O   UNL d   1      27.797 -17.693   0.131  0.00  0.00    -0.349 OA
BRANCH  30  31
ATOM     31  C   UNL d   1      28.783 -17.450  -0.881  0.00  0.00     0.171 C 
ATOM     32  C   UNL d   1      30.004 -16.816  -0.239  0.00  0.00     0.034 C 
ENDBRANCH  30  31
ENDBRANCH  29  30
ENDBRANCH   1  24
BRANCH   2  33
ATOM     33  N   UNL d   1      27.405 -15.220   1.468  0.00  0.00    -0.283 NA
ATOM     34  H   UNL d   1      28.008 -16.036   1.544  0.00  0.00     0.188 HD
ENDBRANCH   2  33
TORSDOF 8
ENDMDL
MODEL 9
REMARK VINA RESULT:    -6.391      4.943      7.031
REMARK INTER + INTRA:         -12.365
REMARK INTER:                  -8.778
REMARK INTRA:                  -3.587
REMARK CONF_INDEPENDENT:        2.386
REMARK UNBOUND:                -3.587
REMARK  8 active torsions:
REMARK  status: ('A' for Active; 'I' for Inactive)
REMARK    1  A    between atoms: C_2  and  O_3 
REMARK    2  A    between atoms: O_3  and  C_4 
REMARK    3  A    between atoms: C_9  and  N_10 
REMARK    4  A    between atoms: C_11  and  N_12 
REMARK    5  A    between atoms: C_20  and  S_21 
REMARK    6  A    between atoms: S_21  and  C_22 
REMARK    7  A    between atoms: C_22  and  C_23 
REMARK       I    between atoms: C_23  and  N_25 
REMARK    8  A    between atoms: N_25  and  C_26 
ROOT
ATOM      1  N   UNL d   1      28.896 -13.668  -5.511  0.00  0.00    -0.296 N 
ATOM      2  C   UNL d   1      28.041 -12.733  -4.963  0.00  0.00     0.141 A 
ATOM      3  C   UNL d   1      26.752 -13.206  -4.572  0.00  0.00     0.085 A 
ATOM      4  C   UNL d   1      25.664 -12.666  -4.034  0.00  0.00     0.071 A 
ATOM      5  C   UNL d   1      25.533 -11.247  -3.601  0.00  0.00     0.073 C 
ATOM      6  N   UNL d   1      24.651 -13.580  -3.945  0.00  0.00    -0.152 NA
ATOM      7  N   UNL d   1      25.039 -14.693  -4.428  0.00  0.00    -0.129 NA
ATOM      8  C   UNL d   1      26.348 -14.552  -4.844  0.00  0.00     0.185 A 
ATOM      9  N   UNL d   1      27.063 -15.463  -5.404  0.00  0.00    -0.232 NA
ATOM     10  C   UNL d   1      28.484 -15.085  -5.723  0.00  0.00     0.281 A 
ENDROOT
BRANCH  10  11
ATOM     11  S   UNL d   1      29.632 -16.244  -4.876  0.00  0.00    -0.111 SA
BRANCH  11  12
ATOM     12  C   UNL d   1      29.692 -15.652  -3.129  0.00  0.00     0.181 C 
BRANCH  12  13
ATOM     13  C   UNL d   1      28.662 -16.416  -2.316  0.00  0.00     0.231 C 
ATOM     14  O   UNL d   1      28.964 -17.426  -1.683  0.00  0.00    -0.272 OA
ATOM     15  N   UNL d   1      27.349 -15.961  -2.432  0.00  0.00    -0.327 N 
ATOM     16  H   UNL d   1      27.090 -15.341  -3.190  0.00  0.00     0.169 HD
BRANCH  15  17
ATOM     17  C   UNL d   1      26.314 -16.656  -1.765  0.00  0.00     0.034 A 
ATOM     18  C   UNL d   1      26.503 -17.154  -0.477  0.00  0.00     0.030 A 
ATOM     19  C   UNL d   1      25.452 -17.816   0.172  0.00  0.00     0.009 A 
ATOM     20  C   UNL d   1      24.198 -17.946  -0.441  0.00  0.00    -0.062 A 
ATOM     21  C   UNL d   1      23.025 -18.512   0.303  0.00  0.00     0.048 C 
ATOM     22  C   UNL d   1      24.029 -17.479  -1.745  0.00  0.00     0.009 A 
ATOM     23  C   UNL d   1      25.080 -16.839  -2.397  0.00  0.00     0.030 A 
ENDBRANCH  15  17
ENDBRANCH  12  13
ENDBRANCH  11  12
ENDBRANCH  10  11
BRANCH   1  24
ATOM     24  C   UNL d   1      29.996 -13.151  -6.202  0.00  0.00     0.072 A 
ATOM     25  C   UNL d   1      30.013 -13.432  -7.597  0.00  0.00     0.033 A 
ATOM     26  C   UNL d   1      31.015 -12.967  -8.424  0.00  0.00     0.002 A 
ATOM     27  C   UNL d   1      32.044 -12.236  -7.856  0.00  0.00     0.003 A 
ATOM     28  C   UNL d   1      32.087 -12.019  -6.467  0.00  0.00     0.039 A 
ATOM     29  C   UNL d   1      31.063 -12.464  -5.621  0.00  0.00     0.095 A 
BRANCH  29  30
ATOM     30  O   UNL d   1      31.160 -12.087  -4.307  0.00  0.00    -0.349 OA
BRANCH  30  31
ATOM     31  C   UNL d   1      32.090 -12.777  -3.463  0.00  0.00     0.171 C 
ATOM     32  C   UNL d   1      31.436 -13.039  -2.118  0.00  0.00     0.034 C 
ENDBRANCH  30  31
ENDBRANCH  29  30
ENDBRANCH   1  24
BRANCH   2  33
ATOM     33  N   UNL d   1      28.271 -11.462  -4.829  0.00  0.00    -0.283 NA
ATOM     34  H   UNL d   1      29.267 -11.249  -4.824  0.00  0.00     0.188 HD
ENDBRANCH   2  33
TORSDOF 8
ENDMDL
