MODEL 1
REMARK VINA RESULT:    -8.843      0.000      0.000
REMARK INTER + INTRA:         -10.821
REMARK INTER:                  -9.738
REMARK INTRA:                  -1.083
REMARK CONF_INDEPENDENT:        0.895
REMARK UNBOUND:                -1.083
REMARK  3 active torsions:
REMARK  status: ('A' for Active; 'I' for Inactive)
REMARK       I    between atoms: C_2  and  N_3 
REMARK    1  A    between atoms: C_2  and  C_15 
REMARK    2  A    between atoms: N_3  and  N_4 
REMARK       I    between atoms: N_4  and  C_5 
REMARK    3  A    between atoms: C_5  and  C_7 
ROOT
ATOM      1  N   UNL d   1      23.332 -17.993  -0.756  0.00  0.00    -0.263 N 
ATOM      2  C   UNL d   1      24.631 -17.926  -0.276  0.00  0.00     0.273 C 
ATOM      3  O   UNL d   1      25.015 -18.545   0.718  0.00  0.00    -0.266 OA
ATOM      4  H   UNL d   1      23.015 -17.525  -1.605  0.00  0.00     0.190 HD
ENDROOT
BRANCH   1   5
ATOM      5  N   UNL d   1      22.353 -18.768  -0.068  0.00  0.00    -0.263 N 
ATOM      6  C   UNL d   1      21.016 -18.612  -0.410  0.00  0.00     0.270 C 
ATOM      7  O   UNL d   1      20.641 -17.813  -1.270  0.00  0.00    -0.266 OA
ATOM      8  H   UNL d   1      22.702 -19.512   0.534  0.00  0.00     0.190 HD
BRANCH   6   9
ATOM      9  C   UNL d   1      20.013 -19.497   0.264  0.00  0.00     0.033 A 
ATOM     10  C   UNL d   1      20.021 -19.741   1.643  0.00  0.00     0.017 A 
ATOM     11  C   UNL d   1      19.069 -20.603   2.212  0.00  0.00     0.001 A 
ATOM     12  C   UNL d   1      18.067 -21.172   1.424  0.00  0.00     0.000 A 
ATOM     13  C   UNL d   1      18.032 -20.907   0.057  0.00  0.00     0.001 A 
ATOM     14  C   UNL d   1      19.000 -20.074  -0.520  0.00  0.00     0.017 A 
ENDBRANCH   6   9
ENDBRANCH   1   5
BRANCH   2  15
ATOM     15  C   UNL d   1      25.609 -17.102  -1.043  0.00  0.00     0.073 A 
ATOM     16  C   UNL d   1      25.166 -16.326  -2.128  0.00  0.00     0.044 A 
ATOM     17  C   UNL d   1      26.076 -15.540  -2.848  0.00  0.00     0.035 A 
ATOM     18 CL   UNL d   1      25.528 -14.556  -4.151  0.00  0.00    -0.084 Cl
ATOM     19  C   UNL d   1      27.430 -15.534  -2.516  0.00  0.00     0.027 A 
ATOM     20  C   UNL d   1      27.880 -16.331  -1.463  0.00  0.00     0.045 A 
ATOM     21  C   UNL d   1      26.972 -17.111  -0.738  0.00  0.00     0.132 A 
ATOM     22  F   UNL d   1      27.446 -17.887   0.245  0.00  0.00    -0.205 F 
ENDBRANCH   2  15
TORSDOF 3
ENDMDL
MODEL 2
REMARK VINA RESULT:    -8.465      1.675      2.260
REMARK INTER + INTRA:         -10.384
REMARK INTER:                  -9.360
REMARK INTRA:                  -1.024
REMARK CONF_INDEPENDENT:        0.895
REMARK UNBOUND:                -1.024
REMARK  3 active torsions:
REMARK  status: ('A' for Active; 'I' for Inactive)
REMARK       I    between atoms: C_2  and  N_3 
REMARK    1  A    between atoms: C_2  and  C_15 
REMARK    2  A    between atoms: N_3  and  N_4 
REMARK       I    between atoms: N_4  and  C_5 
REMARK    3  A    between atoms: C_5  and  C_7 
ROOT
ATOM      1  N   UNL d   1      23.585 -18.151  -0.760  0.00  0.00    -0.263 N 
ATOM      2  C   UNL d   1      24.812 -17.962  -0.143  0.00  0.00     0.273 C 
ATOM      3  O   UNL d   1      25.089 -18.434   0.962  0.00  0.00    -0.266 OA
ATOM      4  H   UNL d   1      23.360 -17.808  -1.694  0.00  0.00     0.190 HD
ENDROOT
BRANCH   1   5
ATOM      5  N   UNL d   1      22.555 -18.882  -0.099  0.00  0.00    -0.263 N 
ATOM      6  C   UNL d   1      21.231 -18.621  -0.432  0.00  0.00     0.270 C 
ATOM      7  O   UNL d   1      20.912 -17.766  -1.259  0.00  0.00    -0.266 OA
ATOM      8  H   UNL d   1      22.852 -19.671   0.472  0.00  0.00     0.190 HD
BRANCH   6   9
ATOM      9  C   UNL d   1      20.170 -19.460   0.211  0.00  0.00     0.033 A 
ATOM     10  C   UNL d   1      19.142 -20.074  -0.517  0.00  0.00     0.017 A 
ATOM     11  C   UNL d   1      18.161 -20.827   0.148  0.00  0.00     0.001 A 
ATOM     12  C   UNL d   1      18.235 -21.029   1.527  0.00  0.00     0.000 A 
ATOM     13  C   UNL d   1      19.273 -20.450   2.253  0.00  0.00     0.001 A 
ATOM     14  C   UNL d   1      20.236 -19.670   1.599  0.00  0.00     0.017 A 
ENDBRANCH   6   9
ENDBRANCH   1   5
BRANCH   2  15
ATOM     15  C   UNL d   1      25.849 -17.192  -0.888  0.00  0.00     0.073 A 
ATOM     16  C   UNL d   1      27.210 -17.421  -0.624  0.00  0.00     0.044 A 
ATOM     17  C   UNL d   1      28.192 -16.710  -1.327  0.00  0.00     0.035 A 
ATOM     18 CL   UNL d   1      29.861 -17.020  -1.036  0.00  0.00    -0.084 Cl
ATOM     19  C   UNL d   1      27.835 -15.752  -2.276  0.00  0.00     0.027 A 
ATOM     20  C   UNL d   1      26.484 -15.495  -2.514  0.00  0.00     0.045 A 
ATOM     21  C   UNL d   1      25.502 -16.209  -1.818  0.00  0.00     0.132 A 
ATOM     22  F   UNL d   1      24.218 -15.912  -2.051  0.00  0.00    -0.205 F 
ENDBRANCH   2  15
TORSDOF 3
ENDMDL
MODEL 3
REMARK VINA RESULT:    -7.911      3.356      8.124
REMARK INTER + INTRA:          -9.818
REMARK INTER:                  -8.806
REMARK INTRA:                  -1.012
REMARK CONF_INDEPENDENT:        0.895
REMARK UNBOUND:                -1.012
REMARK  3 active torsions:
REMARK  status: ('A' for Active; 'I' for Inactive)
REMARK       I    between atoms: C_2  and  N_3 
REMARK    1  A    between atoms: C_2  and  C_15 
REMARK    2  A    between atoms: N_3  and  N_4 
REMARK       I    between atoms: N_4  and  C_5 
REMARK    3  A    between atoms: C_5  and  C_7 
ROOT
ATOM      1  N   UNL d   1      22.416 -18.768  -0.095  0.00  0.00    -0.263 N 
ATOM      2  C   UNL d   1      21.074 -18.604  -0.403  0.00  0.00     0.273 C 
ATOM      3  O   UNL d   1      20.673 -17.825  -1.270  0.00  0.00    -0.266 OA
ATOM      4  H   UNL d   1      22.765 -19.444   0.585  0.00  0.00     0.190 HD
ENDROOT
BRANCH   1   5
ATOM      5  N   UNL d   1      23.405 -17.985  -0.759  0.00  0.00    -0.263 N 
ATOM      6  C   UNL d   1      24.633 -17.794  -0.138  0.00  0.00     0.270 C 
ATOM      7  O   UNL d   1      24.894 -18.256   0.973  0.00  0.00    -0.266 OA
ATOM      8  H   UNL d   1      23.213 -17.734  -1.727  0.00  0.00     0.190 HD
BRANCH   6   9
ATOM      9  C   UNL d   1      25.687 -17.041  -0.890  0.00  0.00     0.033 A 
ATOM     10  C   UNL d   1      27.057 -17.203  -0.646  0.00  0.00     0.017 A 
ATOM     11  C   UNL d   1      27.996 -16.447  -1.368  0.00  0.00     0.001 A 
ATOM     12  C   UNL d   1      27.581 -15.579  -2.379  0.00  0.00     0.000 A 
ATOM     13  C   UNL d   1      26.222 -15.437  -2.651  0.00  0.00     0.001 A 
ATOM     14  C   UNL d   1      25.281 -16.165  -1.911  0.00  0.00     0.017 A 
ENDBRANCH   6   9
ENDBRANCH   1   5
BRANCH   2  15
ATOM     15  C   UNL d   1      20.090 -19.456   0.323  0.00  0.00     0.073 A 
ATOM     16  C   UNL d   1      20.280 -19.731   1.689  0.00  0.00     0.044 A 
ATOM     17  C   UNL d   1      19.354 -20.522   2.382  0.00  0.00     0.035 A 
ATOM     18 CL   UNL d   1      19.563 -20.825   4.064  0.00  0.00    -0.084 Cl
ATOM     19  C   UNL d   1      18.250 -21.066   1.727  0.00  0.00     0.027 A 
ATOM     20  C   UNL d   1      18.077 -20.826   0.362  0.00  0.00     0.045 A 
ATOM     21  C   UNL d   1      18.996 -20.030  -0.330  0.00  0.00     0.132 A 
ATOM     22  F   UNL d   1      18.814 -19.849  -1.644  0.00  0.00    -0.205 F 
ENDBRANCH   2  15
TORSDOF 3
ENDMDL
MODEL 4
REMARK VINA RESULT:    -6.886      1.687      2.135
REMARK INTER + INTRA:          -8.399
REMARK INTER:                  -7.781
REMARK INTRA:                  -0.618
REMARK CONF_INDEPENDENT:        0.895
REMARK UNBOUND:                -0.618
REMARK  3 active torsions:
REMARK  status: ('A' for Active; 'I' for Inactive)
REMARK       I    between atoms: C_2  and  N_3 
REMARK    1  A    between atoms: C_2  and  C_15 
REMARK    2  A    between atoms: N_3  and  N_4 
REMARK       I    between atoms: N_4  and  C_5 
REMARK    3  A    between atoms: C_5  and  C_7 
ROOT
ATOM      1  N   UNL d   1      23.902 -17.142  -0.261  0.00  0.00    -0.263 N 
ATOM      2  C   UNL d   1      23.985 -16.110  -1.183  0.00  0.00     0.273 C 
ATOM      3  O   UNL d   1      22.996 -15.528  -1.634  0.00  0.00    -0.266 OA
ATOM      4  H   UNL d   1      24.713 -17.598   0.157  0.00  0.00     0.190 HD
ENDROOT
BRANCH   1   5
ATOM      5  N   UNL d   1      22.629 -17.612   0.176  0.00  0.00    -0.263 N 
ATOM      6  C   UNL d   1      22.115 -18.773  -0.387  0.00  0.00     0.270 C 
ATOM      7  O   UNL d   1      22.707 -19.402  -1.265  0.00  0.00    -0.266 OA
ATOM      8  H   UNL d   1      22.231 -17.153   0.994  0.00  0.00     0.190 HD
BRANCH   6   9
ATOM      9  C   UNL d   1      20.817 -19.295   0.148  0.00  0.00     0.033 A 
ATOM     10  C   UNL d   1      19.778 -19.740  -0.681  0.00  0.00     0.017 A 
ATOM     11  C   UNL d   1      18.574 -20.194  -0.118  0.00  0.00     0.001 A 
ATOM     12  C   UNL d   1      18.423 -20.271   1.268  0.00  0.00     0.000 A 
ATOM     13  C   UNL d   1      19.464 -19.862   2.098  0.00  0.00     0.001 A 
ATOM     14  C   UNL d   1      20.655 -19.378   1.541  0.00  0.00     0.017 A 
ENDBRANCH   6   9
ENDBRANCH   1   5
BRANCH   2  15
ATOM     15  C   UNL d   1      25.346 -15.662  -1.596  0.00  0.00     0.073 A 
ATOM     16  C   UNL d   1      25.757 -15.823  -2.931  0.00  0.00     0.044 A 
ATOM     17  C   UNL d   1      27.030 -15.395  -3.331  0.00  0.00     0.035 A 
ATOM     18 CL   UNL d   1      27.519 -15.553  -4.975  0.00  0.00    -0.084 Cl
ATOM     19  C   UNL d   1      27.912 -14.829  -2.412  0.00  0.00     0.027 A 
ATOM     20  C   UNL d   1      27.522 -14.701  -1.078  0.00  0.00     0.045 A 
ATOM     21  C   UNL d   1      26.249 -15.120  -0.678  0.00  0.00     0.132 A 
ATOM     22  F   UNL d   1      25.923 -15.010   0.616  0.00  0.00    -0.205 F 
ENDBRANCH   2  15
TORSDOF 3
ENDMDL
MODEL 5
REMARK VINA RESULT:    -6.515      5.481      9.317
REMARK INTER + INTRA:          -8.620
REMARK INTER:                  -7.410
REMARK INTRA:                  -1.209
REMARK CONF_INDEPENDENT:        0.895
REMARK UNBOUND:                -1.209
REMARK  3 active torsions:
REMARK  status: ('A' for Active; 'I' for Inactive)
REMARK       I    between atoms: C_2  and  N_3 
REMARK    1  A    between atoms: C_2  and  C_15 
REMARK    2  A    between atoms: N_3  and  N_4 
REMARK       I    between atoms: N_4  and  C_5 
REMARK    3  A    between atoms: C_5  and  C_7 
ROOT
ATOM      1  N   UNL d   1      25.435 -13.148  -2.827  0.00  0.00    -0.263 N 
ATOM      2  C   UNL d   1      25.177 -14.469  -3.160  0.00  0.00     0.273 C 
ATOM      3  O   UNL d   1      24.782 -14.818  -4.274  0.00  0.00    -0.266 OA
ATOM      4  H   UNL d   1      25.808 -12.851  -1.925  0.00  0.00     0.190 HD
ENDROOT
BRANCH   1   5
ATOM      5  N   UNL d   1      25.202 -12.111  -3.778  0.00  0.00    -0.263 N 
ATOM      6  C   UNL d   1      25.744 -10.854  -3.541  0.00  0.00     0.270 C 
ATOM      7  O   UNL d   1      26.400 -10.594  -2.531  0.00  0.00    -0.266 OA
ATOM      8  H   UNL d   1      24.779 -12.389  -4.661  0.00  0.00     0.190 HD
BRANCH   6   9
ATOM      9  C   UNL d   1      25.561  -9.803  -4.593  0.00  0.00     0.033 A 
ATOM     10  C   UNL d   1      26.093  -9.920  -5.884  0.00  0.00     0.017 A 
ATOM     11  C   UNL d   1      25.909  -8.888  -6.818  0.00  0.00     0.001 A 
ATOM     12  C   UNL d   1      25.138  -7.769  -6.496  0.00  0.00     0.000 A 
ATOM     13  C   UNL d   1      24.577  -7.661  -5.225  0.00  0.00     0.001 A 
ATOM     14  C   UNL d   1      24.787  -8.674  -4.280  0.00  0.00     0.017 A 
ENDBRANCH   6   9
ENDBRANCH   1   5
BRANCH   2  15
ATOM     15  C   UNL d   1      25.444 -15.507  -2.123  0.00  0.00     0.073 A 
ATOM     16  C   UNL d   1      24.394 -16.321  -1.665  0.00  0.00     0.044 A 
ATOM     17  C   UNL d   1      24.639 -17.306  -0.699  0.00  0.00     0.035 A 
ATOM     18 CL   UNL d   1      23.362 -18.333  -0.168  0.00  0.00    -0.084 Cl
ATOM     19  C   UNL d   1      25.914 -17.477  -0.163  0.00  0.00     0.027 A 
ATOM     20  C   UNL d   1      26.952 -16.645  -0.587  0.00  0.00     0.045 A 
ATOM     21  C   UNL d   1      26.712 -15.666  -1.558  0.00  0.00     0.132 A 
ATOM     22  F   UNL d   1      27.725 -14.867  -1.916  0.00  0.00    -0.205 F 
ENDBRANCH   2  15
TORSDOF 3
ENDMDL
MODEL 6
REMARK VINA RESULT:    -6.400      4.547      9.150
REMARK INTER + INTRA:          -8.479
REMARK INTER:                  -7.295
REMARK INTRA:                  -1.184
REMARK CONF_INDEPENDENT:        0.895
REMARK UNBOUND:                -1.184
REMARK  3 active torsions:
REMARK  status: ('A' for Active; 'I' for Inactive)
REMARK       I    between atoms: C_2  and  N_3 
REMARK    1  A    between atoms: C_2  and  C_15 
REMARK    2  A    between atoms: N_3  and  N_4 
REMARK       I    between atoms: N_4  and  C_5 
REMARK    3  A    between atoms: C_5  and  C_7 
ROOT
ATOM      1  N   UNL d   1      26.353 -15.338  -3.383  0.00  0.00    -0.263 N 
ATOM      2  C   UNL d   1      25.174 -15.332  -2.654  0.00  0.00     0.273 C 
ATOM      3  O   UNL d   1      24.299 -14.475  -2.796  0.00  0.00    -0.266 OA
ATOM      4  H   UNL d   1      27.062 -16.068  -3.310  0.00  0.00     0.190 HD
ENDROOT
BRANCH   1   5
ATOM      5  N   UNL d   1      26.623 -14.297  -4.319  0.00  0.00    -0.263 N 
ATOM      6  C   UNL d   1      27.573 -14.517  -5.308  0.00  0.00     0.270 C 
ATOM      7  O   UNL d   1      28.207 -15.569  -5.395  0.00  0.00    -0.266 OA
ATOM      8  H   UNL d   1      25.991 -13.499  -4.306  0.00  0.00     0.190 HD
BRANCH   6   9
ATOM      9  C   UNL d   1      27.779 -13.443  -6.332  0.00  0.00     0.033 A 
ATOM     10  C   UNL d   1      28.541 -13.636  -7.492  0.00  0.00     0.017 A 
ATOM     11  C   UNL d   1      28.718 -12.580  -8.401  0.00  0.00     0.001 A 
ATOM     12  C   UNL d   1      28.086 -11.353  -8.196  0.00  0.00     0.000 A 
ATOM     13  C   UNL d   1      27.299 -11.164  -7.061  0.00  0.00     0.001 A 
ATOM     14  C   UNL d   1      27.146 -12.204  -6.135  0.00  0.00     0.017 A 
ENDBRANCH   6   9
ENDBRANCH   1   5
BRANCH   2  15
ATOM     15  C   UNL d   1      24.949 -16.451  -1.695  0.00  0.00     0.073 A 
ATOM     16  C   UNL d   1      23.658 -16.986  -1.539  0.00  0.00     0.044 A 
ATOM     17  C   UNL d   1      23.440 -18.045  -0.648  0.00  0.00     0.035 A 
ATOM     18 CL   UNL d   1      21.868 -18.731  -0.487  0.00  0.00    -0.084 Cl
ATOM     19  C   UNL d   1      24.488 -18.565   0.112  0.00  0.00     0.027 A 
ATOM     20  C   UNL d   1      25.763 -18.012  -0.013  0.00  0.00     0.045 A 
ATOM     21  C   UNL d   1      25.985 -16.959  -0.908  0.00  0.00     0.132 A 
ATOM     22  F   UNL d   1      27.215 -16.434  -0.976  0.00  0.00    -0.205 F 
ENDBRANCH   2  15
TORSDOF 3
ENDMDL
MODEL 7
REMARK VINA RESULT:    -5.979      6.152      8.279
REMARK INTER + INTRA:          -8.090
REMARK INTER:                  -6.874
REMARK INTRA:                  -1.216
REMARK CONF_INDEPENDENT:        0.895
REMARK UNBOUND:                -1.216
REMARK  3 active torsions:
REMARK  status: ('A' for Active; 'I' for Inactive)
REMARK       I    between atoms: C_2  and  N_3 
REMARK    1  A    between atoms: C_2  and  C_15 
REMARK    2  A    between atoms: N_3  and  N_4 
REMARK       I    between atoms: N_4  and  C_5 
REMARK    3  A    between atoms: C_5  and  C_7 
ROOT
ATOM      1  N   UNL d   1      25.343 -11.881  -3.890  0.00  0.00    -0.263 N 
ATOM      2  C   UNL d   1      25.877 -10.614  -3.709  0.00  0.00     0.273 C 
ATOM      3  O   UNL d   1      26.608 -10.320  -2.761  0.00  0.00    -0.266 OA
ATOM      4  H   UNL d   1      24.778 -12.150  -4.695  0.00  0.00     0.190 HD
ENDROOT
BRANCH   1   5
ATOM      5  N   UNL d   1      25.592 -12.907  -2.931  0.00  0.00    -0.263 N 
ATOM      6  C   UNL d   1      25.086 -14.179  -3.168  0.00  0.00     0.270 C 
ATOM      7  O   UNL d   1      24.411 -14.450  -4.162  0.00  0.00    -0.266 OA
ATOM      8  H   UNL d   1      26.263 -12.690  -2.197  0.00  0.00     0.190 HD
BRANCH   6   9
ATOM      9  C   UNL d   1      25.431 -15.262  -2.192  0.00  0.00     0.033 A 
ATOM     10  C   UNL d   1      26.708 -15.400  -1.631  0.00  0.00     0.017 A 
ATOM     11  C   UNL d   1      26.977 -16.453  -0.742  0.00  0.00     0.001 A 
ATOM     12  C   UNL d   1      25.963 -17.330  -0.354  0.00  0.00     0.000 A 
ATOM     13  C   UNL d   1      24.682 -17.179  -0.882  0.00  0.00     0.001 A 
ATOM     14  C   UNL d   1      24.418 -16.150  -1.795  0.00  0.00     0.017 A 
ENDBRANCH   6   9
ENDBRANCH   1   5
BRANCH   2  15
ATOM     15  C   UNL d   1      25.583  -9.587  -4.749  0.00  0.00     0.073 A 
ATOM     16  C   UNL d   1      24.421  -8.803  -4.645  0.00  0.00     0.044 A 
ATOM     17  C   UNL d   1      24.143  -7.828  -5.612  0.00  0.00     0.035 A 
ATOM     18 CL   UNL d   1      22.742  -6.837  -5.463  0.00  0.00    -0.084 Cl
ATOM     19  C   UNL d   1      24.996  -7.637  -6.698  0.00  0.00     0.027 A 
ATOM     20  C   UNL d   1      26.132  -8.439  -6.825  0.00  0.00     0.045 A 
ATOM     21  C   UNL d   1      26.416  -9.408  -5.857  0.00  0.00     0.132 A 
ATOM     22  F   UNL d   1      27.497 -10.178  -6.029  0.00  0.00    -0.205 F 
ENDBRANCH   2  15
TORSDOF 3
ENDMDL
MODEL 8
REMARK VINA RESULT:    -5.862      4.443      6.177
REMARK INTER + INTRA:          -7.954
REMARK INTER:                  -6.757
REMARK INTRA:                  -1.197
REMARK CONF_INDEPENDENT:        0.895
REMARK UNBOUND:                -1.197
REMARK  3 active torsions:
REMARK  status: ('A' for Active; 'I' for Inactive)
REMARK       I    between atoms: C_2  and  N_3 
REMARK    1  A    between atoms: C_2  and  C_15 
REMARK    2  A    between atoms: N_3  and  N_4 
REMARK       I    between atoms: N_4  and  C_5 
REMARK    3  A    between atoms: C_5  and  C_7 
ROOT
ATOM      1  N   UNL d   1      26.547 -14.576  -3.728  0.00  0.00    -0.263 N 
ATOM      2  C   UNL d   1      26.749 -14.656  -5.098  0.00  0.00     0.273 C 
ATOM      3  O   UNL d   1      26.310 -15.577  -5.790  0.00  0.00    -0.266 OA
ATOM      4  H   UNL d   1      26.862 -13.795  -3.152  0.00  0.00     0.190 HD
ENDROOT
BRANCH   1   5
ATOM      5  N   UNL d   1      25.843 -15.611  -3.045  0.00  0.00    -0.263 N 
ATOM      6  C   UNL d   1      25.556 -15.446  -1.696  0.00  0.00     0.270 C 
ATOM      7  O   UNL d   1      25.905 -14.450  -1.062  0.00  0.00    -0.266 OA
ATOM      8  H   UNL d   1      25.450 -16.352  -3.623  0.00  0.00     0.190 HD
BRANCH   6   9
ATOM      9  C   UNL d   1      24.741 -16.505  -1.020  0.00  0.00     0.033 A 
ATOM     10  C   UNL d   1      25.315 -17.601  -0.362  0.00  0.00     0.017 A 
ATOM     11  C   UNL d   1      24.495 -18.575   0.230  0.00  0.00     0.001 A 
ATOM     12  C   UNL d   1      23.107 -18.430   0.230  0.00  0.00     0.000 A 
ATOM     13  C   UNL d   1      22.530 -17.325  -0.393  0.00  0.00     0.001 A 
ATOM     14  C   UNL d   1      23.342 -16.368  -1.014  0.00  0.00     0.017 A 
ENDBRANCH   6   9
ENDBRANCH   1   5
BRANCH   2  15
ATOM     15  C   UNL d   1      27.489 -13.540  -5.753  0.00  0.00     0.073 A 
ATOM     16  C   UNL d   1      27.067 -12.214  -5.556  0.00  0.00     0.044 A 
ATOM     17  C   UNL d   1      27.763 -11.158  -6.160  0.00  0.00     0.035 A 
ATOM     18 CL   UNL d   1      27.273  -9.530  -5.885  0.00  0.00    -0.084 Cl
ATOM     19  C   UNL d   1      28.863 -11.406  -6.979  0.00  0.00     0.027 A 
ATOM     20  C   UNL d   1      29.263 -12.724  -7.208  0.00  0.00     0.045 A 
ATOM     21  C   UNL d   1      28.574 -13.780  -6.600  0.00  0.00     0.132 A 
ATOM     22  F   UNL d   1      28.968 -15.031  -6.868  0.00  0.00    -0.205 F 
ENDBRANCH   2  15
TORSDOF 3
ENDMDL
