MODEL 1
REMARK VINA RESULT:    -8.489      0.000      0.000
REMARK INTER + INTRA:         -10.521
REMARK INTER:                  -9.683
REMARK INTRA:                  -0.839
REMARK CONF_INDEPENDENT:        1.193
REMARK UNBOUND:                -0.839
REMARK  4 active torsions:
REMARK  status: ('A' for Active; 'I' for Inactive)
REMARK    1  A    between atoms: C_2  and  N_4 
REMARK       I    between atoms: N_4  and  C_5 
REMARK    2  A    between atoms: C_5  and  C_7 
REMARK       I    between atoms: C_7  and  N_9 
REMARK    3  A    between atoms: N_9  and  N_10 
REMARK       I    between atoms: N_10  and  C_11 
REMARK    4  A    between atoms: C_11  and  C_13 
ROOT
ATOM      1  N   UNL d   1      23.210 -17.406  -0.692  0.00  0.00    -0.263 N 
ATOM      2  C   UNL d   1      24.478 -17.629  -0.145  0.00  0.00     0.270 C 
ATOM      3  O   UNL d   1      24.648 -18.354   0.836  0.00  0.00    -0.266 OA
ATOM      4  H   UNL d   1      23.057 -16.901  -1.561  0.00  0.00     0.190 HD
ENDROOT
BRANCH   1   5
ATOM      5  N   UNL d   1      22.056 -18.060  -0.125  0.00  0.00    -0.259 N 
ATOM      6  C   UNL d   1      21.302 -18.971  -0.872  0.00  0.00     0.327 C 
ATOM      7  O   UNL d   1      21.573 -19.325  -2.019  0.00  0.00    -0.261 OA
ATOM      8  H   UNL d   1      21.785 -17.799   0.827  0.00  0.00     0.190 HD
BRANCH   6   9
ATOM      9  C   UNL d   1      20.037 -19.554  -0.154  0.00  0.00     0.311 C 
ATOM     10  N   UNL d   1      20.149 -19.804   1.218  0.00  0.00    -0.349 N 
ATOM     11  H   UNL d   1      21.053 -19.634   1.652  0.00  0.00     0.163 HD
ATOM     12  O   UNL d   1      19.022 -19.755  -0.814  0.00  0.00    -0.262 OA
BRANCH  10  13
ATOM     13  C   UNL d   1      19.040 -20.330   2.032  0.00  0.00     0.076 C 
ATOM     14  C   UNL d   1      18.290 -21.484   1.346  0.00  0.00     0.032 C 
ATOM     15  C   UNL d   1      19.533 -20.825   3.393  0.00  0.00     0.032 C 
ENDBRANCH  10  13
ENDBRANCH   6   9
ENDBRANCH   1   5
BRANCH   2  16
ATOM     16  C   UNL d   1      25.682 -16.961  -0.780  0.00  0.00     0.034 A 
ATOM     17  C   UNL d   1      27.002 -17.268  -0.394  0.00  0.00     0.017 A 
ATOM     18  C   UNL d   1      28.110 -16.732  -1.089  0.00  0.00     0.009 A 
ATOM     19  C   UNL d   1      27.893 -15.899  -2.178  0.00  0.00    -0.052 A 
ATOM     20  C   UNL d   1      26.591 -15.571  -2.565  0.00  0.00    -0.051 A 
ATOM     21  C   UNL d   1      28.905 -15.233  -3.070  0.00  0.00     0.039 C 
ATOM     22  C   UNL d   1      25.488 -16.091  -1.879  0.00  0.00     0.024 A 
ATOM     23  C   UNL d   1      26.620 -14.631  -3.738  0.00  0.00     0.039 C 
ATOM     24  C   UNL d   1      28.040 -14.862  -4.285  0.00  0.00     0.009 C 
ENDBRANCH   2  16
TORSDOF 4
ENDMDL
MODEL 2
REMARK VINA RESULT:    -8.087      0.832      1.870
REMARK INTER + INTRA:         -10.052
REMARK INTER:                  -9.280
REMARK INTRA:                  -0.772
REMARK CONF_INDEPENDENT:        1.193
REMARK UNBOUND:                -0.772
REMARK  4 active torsions:
REMARK  status: ('A' for Active; 'I' for Inactive)
REMARK    1  A    between atoms: C_2  and  N_4 
REMARK       I    between atoms: N_4  and  C_5 
REMARK    2  A    between atoms: C_5  and  C_7 
REMARK       I    between atoms: C_7  and  N_9 
REMARK    3  A    between atoms: N_9  and  N_10 
REMARK       I    between atoms: N_10  and  C_11 
REMARK    4  A    between atoms: C_11  and  C_13 
ROOT
ATOM      1  N   UNL d   1      23.334 -17.215  -0.567  0.00  0.00    -0.263 N 
ATOM      2  C   UNL d   1      24.579 -17.836  -0.431  0.00  0.00     0.270 C 
ATOM      3  O   UNL d   1      24.702 -18.949   0.082  0.00  0.00    -0.266 OA
ATOM      4  H   UNL d   1      23.194 -16.349  -1.081  0.00  0.00     0.190 HD
ENDROOT
BRANCH   1   5
ATOM      5  N   UNL d   1      22.138 -17.895  -0.131  0.00  0.00    -0.259 N 
ATOM      6  C   UNL d   1      21.555 -18.902  -0.907  0.00  0.00     0.327 C 
ATOM      7  O   UNL d   1      22.018 -19.321  -1.967  0.00  0.00    -0.261 OA
ATOM      8  H   UNL d   1      21.710 -17.582   0.745  0.00  0.00     0.190 HD
BRANCH   6   9
ATOM      9  C   UNL d   1      20.223 -19.506  -0.344  0.00  0.00     0.311 C 
ATOM     10  N   UNL d   1      20.183 -19.778   1.027  0.00  0.00    -0.349 N 
ATOM     11  H   UNL d   1      21.031 -19.609   1.562  0.00  0.00     0.163 HD
ATOM     12  O   UNL d   1      19.289 -19.703  -1.117  0.00  0.00    -0.262 OA
BRANCH  10  13
ATOM     13  C   UNL d   1      18.995 -20.326   1.704  0.00  0.00     0.076 C 
ATOM     14  C   UNL d   1      18.409 -21.552   0.984  0.00  0.00     0.032 C 
ATOM     15  C   UNL d   1      19.309 -20.726   3.146  0.00  0.00     0.032 C 
ENDBRANCH  10  13
ENDBRANCH   6   9
ENDBRANCH   1   5
BRANCH   2  16
ATOM     16  C   UNL d   1      25.818 -17.119  -0.930  0.00  0.00     0.034 A 
ATOM     17  C   UNL d   1      25.756 -16.099  -1.901  0.00  0.00     0.017 A 
ATOM     18  C   UNL d   1      26.905 -15.356  -2.255  0.00  0.00     0.009 A 
ATOM     19  C   UNL d   1      28.112 -15.627  -1.625  0.00  0.00    -0.052 A 
ATOM     20  C   UNL d   1      28.196 -16.646  -0.672  0.00  0.00    -0.051 A 
ATOM     21  C   UNL d   1      29.448 -14.963  -1.823  0.00  0.00     0.039 C 
ATOM     22  C   UNL d   1      27.066 -17.393  -0.321  0.00  0.00     0.024 A 
ATOM     23  C   UNL d   1      29.607 -16.770  -0.168  0.00  0.00     0.039 C 
ATOM     24  C   UNL d   1      30.195 -15.400  -0.553  0.00  0.00     0.009 C 
ENDBRANCH   2  16
TORSDOF 4
ENDMDL
MODEL 3
REMARK VINA RESULT:    -7.697      1.677      2.221
REMARK INTER + INTRA:         -10.573
REMARK INTER:                  -8.890
REMARK INTRA:                  -1.683
REMARK CONF_INDEPENDENT:        1.193
REMARK UNBOUND:                -1.683
REMARK  4 active torsions:
REMARK  status: ('A' for Active; 'I' for Inactive)
REMARK    1  A    between atoms: C_2  and  N_4 
REMARK       I    between atoms: N_4  and  C_5 
REMARK    2  A    between atoms: C_5  and  C_7 
REMARK       I    between atoms: C_7  and  N_9 
REMARK    3  A    between atoms: N_9  and  N_10 
REMARK       I    between atoms: N_10  and  C_11 
REMARK    4  A    between atoms: C_11  and  C_13 
ROOT
ATOM      1  N   UNL d   1      24.428 -17.130  -1.791  0.00  0.00    -0.263 N 
ATOM      2  C   UNL d   1      24.795 -15.903  -2.353  0.00  0.00     0.270 C 
ATOM      3  O   UNL d   1      24.000 -14.968  -2.456  0.00  0.00    -0.266 OA
ATOM      4  H   UNL d   1      25.091 -17.877  -1.598  0.00  0.00     0.190 HD
ENDROOT
BRANCH   1   5
ATOM      5  N   UNL d   1      23.093 -17.318  -1.278  0.00  0.00    -0.259 N 
ATOM      6  C   UNL d   1      22.617 -18.590  -0.946  0.00  0.00     0.327 C 
ATOM      7  O   UNL d   1      23.285 -19.622  -1.010  0.00  0.00    -0.261 OA
ATOM      8  H   UNL d   1      22.494 -16.490  -1.208  0.00  0.00     0.190 HD
BRANCH   6   9
ATOM      9  C   UNL d   1      21.127 -18.654  -0.465  0.00  0.00     0.311 C 
ATOM     10  N   UNL d   1      20.801 -19.664   0.445  0.00  0.00    -0.349 N 
ATOM     11  H   UNL d   1      21.536 -20.318   0.702  0.00  0.00     0.163 HD
ATOM     12  O   UNL d   1      20.330 -17.825  -0.895  0.00  0.00    -0.262 OA
BRANCH  10  13
ATOM     13  C   UNL d   1      19.449 -19.837   1.003  0.00  0.00     0.076 C 
ATOM     14  C   UNL d   1      18.606 -20.860   0.223  0.00  0.00     0.032 C 
ATOM     15  C   UNL d   1      19.502 -20.281   2.466  0.00  0.00     0.032 C 
ENDBRANCH  10  13
ENDBRANCH   6   9
ENDBRANCH   1   5
BRANCH   2  16
ATOM     16  C   UNL d   1      26.215 -15.716  -2.850  0.00  0.00     0.034 A 
ATOM     17  C   UNL d   1      27.335 -16.128  -2.100  0.00  0.00     0.017 A 
ATOM     18  C   UNL d   1      28.639 -16.064  -2.639  0.00  0.00     0.009 A 
ATOM     19  C   UNL d   1      28.819 -15.599  -3.935  0.00  0.00    -0.052 A 
ATOM     20  C   UNL d   1      27.722 -15.171  -4.687  0.00  0.00    -0.051 A 
ATOM     21  C   UNL d   1      30.097 -15.458  -4.716  0.00  0.00     0.039 C 
ATOM     22  C   UNL d   1      26.427 -15.223  -4.159  0.00  0.00     0.024 A 
ATOM     23  C   UNL d   1      28.177 -14.679  -6.034  0.00  0.00     0.039 C 
ATOM     24  C   UNL d   1      29.562 -15.339  -6.152  0.00  0.00     0.009 C 
ENDBRANCH   2  16
TORSDOF 4
ENDMDL
MODEL 4
REMARK VINA RESULT:    -7.119      6.003      9.543
REMARK INTER + INTRA:         -10.057
REMARK INTER:                  -8.313
REMARK INTRA:                  -1.744
REMARK CONF_INDEPENDENT:        1.193
REMARK UNBOUND:                -1.744
REMARK  4 active torsions:
REMARK  status: ('A' for Active; 'I' for Inactive)
REMARK    1  A    between atoms: C_2  and  N_4 
REMARK       I    between atoms: N_4  and  C_5 
REMARK    2  A    between atoms: C_5  and  C_7 
REMARK       I    between atoms: C_7  and  N_9 
REMARK    3  A    between atoms: N_9  and  N_10 
REMARK       I    between atoms: N_10  and  C_11 
REMARK    4  A    between atoms: C_11  and  C_13 
ROOT
ATOM      1  N   UNL d   1      25.809 -12.568  -3.261  0.00  0.00    -0.263 N 
ATOM      2  C   UNL d   1      25.420 -13.862  -3.618  0.00  0.00     0.270 C 
ATOM      3  O   UNL d   1      24.780 -14.092  -4.645  0.00  0.00    -0.266 OA
ATOM      4  H   UNL d   1      26.427 -12.366  -2.478  0.00  0.00     0.190 HD
ENDROOT
BRANCH   1   5
ATOM      5  N   UNL d   1      25.493 -11.455  -4.123  0.00  0.00    -0.259 N 
ATOM      6  C   UNL d   1      25.587 -10.137  -3.667  0.00  0.00     0.327 C 
ATOM      7  O   UNL d   1      25.982  -9.813  -2.548  0.00  0.00    -0.261 OA
ATOM      8  H   UNL d   1      25.155 -11.670  -5.066  0.00  0.00     0.190 HD
BRANCH   6   9
ATOM      9  C   UNL d   1      25.148  -9.033  -4.689  0.00  0.00     0.311 C 
ATOM     10  N   UNL d   1      24.780  -7.793  -4.157  0.00  0.00    -0.349 N 
ATOM     11  H   UNL d   1      24.777  -7.700  -3.145  0.00  0.00     0.163 HD
ATOM     12  O   UNL d   1      25.154  -9.299  -5.887  0.00  0.00    -0.262 OA
BRANCH  10  13
ATOM     13  C   UNL d   1      24.366  -6.651  -4.992  0.00  0.00     0.076 C 
ATOM     14  C   UNL d   1      23.091  -6.935  -5.803  0.00  0.00     0.032 C 
ATOM     15  C   UNL d   1      24.124  -5.400  -4.146  0.00  0.00     0.032 C 
ENDBRANCH  10  13
ENDBRANCH   6   9
ENDBRANCH   1   5
BRANCH   2  16
ATOM     16  C   UNL d   1      25.797 -15.021  -2.716  0.00  0.00     0.034 A 
ATOM     17  C   UNL d   1      27.124 -15.245  -2.295  0.00  0.00     0.017 A 
ATOM     18  C   UNL d   1      27.431 -16.251  -1.351  0.00  0.00     0.009 A 
ATOM     19  C   UNL d   1      26.406 -17.021  -0.819  0.00  0.00    -0.052 A 
ATOM     20  C   UNL d   1      25.087 -16.824  -1.236  0.00  0.00    -0.051 A 
ATOM     21  C   UNL d   1      26.490 -18.125   0.201  0.00  0.00     0.039 C 
ATOM     22  C   UNL d   1      24.774 -15.837  -2.177  0.00  0.00     0.024 A 
ATOM     23  C   UNL d   1      24.174 -17.801  -0.549  0.00  0.00     0.039 C 
ATOM     24  C   UNL d   1      25.027 -18.223   0.661  0.00  0.00     0.009 C 
ENDBRANCH   2  16
TORSDOF 4
ENDMDL
MODEL 5
REMARK VINA RESULT:    -6.739      1.587      2.486
REMARK INTER + INTRA:          -9.763
REMARK INTER:                  -7.932
REMARK INTRA:                  -1.831
REMARK CONF_INDEPENDENT:        1.193
REMARK UNBOUND:                -1.831
REMARK  4 active torsions:
REMARK  status: ('A' for Active; 'I' for Inactive)
REMARK    1  A    between atoms: C_2  and  N_4 
REMARK       I    between atoms: N_4  and  C_5 
REMARK    2  A    between atoms: C_5  and  C_7 
REMARK       I    between atoms: C_7  and  N_9 
REMARK    3  A    between atoms: N_9  and  N_10 
REMARK       I    between atoms: N_10  and  C_11 
REMARK    4  A    between atoms: C_11  and  C_13 
ROOT
ATOM      1  N   UNL d   1      24.386 -17.449  -1.700  0.00  0.00    -0.263 N 
ATOM      2  C   UNL d   1      24.872 -16.189  -2.064  0.00  0.00     0.270 C 
ATOM      3  O   UNL d   1      24.149 -15.192  -2.088  0.00  0.00    -0.266 OA
ATOM      4  H   UNL d   1      24.982 -18.262  -1.569  0.00  0.00     0.190 HD
ENDROOT
BRANCH   1   5
ATOM      5  N   UNL d   1      23.007 -17.603  -1.304  0.00  0.00    -0.259 N 
ATOM      6  C   UNL d   1      22.578 -18.732  -0.599  0.00  0.00     0.327 C 
ATOM      7  O   UNL d   1      23.318 -19.639  -0.221  0.00  0.00    -0.261 OA
ATOM      8  H   UNL d   1      22.348 -16.875  -1.596  0.00  0.00     0.190 HD
BRANCH   6   9
ATOM      9  C   UNL d   1      21.043 -18.799  -0.294  0.00  0.00     0.311 C 
ATOM     10  N   UNL d   1      20.631 -19.728   0.667  0.00  0.00    -0.349 N 
ATOM     11  H   UNL d   1      21.344 -20.329   1.072  0.00  0.00     0.163 HD
ATOM     12  O   UNL d   1      20.286 -18.042  -0.895  0.00  0.00    -0.262 OA
BRANCH  10  13
ATOM     13  C   UNL d   1      19.225 -19.891   1.076  0.00  0.00     0.076 C 
ATOM     14  C   UNL d   1      18.434 -20.820   0.140  0.00  0.00     0.032 C 
ATOM     15  C   UNL d   1      19.119 -20.446   2.498  0.00  0.00     0.032 C 
ENDBRANCH  10  13
ENDBRANCH   6   9
ENDBRANCH   1   5
BRANCH   2  16
ATOM     16  C   UNL d   1      26.333 -16.044  -2.439  0.00  0.00     0.034 A 
ATOM     17  C   UNL d   1      26.748 -15.348  -3.593  0.00  0.00     0.017 A 
ATOM     18  C   UNL d   1      28.117 -15.112  -3.852  0.00  0.00     0.009 A 
ATOM     19  C   UNL d   1      29.068 -15.563  -2.948  0.00  0.00    -0.052 A 
ATOM     20  C   UNL d   1      28.677 -16.269  -1.807  0.00  0.00    -0.051 A 
ATOM     21  C   UNL d   1      30.565 -15.416  -3.004  0.00  0.00     0.039 C 
ATOM     22  C   UNL d   1      27.325 -16.514  -1.546  0.00  0.00     0.024 A 
ATOM     23  C   UNL d   1      29.885 -16.680  -1.012  0.00  0.00     0.039 C 
ATOM     24  C   UNL d   1      30.953 -15.709  -1.546  0.00  0.00     0.009 C 
ENDBRANCH   2  16
TORSDOF 4
ENDMDL
MODEL 6
REMARK VINA RESULT:    -6.679      9.239     10.872
REMARK INTER + INTRA:          -9.077
REMARK INTER:                  -7.872
REMARK INTRA:                  -1.205
REMARK CONF_INDEPENDENT:        1.193
REMARK UNBOUND:                -1.205
REMARK  4 active torsions:
REMARK  status: ('A' for Active; 'I' for Inactive)
REMARK    1  A    between atoms: C_2  and  N_4 
REMARK       I    between atoms: N_4  and  C_5 
REMARK    2  A    between atoms: C_5  and  C_7 
REMARK       I    between atoms: C_7  and  N_9 
REMARK    3  A    between atoms: N_9  and  N_10 
REMARK       I    between atoms: N_10  and  C_11 
REMARK    4  A    between atoms: C_11  and  C_13 
ROOT
ATOM      1  N   UNL d   1      31.447 -21.150   1.956  0.00  0.00    -0.263 N 
ATOM      2  C   UNL d   1      31.551 -22.066   0.904  0.00  0.00     0.270 C 
ATOM      3  O   UNL d   1      31.802 -23.256   1.097  0.00  0.00    -0.266 OA
ATOM      4  H   UNL d   1      31.136 -20.190   1.832  0.00  0.00     0.190 HD
ENDROOT
BRANCH   1   5
ATOM      5  N   UNL d   1      31.603 -21.597   3.319  0.00  0.00    -0.259 N 
ATOM      6  C   UNL d   1      31.850 -20.690   4.353  0.00  0.00     0.327 C 
ATOM      7  O   UNL d   1      31.905 -19.469   4.212  0.00  0.00    -0.261 OA
ATOM      8  H   UNL d   1      31.569 -22.606   3.491  0.00  0.00     0.190 HD
BRANCH   6   9
ATOM      9  C   UNL d   1      32.065 -21.320   5.772  0.00  0.00     0.311 C 
ATOM     10  N   UNL d   1      33.290 -21.954   6.001  0.00  0.00    -0.349 N 
ATOM     11  H   UNL d   1      33.943 -22.004   5.224  0.00  0.00     0.163 HD
ATOM     12  O   UNL d   1      31.167 -21.225   6.604  0.00  0.00    -0.262 OA
BRANCH  10  13
ATOM     13  C   UNL d   1      33.646 -22.572   7.290  0.00  0.00     0.076 C 
ATOM     14  C   UNL d   1      34.377 -23.915   7.127  0.00  0.00     0.032 C 
ATOM     15  C   UNL d   1      34.532 -21.648   8.127  0.00  0.00     0.032 C 
ENDBRANCH  10  13
ENDBRANCH   6   9
ENDBRANCH   1   5
BRANCH   2  16
ATOM     16  C   UNL d   1      31.345 -21.581  -0.518  0.00  0.00     0.034 A 
ATOM     17  C   UNL d   1      31.385 -20.214  -0.859  0.00  0.00     0.017 A 
ATOM     18  C   UNL d   1      31.322 -19.795  -2.208  0.00  0.00     0.009 A 
ATOM     19  C   UNL d   1      31.232 -20.748  -3.213  0.00  0.00    -0.052 A 
ATOM     20  C   UNL d   1      31.174 -22.107  -2.892  0.00  0.00    -0.051 A 
ATOM     21  C   UNL d   1      31.170 -20.543  -4.702  0.00  0.00     0.039 C 
ATOM     22  C   UNL d   1      31.228 -22.531  -1.560  0.00  0.00     0.024 A 
ATOM     23  C   UNL d   1      31.041 -22.930  -4.144  0.00  0.00     0.039 C 
ATOM     24  C   UNL d   1      31.535 -21.944  -5.217  0.00  0.00     0.009 C 
ENDBRANCH   2  16
TORSDOF 4
ENDMDL
MODEL 7
REMARK VINA RESULT:    -6.648      5.312      9.921
REMARK INTER + INTRA:          -9.259
REMARK INTER:                  -7.841
REMARK INTRA:                  -1.418
REMARK CONF_INDEPENDENT:        1.193
REMARK UNBOUND:                -1.418
REMARK  4 active torsions:
REMARK  status: ('A' for Active; 'I' for Inactive)
REMARK    1  A    between atoms: C_2  and  N_4 
REMARK       I    between atoms: N_4  and  C_5 
REMARK    2  A    between atoms: C_5  and  C_7 
REMARK       I    between atoms: C_7  and  N_9 
REMARK    3  A    between atoms: N_9  and  N_10 
REMARK       I    between atoms: N_10  and  C_11 
REMARK    4  A    between atoms: C_11  and  C_13 
ROOT
ATOM      1  N   UNL d   1      27.409 -14.085  -3.753  0.00  0.00    -0.263 N 
ATOM      2  C   UNL d   1      26.192 -14.765  -3.640  0.00  0.00     0.270 C 
ATOM      3  O   UNL d   1      25.281 -14.612  -4.455  0.00  0.00    -0.266 OA
ATOM      4  H   UNL d   1      28.211 -14.274  -3.157  0.00  0.00     0.190 HD
ENDROOT
BRANCH   1   5
ATOM      5  N   UNL d   1      27.640 -13.199  -4.867  0.00  0.00    -0.259 N 
ATOM      6  C   UNL d   1      27.838 -13.697  -6.158  0.00  0.00     0.327 C 
ATOM      7  O   UNL d   1      27.785 -14.888  -6.462  0.00  0.00    -0.261 OA
ATOM      8  H   UNL d   1      27.696 -12.196  -4.668  0.00  0.00     0.190 HD
BRANCH   6   9
ATOM      9  C   UNL d   1      28.144 -12.625  -7.260  0.00  0.00     0.311 C 
ATOM     10  N   UNL d   1      28.530 -13.103  -8.516  0.00  0.00    -0.349 N 
ATOM     11  H   UNL d   1      28.630 -14.109  -8.622  0.00  0.00     0.163 HD
ATOM     12  O   UNL d   1      28.027 -11.436  -6.977  0.00  0.00    -0.262 OA
BRANCH  10  13
ATOM     13  C   UNL d   1      28.829 -12.219  -9.656  0.00  0.00     0.076 C 
ATOM     14  C   UNL d   1      27.791 -11.099  -9.832  0.00  0.00     0.032 C 
ATOM     15  C   UNL d   1      30.208 -11.572  -9.513  0.00  0.00     0.032 C 
ENDBRANCH  10  13
ENDBRANCH   6   9
ENDBRANCH   1   5
BRANCH   2  16
ATOM     16  C   UNL d   1      25.985 -15.720  -2.482  0.00  0.00     0.034 A 
ATOM     17  C   UNL d   1      26.900 -15.815  -1.413  0.00  0.00     0.017 A 
ATOM     18  C   UNL d   1      26.622 -16.615  -0.282  0.00  0.00     0.009 A 
ATOM     19  C   UNL d   1      25.422 -17.310  -0.217  0.00  0.00    -0.052 A 
ATOM     20  C   UNL d   1      24.511 -17.240  -1.274  0.00  0.00    -0.051 A 
ATOM     21  C   UNL d   1      24.907 -18.200   0.881  0.00  0.00     0.039 C 
ATOM     22  C   UNL d   1      24.780 -16.457  -2.402  0.00  0.00     0.024 A 
ATOM     23  C   UNL d   1      23.314 -18.104  -0.985  0.00  0.00     0.039 C 
ATOM     24  C   UNL d   1      23.409 -18.263   0.543  0.00  0.00     0.009 C 
ENDBRANCH   2  16
TORSDOF 4
ENDMDL
MODEL 8
REMARK VINA RESULT:    -6.593      2.472      8.760
REMARK INTER + INTRA:          -9.453
REMARK INTER:                  -7.786
REMARK INTRA:                  -1.667
REMARK CONF_INDEPENDENT:        1.193
REMARK UNBOUND:                -1.667
REMARK  4 active torsions:
REMARK  status: ('A' for Active; 'I' for Inactive)
REMARK    1  A    between atoms: C_2  and  N_4 
REMARK       I    between atoms: N_4  and  C_5 
REMARK    2  A    between atoms: C_5  and  C_7 
REMARK       I    between atoms: C_7  and  N_9 
REMARK    3  A    between atoms: N_9  and  N_10 
REMARK       I    between atoms: N_10  and  C_11 
REMARK    4  A    between atoms: C_11  and  C_13 
ROOT
ATOM      1  N   UNL d   1      24.048 -17.799  -0.309  0.00  0.00    -0.263 N 
ATOM      2  C   UNL d   1      23.092 -18.322  -1.186  0.00  0.00     0.270 C 
ATOM      3  O   UNL d   1      23.302 -18.425  -2.395  0.00  0.00    -0.266 OA
ATOM      4  H   UNL d   1      23.940 -17.803   0.702  0.00  0.00     0.190 HD
ENDROOT
BRANCH   1   5
ATOM      5  N   UNL d   1      25.339 -17.393  -0.808  0.00  0.00    -0.259 N 
ATOM      6  C   UNL d   1      26.503 -17.609  -0.065  0.00  0.00     0.327 C 
ATOM      7  O   UNL d   1      26.539 -18.189   1.020  0.00  0.00    -0.261 OA
ATOM      8  H   UNL d   1      25.364 -16.903  -1.707  0.00  0.00     0.190 HD
BRANCH   6   9
ATOM      9  C   UNL d   1      27.826 -17.057  -0.698  0.00  0.00     0.311 C 
ATOM     10  N   UNL d   1      29.027 -17.548  -0.177  0.00  0.00    -0.349 N 
ATOM     11  H   UNL d   1      28.968 -18.194   0.605  0.00  0.00     0.163 HD
ATOM     12  O   UNL d   1      27.749 -16.240  -1.611  0.00  0.00    -0.262 OA
BRANCH  10  13
ATOM     13  C   UNL d   1      30.349 -17.140  -0.685  0.00  0.00     0.076 C 
ATOM     14  C   UNL d   1      31.218 -16.464   0.388  0.00  0.00     0.032 C 
ATOM     15  C   UNL d   1      31.125 -18.334  -1.243  0.00  0.00     0.032 C 
ENDBRANCH  10  13
ENDBRANCH   6   9
ENDBRANCH   1   5
BRANCH   2  16
ATOM     16  C   UNL d   1      21.756 -18.778  -0.633  0.00  0.00     0.034 A 
ATOM     17  C   UNL d   1      20.685 -19.153  -1.469  0.00  0.00     0.017 A 
ATOM     18  C   UNL d   1      19.497 -19.700  -0.933  0.00  0.00     0.009 A 
ATOM     19  C   UNL d   1      19.388 -19.881   0.438  0.00  0.00    -0.052 A 
ATOM     20  C   UNL d   1      20.433 -19.499   1.284  0.00  0.00    -0.051 A 
ATOM     21  C   UNL d   1      18.240 -20.453   1.225  0.00  0.00     0.039 C 
ATOM     22  C   UNL d   1      21.611 -18.950   0.764  0.00  0.00     0.024 A 
ATOM     23  C   UNL d   1      20.062 -19.760   2.718  0.00  0.00     0.039 C 
ATOM     24  C   UNL d   1      18.923 -20.783   2.562  0.00  0.00     0.009 C 
ENDBRANCH   2  16
TORSDOF 4
ENDMDL
MODEL 9
REMARK VINA RESULT:    -6.533      2.345      8.873
REMARK INTER + INTRA:          -9.649
REMARK INTER:                  -7.726
REMARK INTRA:                  -1.922
REMARK CONF_INDEPENDENT:        1.193
REMARK UNBOUND:                -1.922
REMARK  4 active torsions:
REMARK  status: ('A' for Active; 'I' for Inactive)
REMARK    1  A    between atoms: C_2  and  N_4 
REMARK       I    between atoms: N_4  and  C_5 
REMARK    2  A    between atoms: C_5  and  C_7 
REMARK       I    between atoms: C_7  and  N_9 
REMARK    3  A    between atoms: N_9  and  N_10 
REMARK       I    between atoms: N_10  and  C_11 
REMARK    4  A    between atoms: C_11  and  C_13 
ROOT
ATOM      1  N   UNL d   1      23.621 -16.973  -1.134  0.00  0.00    -0.263 N 
ATOM      2  C   UNL d   1      23.350 -17.969  -0.190  0.00  0.00     0.270 C 
ATOM      3  O   UNL d   1      24.199 -18.353   0.615  0.00  0.00    -0.266 OA
ATOM      4  H   UNL d   1      22.910 -16.565  -1.736  0.00  0.00     0.190 HD
ENDROOT
BRANCH   1   5
ATOM      5  N   UNL d   1      24.916 -16.338  -1.161  0.00  0.00    -0.259 N 
ATOM      6  C   UNL d   1      25.197 -15.307  -2.063  0.00  0.00     0.327 C 
ATOM      7  O   UNL d   1      24.383 -14.829  -2.852  0.00  0.00    -0.261 OA
ATOM      8  H   UNL d   1      25.632 -16.700  -0.525  0.00  0.00     0.190 HD
BRANCH   6   9
ATOM      9  C   UNL d   1      26.663 -14.755  -2.027  0.00  0.00     0.311 C 
ATOM     10  N   UNL d   1      26.952 -13.677  -2.870  0.00  0.00    -0.349 N 
ATOM     11  H   UNL d   1      26.210 -13.350  -3.482  0.00  0.00     0.163 HD
ATOM     12  O   UNL d   1      27.475 -15.279  -1.269  0.00  0.00    -0.262 OA
BRANCH  10  13
ATOM     13  C   UNL d   1      28.278 -13.038  -2.931  0.00  0.00     0.076 C 
ATOM     14  C   UNL d   1      28.881 -12.778  -1.540  0.00  0.00     0.032 C 
ATOM     15  C   UNL d   1      29.270 -13.885  -3.729  0.00  0.00     0.032 C 
ENDBRANCH  10  13
ENDBRANCH   6   9
ENDBRANCH   1   5
BRANCH   2  16
ATOM     16  C   UNL d   1      21.970 -18.595  -0.155  0.00  0.00     0.034 A 
ATOM     17  C   UNL d   1      21.275 -18.949  -1.330  0.00  0.00     0.017 A 
ATOM     18  C   UNL d   1      20.050 -19.651  -1.270  0.00  0.00     0.009 A 
ATOM     19  C   UNL d   1      19.529 -20.009  -0.034  0.00  0.00    -0.052 A 
ATOM     20  C   UNL d   1      20.196 -19.652   1.140  0.00  0.00    -0.051 A 
ATOM     21  C   UNL d   1      18.264 -20.764   0.272  0.00  0.00     0.039 C 
ATOM     22  C   UNL d   1      21.405 -18.950   1.093  0.00  0.00     0.024 A 
ATOM     23  C   UNL d   1      19.417 -20.116   2.340  0.00  0.00     0.039 C 
ATOM     24  C   UNL d   1      18.515 -21.200   1.724  0.00  0.00     0.009 C 
ENDBRANCH   2  16
TORSDOF 4
ENDMDL
