MODEL 1
REMARK VINA RESULT:   -10.674      0.000      0.000
REMARK INTER + INTRA:         -15.018
REMARK INTER:                 -13.061
REMARK INTRA:                  -1.958
REMARK CONF_INDEPENDENT:        2.386
REMARK UNBOUND:                -1.958
REMARK  8 active torsions:
REMARK  status: ('A' for Active; 'I' for Inactive)
REMARK    1  A    between atoms: O_2  and  C_3 
REMARK    2  A    between atoms: C_3  and  C_5 
REMARK    3  A    between atoms: C_8  and  N_9 
REMARK    4  A    between atoms: C_16  and  N_17 
REMARK    5  A    between atoms: N_17  and  C_18 
REMARK    6  A    between atoms: C_18  and  N_20 
REMARK       I    between atoms: N_20  and  C_21 
REMARK    7  A    between atoms: C_21  and  C_23 
REMARK    8  A    between atoms: C_26  and  C_27 
ROOT
ATOM      1  N   UNL d   1      27.831 -15.402  -2.588  0.00  0.00    -0.331 N 
ATOM      2  H   UNL d   1      27.881 -15.331  -1.590  0.00  0.00     0.168 HD
ENDROOT
BRANCH   1   3
ATOM      3  C   UNL d   1      29.053 -15.943  -3.190  0.00  0.00     0.062 A 
ATOM      4  C   UNL d   1      30.098 -16.586  -2.463  0.00  0.00     0.057 A 
ATOM      5  C   UNL d   1      31.178 -17.124  -3.238  0.00  0.00     0.033 A 
ATOM      6  C   UNL d   1      31.286 -16.989  -4.644  0.00  0.00     0.020 A 
ATOM      7  C   UNL d   1      30.297 -16.329  -5.332  0.00  0.00     0.041 A 
ATOM      8  C   UNL d   1      29.251 -15.825  -4.581  0.00  0.00     0.049 A 
BRANCH   4   9
ATOM      9  N   UNL d   1      30.177 -16.678  -1.077  0.00  0.00    -0.376 N 
ATOM     10  C   UNL d   1      29.583 -15.719  -0.147  0.00  0.00     0.150 C 
ATOM     11  C   UNL d   1      30.696 -15.131   0.749  0.00  0.00     0.254 C 
ATOM     12  N   UNL d   1      31.492 -16.229   1.453  0.00  0.00    -0.072 N 
ATOM     13  C   UNL d   1      32.618 -15.647   2.261  0.00  0.00     0.269 C 
ATOM     14  C   UNL d   1      32.003 -17.288   0.457  0.00  0.00     0.254 C 
ATOM     15  H   UNL d   1      30.852 -16.705   2.102  0.00  0.00     0.279 HD
ATOM     16  C   UNL d   1      30.848 -17.824  -0.429  0.00  0.00     0.150 C 
ENDBRANCH   4   9
BRANCH   7  17
ATOM     17  C   UNL d   1      30.181 -16.286  -6.825  0.00  0.00     0.293 C 
ATOM     18  O   UNL d   1      30.504 -17.244  -7.525  0.00  0.00    -0.259 OA
BRANCH  17  19
ATOM     19  O   UNL d   1      29.655 -15.116  -7.279  0.00  0.00    -0.323 OA
ATOM     20  C   UNL d   1      30.445 -13.940  -7.009  0.00  0.00     0.213 C 
ENDBRANCH  17  19
ENDBRANCH   7  17
ENDBRANCH   1   3
BRANCH   1  21
ATOM     21  C   UNL d   1      26.591 -15.086  -3.227  0.00  0.00     0.179 C 
ATOM     22  S   UNL d   1      26.366 -14.054  -4.542  0.00  0.00    -0.040 SA
BRANCH  21  23
ATOM     23  N   UNL d   1      25.455 -15.713  -2.675  0.00  0.00    -0.299 N 
ATOM     24  C   UNL d   1      25.528 -16.532  -1.526  0.00  0.00     0.257 C 
ATOM     25  O   UNL d   1      26.530 -16.882  -0.908  0.00  0.00    -0.267 OA
ATOM     26  H   UNL d   1      24.534 -15.527  -3.039  0.00  0.00     0.171 HD
BRANCH  24  27
ATOM     27  C   UNL d   1      24.335 -17.126  -0.948  0.00  0.00     0.032 A 
ATOM     28  C   UNL d   1      24.448 -18.448  -0.479  0.00  0.00     0.018 A 
ATOM     29  C   UNL d   1      23.306 -19.164  -0.161  0.00  0.00     0.013 A 
ATOM     30  C   UNL d   1      22.053 -18.543  -0.237  0.00  0.00    -0.026 A 
ATOM     31  C   UNL d   1      21.960 -17.243  -0.770  0.00  0.00     0.013 A 
ATOM     32  C   UNL d   1      23.097 -16.535  -1.142  0.00  0.00     0.018 A 
BRANCH  30  33
ATOM     33  C   UNL d   1      20.865 -19.236   0.256  0.00  0.00    -0.026 A 
ATOM     34  C   UNL d   1      19.902 -19.718  -0.647  0.00  0.00     0.012 A 
ATOM     35  C   UNL d   1      18.732 -20.319  -0.184  0.00  0.00     0.001 A 
ATOM     36  C   UNL d   1      18.551 -20.517   1.182  0.00  0.00     0.000 A 
ATOM     37  C   UNL d   1      19.512 -20.070   2.087  0.00  0.00     0.001 A 
ATOM     38  C   UNL d   1      20.658 -19.424   1.627  0.00  0.00     0.012 A 
ENDBRANCH  30  33
ENDBRANCH  24  27
ENDBRANCH  21  23
ENDBRANCH   1  21
TORSDOF 8
ENDMDL
MODEL 2
REMARK VINA RESULT:   -10.537      2.453      4.227
REMARK INTER + INTRA:         -15.041
REMARK INTER:                 -12.923
REMARK INTRA:                  -2.117
REMARK CONF_INDEPENDENT:        2.386
REMARK UNBOUND:                -2.117
REMARK  8 active torsions:
REMARK  status: ('A' for Active; 'I' for Inactive)
REMARK    1  A    between atoms: O_2  and  C_3 
REMARK    2  A    between atoms: C_3  and  C_5 
REMARK    3  A    between atoms: C_8  and  N_9 
REMARK    4  A    between atoms: C_16  and  N_17 
REMARK    5  A    between atoms: N_17  and  C_18 
REMARK    6  A    between atoms: C_18  and  N_20 
REMARK       I    between atoms: N_20  and  C_21 
REMARK    7  A    between atoms: C_21  and  C_23 
REMARK    8  A    between atoms: C_26  and  C_27 
ROOT
ATOM      1  N   UNL d   1      28.026 -15.683  -2.830  0.00  0.00    -0.331 N 
ATOM      2  H   UNL d   1      27.463 -14.859  -2.745  0.00  0.00     0.168 HD
ENDROOT
BRANCH   1   3
ATOM      3  C   UNL d   1      28.683 -15.803  -4.135  0.00  0.00     0.062 A 
ATOM      4  C   UNL d   1      28.389 -14.987  -5.267  0.00  0.00     0.057 A 
ATOM      5  C   UNL d   1      29.195 -15.199  -6.434  0.00  0.00     0.033 A 
ATOM      6  C   UNL d   1      30.193 -16.199  -6.535  0.00  0.00     0.020 A 
ATOM      7  C   UNL d   1      30.439 -17.010  -5.453  0.00  0.00     0.041 A 
ATOM      8  C   UNL d   1      29.669 -16.792  -4.326  0.00  0.00     0.049 A 
BRANCH   4   9
ATOM      9  N   UNL d   1      27.357 -14.056  -5.344  0.00  0.00    -0.376 N 
ATOM     10  C   UNL d   1      27.429 -12.799  -6.088  0.00  0.00     0.150 C 
ATOM     11  C   UNL d   1      27.178 -11.625  -5.116  0.00  0.00     0.254 C 
ATOM     12  N   UNL d   1      25.864 -11.793  -4.355  0.00  0.00    -0.072 N 
ATOM     13  C   UNL d   1      25.670 -10.683  -3.359  0.00  0.00     0.269 C 
ATOM     14  C   UNL d   1      25.770 -13.176  -3.682  0.00  0.00     0.254 C 
ATOM     15  H   UNL d   1      25.101 -11.736  -5.042  0.00  0.00     0.279 HD
ATOM     16  C   UNL d   1      26.053 -14.312  -4.699  0.00  0.00     0.150 C 
ENDBRANCH   4   9
BRANCH   7  17
ATOM     17  C   UNL d   1      31.589 -17.966  -5.350  0.00  0.00     0.293 C 
ATOM     18  O   UNL d   1      32.742 -17.616  -5.591  0.00  0.00    -0.259 OA
BRANCH  17  19
ATOM     19  O   UNL d   1      31.209 -19.205  -4.933  0.00  0.00    -0.323 OA
ATOM     20  C   UNL d   1      30.520 -20.001  -5.918  0.00  0.00     0.213 C 
ENDBRANCH  17  19
ENDBRANCH   7  17
ENDBRANCH   1   3
BRANCH   1  21
ATOM     21  C   UNL d   1      28.185 -16.514  -1.677  0.00  0.00     0.179 C 
ATOM     22  S   UNL d   1      29.632 -16.900  -0.900  0.00  0.00    -0.040 SA
BRANCH  21  23
ATOM     23  N   UNL d   1      26.992 -17.062  -1.162  0.00  0.00    -0.299 N 
ATOM     24  C   UNL d   1      25.740 -16.423  -1.318  0.00  0.00     0.257 C 
ATOM     25  O   UNL d   1      25.507 -15.325  -1.816  0.00  0.00    -0.267 OA
ATOM     26  H   UNL d   1      26.983 -17.974  -0.735  0.00  0.00     0.171 HD
BRANCH  24  27
ATOM     27  C   UNL d   1      24.518 -17.032  -0.821  0.00  0.00     0.032 A 
ATOM     28  C   UNL d   1      24.542 -18.423  -0.613  0.00  0.00     0.018 A 
ATOM     29  C   UNL d   1      23.357 -19.105  -0.396  0.00  0.00     0.013 A 
ATOM     30  C   UNL d   1      22.153 -18.396  -0.310  0.00  0.00    -0.026 A 
ATOM     31  C   UNL d   1      22.145 -17.015  -0.586  0.00  0.00     0.013 A 
ATOM     32  C   UNL d   1      23.324 -16.330  -0.858  0.00  0.00     0.018 A 
BRANCH  30  33
ATOM     33  C   UNL d   1      20.926 -19.085   0.085  0.00  0.00    -0.026 A 
ATOM     34  C   UNL d   1      19.992 -19.480  -0.888  0.00  0.00     0.012 A 
ATOM     35  C   UNL d   1      18.788 -20.076  -0.516  0.00  0.00     0.001 A 
ATOM     36  C   UNL d   1      18.542 -20.358   0.825  0.00  0.00     0.000 A 
ATOM     37  C   UNL d   1      19.474 -19.998   1.797  0.00  0.00     0.001 A 
ATOM     38  C   UNL d   1      20.655 -19.357   1.430  0.00  0.00     0.012 A 
ENDBRANCH  30  33
ENDBRANCH  24  27
ENDBRANCH  21  23
ENDBRANCH   1  21
TORSDOF 8
ENDMDL
MODEL 3
REMARK VINA RESULT:   -10.399      3.146      4.210
REMARK INTER + INTRA:         -14.494
REMARK INTER:                 -12.785
REMARK INTRA:                  -1.709
REMARK CONF_INDEPENDENT:        2.386
REMARK UNBOUND:                -1.709
REMARK  8 active torsions:
REMARK  status: ('A' for Active; 'I' for Inactive)
REMARK    1  A    between atoms: O_2  and  C_3 
REMARK    2  A    between atoms: C_3  and  C_5 
REMARK    3  A    between atoms: C_8  and  N_9 
REMARK    4  A    between atoms: C_16  and  N_17 
REMARK    5  A    between atoms: N_17  and  C_18 
REMARK    6  A    between atoms: C_18  and  N_20 
REMARK       I    between atoms: N_20  and  C_21 
REMARK    7  A    between atoms: C_21  and  C_23 
REMARK    8  A    between atoms: C_26  and  C_27 
ROOT
ATOM      1  N   UNL d   1      27.367 -14.570  -2.393  0.00  0.00    -0.331 N 
ATOM      2  H   UNL d   1      28.152 -15.127  -2.118  0.00  0.00     0.168 HD
ENDROOT
BRANCH   1   3
ATOM      3  C   UNL d   1      27.402 -13.211  -1.845  0.00  0.00     0.062 A 
ATOM      4  C   UNL d   1      28.019 -12.851  -0.611  0.00  0.00     0.057 A 
ATOM      5  C   UNL d   1      28.023 -11.455  -0.281  0.00  0.00     0.033 A 
ATOM      6  C   UNL d   1      27.398 -10.456  -1.066  0.00  0.00     0.020 A 
ATOM      7  C   UNL d   1      26.767 -10.817  -2.232  0.00  0.00     0.041 A 
ATOM      8  C   UNL d   1      26.779 -12.162  -2.552  0.00  0.00     0.049 A 
BRANCH   4   9
ATOM      9  N   UNL d   1      28.558 -13.744   0.311  0.00  0.00    -0.376 N 
ATOM     10  C   UNL d   1      27.778 -14.712   1.081  0.00  0.00     0.150 C 
ATOM     11  C   UNL d   1      28.000 -14.452   2.588  0.00  0.00     0.254 C 
ATOM     12  N   UNL d   1      29.484 -14.459   2.949  0.00  0.00    -0.072 N 
ATOM     13  C   UNL d   1      29.689 -14.130   4.402  0.00  0.00     0.269 C 
ATOM     14  C   UNL d   1      30.296 -13.517   2.039  0.00  0.00     0.254 C 
ATOM     15  H   UNL d   1      29.835 -15.413   2.790  0.00  0.00     0.279 HD
ATOM     16  C   UNL d   1      30.016 -13.809   0.542  0.00  0.00     0.150 C 
ENDBRANCH   4   9
BRANCH   7  17
ATOM     17  C   UNL d   1      26.244  -9.851  -3.252  0.00  0.00     0.293 C 
ATOM     18  O   UNL d   1      25.924  -8.704  -2.948  0.00  0.00    -0.259 OA
BRANCH  17  19
ATOM     19  O   UNL d   1      26.213 -10.376  -4.507  0.00  0.00    -0.323 OA
ATOM     20  C   UNL d   1      25.725  -9.488  -5.533  0.00  0.00     0.213 C 
ENDBRANCH  17  19
ENDBRANCH   7  17
ENDBRANCH   1   3
BRANCH   1  21
ATOM     21  C   UNL d   1      26.438 -15.125  -3.328  0.00  0.00     0.179 C 
ATOM     22  S   UNL d   1      26.538 -15.065  -5.011  0.00  0.00    -0.040 SA
BRANCH  21  23
ATOM     23  N   UNL d   1      25.328 -15.780  -2.754  0.00  0.00    -0.299 N 
ATOM     24  C   UNL d   1      25.424 -16.512  -1.549  0.00  0.00     0.257 C 
ATOM     25  O   UNL d   1      26.431 -16.756  -0.889  0.00  0.00    -0.267 OA
ATOM     26  H   UNL d   1      24.406 -15.676  -3.147  0.00  0.00     0.171 HD
BRANCH  24  27
ATOM     27  C   UNL d   1      24.255 -17.136  -0.952  0.00  0.00     0.032 A 
ATOM     28  C   UNL d   1      24.335 -18.516  -0.696  0.00  0.00     0.018 A 
ATOM     29  C   UNL d   1      23.187 -19.224  -0.379  0.00  0.00     0.013 A 
ATOM     30  C   UNL d   1      21.970 -18.546  -0.242  0.00  0.00    -0.026 A 
ATOM     31  C   UNL d   1      21.902 -17.178  -0.566  0.00  0.00     0.013 A 
ATOM     32  C   UNL d   1      23.040 -16.470  -0.938  0.00  0.00     0.018 A 
BRANCH  30  33
ATOM     33  C   UNL d   1      20.793 -19.255   0.256  0.00  0.00    -0.026 A 
ATOM     34  C   UNL d   1      20.613 -19.446   1.636  0.00  0.00     0.012 A 
ATOM     35  C   UNL d   1      19.530 -20.180   2.117  0.00  0.00     0.001 A 
ATOM     36  C   UNL d   1      18.572 -20.660   1.229  0.00  0.00     0.000 A 
ATOM     37  C   UNL d   1      18.723 -20.452  -0.141  0.00  0.00     0.001 A 
ATOM     38  C   UNL d   1      19.832 -19.762  -0.626  0.00  0.00     0.012 A 
ENDBRANCH  30  33
ENDBRANCH  24  27
ENDBRANCH  21  23
ENDBRANCH   1  21
TORSDOF 8
ENDMDL
MODEL 4
REMARK VINA RESULT:   -10.353      2.719      4.447
REMARK INTER + INTRA:         -14.250
REMARK INTER:                 -12.739
REMARK INTRA:                  -1.511
REMARK CONF_INDEPENDENT:        2.386
REMARK UNBOUND:                -1.511
REMARK  8 active torsions:
REMARK  status: ('A' for Active; 'I' for Inactive)
REMARK    1  A    between atoms: O_2  and  C_3 
REMARK    2  A    between atoms: C_3  and  C_5 
REMARK    3  A    between atoms: C_8  and  N_9 
REMARK    4  A    between atoms: C_16  and  N_17 
REMARK    5  A    between atoms: N_17  and  C_18 
REMARK    6  A    between atoms: C_18  and  N_20 
REMARK       I    between atoms: N_20  and  C_21 
REMARK    7  A    between atoms: C_21  and  C_23 
REMARK    8  A    between atoms: C_26  and  C_27 
ROOT
ATOM      1  N   UNL d   1      28.734 -16.362  -2.458  0.00  0.00    -0.331 N 
ATOM      2  H   UNL d   1      29.374 -17.122  -2.588  0.00  0.00     0.168 HD
ENDROOT
BRANCH   1   3
ATOM      3  C   UNL d   1      28.403 -15.667  -3.706  0.00  0.00     0.062 A 
ATOM      4  C   UNL d   1      29.119 -15.814  -4.930  0.00  0.00     0.057 A 
ATOM      5  C   UNL d   1      28.594 -15.114  -6.066  0.00  0.00     0.033 A 
ATOM      6  C   UNL d   1      27.472 -14.252  -6.014  0.00  0.00     0.020 A 
ATOM      7  C   UNL d   1      26.814 -14.080  -4.820  0.00  0.00     0.041 A 
ATOM      8  C   UNL d   1      27.317 -14.769  -3.731  0.00  0.00     0.049 A 
BRANCH   4   9
ATOM      9  N   UNL d   1      30.304 -16.528  -5.091  0.00  0.00    -0.376 N 
ATOM     10  C   UNL d   1      31.623 -15.919  -5.251  0.00  0.00     0.150 C 
ATOM     11  C   UNL d   1      32.235 -16.392  -6.589  0.00  0.00     0.254 C 
ATOM     12  N   UNL d   1      32.266 -17.916  -6.688  0.00  0.00    -0.072 N 
ATOM     13  C   UNL d   1      32.794 -18.361  -8.024  0.00  0.00     0.269 C 
ATOM     14  C   UNL d   1      30.884 -18.533  -6.395  0.00  0.00     0.254 C 
ATOM     15  H   UNL d   1      32.912 -18.259  -5.965  0.00  0.00     0.279 HD
ATOM     16  C   UNL d   1      30.311 -18.006  -5.054  0.00  0.00     0.150 C 
ENDBRANCH   4   9
BRANCH   7  17
ATOM     17  C   UNL d   1      25.508 -13.364  -4.663  0.00  0.00     0.293 C 
ATOM     18  O   UNL d   1      24.491 -13.950  -4.296  0.00  0.00    -0.259 OA
BRANCH  17  19
ATOM     19  O   UNL d   1      25.601 -12.032  -4.926  0.00  0.00    -0.323 OA
ATOM     20  C   UNL d   1      25.932 -11.203  -3.794  0.00  0.00     0.213 C 
ENDBRANCH  17  19
ENDBRANCH   7  17
ENDBRANCH   1   3
BRANCH   1  21
ATOM     21  C   UNL d   1      28.182 -16.158  -1.155  0.00  0.00     0.179 C 
ATOM     22  S   UNL d   1      28.821 -15.195   0.074  0.00  0.00    -0.040 SA
BRANCH  21  23
ATOM     23  N   UNL d   1      26.982 -16.851  -0.897  0.00  0.00    -0.299 N 
ATOM     24  C   UNL d   1      25.722 -16.360  -1.309  0.00  0.00     0.257 C 
ATOM     25  O   UNL d   1      25.468 -15.286  -1.847  0.00  0.00    -0.267 OA
ATOM     26  H   UNL d   1      26.994 -17.768  -0.478  0.00  0.00     0.171 HD
BRANCH  24  27
ATOM     27  C   UNL d   1      24.505 -17.118  -1.073  0.00  0.00     0.032 A 
ATOM     28  C   UNL d   1      23.306 -16.386  -1.002  0.00  0.00     0.018 A 
ATOM     29  C   UNL d   1      22.157 -16.995  -0.526  0.00  0.00     0.013 A 
ATOM     30  C   UNL d   1      22.180 -18.353  -0.189  0.00  0.00    -0.026 A 
ATOM     31  C   UNL d   1      23.404 -19.047  -0.206  0.00  0.00     0.013 A 
ATOM     32  C   UNL d   1      24.575 -18.430  -0.633  0.00  0.00     0.018 A 
BRANCH  30  33
ATOM     33  C   UNL d   1      20.936 -19.040   0.153  0.00  0.00    -0.026 A 
ATOM     34  C   UNL d   1      20.638 -19.340   1.493  0.00  0.00     0.012 A 
ATOM     35  C   UNL d   1      19.489 -20.055   1.824  0.00  0.00     0.001 A 
ATOM     36  C   UNL d   1      18.584 -20.408   0.826  0.00  0.00     0.000 A 
ATOM     37  C   UNL d   1      18.853 -20.091  -0.505  0.00  0.00     0.001 A 
ATOM     38  C   UNL d   1      20.027 -19.420  -0.840  0.00  0.00     0.012 A 
ENDBRANCH  30  33
ENDBRANCH  24  27
ENDBRANCH  21  23
ENDBRANCH   1  21
TORSDOF 8
ENDMDL
MODEL 5
REMARK VINA RESULT:   -10.333      2.486      9.477
REMARK INTER + INTRA:         -14.383
REMARK INTER:                 -12.719
REMARK INTRA:                  -1.664
REMARK CONF_INDEPENDENT:        2.386
REMARK UNBOUND:                -1.664
REMARK  8 active torsions:
REMARK  status: ('A' for Active; 'I' for Inactive)
REMARK    1  A    between atoms: O_2  and  C_3 
REMARK    2  A    between atoms: C_3  and  C_5 
REMARK    3  A    between atoms: C_8  and  N_9 
REMARK    4  A    between atoms: C_16  and  N_17 
REMARK    5  A    between atoms: N_17  and  C_18 
REMARK    6  A    between atoms: C_18  and  N_20 
REMARK       I    between atoms: N_20  and  C_21 
REMARK    7  A    between atoms: C_21  and  C_23 
REMARK    8  A    between atoms: C_26  and  C_27 
ROOT
ATOM      1  N   UNL d   1      25.268 -15.159  -1.363  0.00  0.00    -0.331 N 
ATOM      2  H   UNL d   1      25.506 -14.537  -0.616  0.00  0.00     0.168 HD
ENDROOT
BRANCH   1   3
ATOM      3  C   UNL d   1      24.792 -16.466  -0.899  0.00  0.00     0.062 A 
ATOM      4  C   UNL d   1      25.553 -17.366  -0.096  0.00  0.00     0.057 A 
ATOM      5  C   UNL d   1      24.887 -18.563   0.329  0.00  0.00     0.033 A 
ATOM      6  C   UNL d   1      23.571 -18.915  -0.059  0.00  0.00     0.020 A 
ATOM      7  C   UNL d   1      22.861 -18.062  -0.869  0.00  0.00     0.041 A 
ATOM      8  C   UNL d   1      23.503 -16.903  -1.264  0.00  0.00     0.049 A 
BRANCH   4   9
ATOM      9  N   UNL d   1      26.891 -17.202   0.252  0.00  0.00    -0.376 N 
ATOM     10  C   UNL d   1      27.406 -16.101   1.065  0.00  0.00     0.150 C 
ATOM     11  C   UNL d   1      28.479 -15.339   0.255  0.00  0.00     0.254 C 
ATOM     12  N   UNL d   1      29.577 -16.274  -0.248  0.00  0.00    -0.072 N 
ATOM     13  C   UNL d   1      30.573 -15.532  -1.096  0.00  0.00     0.269 C 
ATOM     14  C   UNL d   1      28.992 -17.487  -0.997  0.00  0.00     0.254 C 
ATOM     15  H   UNL d   1      30.075 -16.636   0.576  0.00  0.00     0.279 HD
ATOM     16  C   UNL d   1      27.907 -18.198  -0.147  0.00  0.00     0.150 C 
ENDBRANCH   4   9
BRANCH   7  17
ATOM     17  C   UNL d   1      21.404 -18.209  -1.191  0.00  0.00     0.293 C 
ATOM     18  O   UNL d   1      20.660 -17.234  -1.270  0.00  0.00    -0.259 OA
BRANCH  17  19
ATOM     19  O   UNL d   1      21.042 -19.501  -1.416  0.00  0.00    -0.323 OA
ATOM     20  C   UNL d   1      20.159 -20.073  -0.431  0.00  0.00     0.213 C 
ENDBRANCH  17  19
ENDBRANCH   7  17
ENDBRANCH   1   3
BRANCH   1  21
ATOM     21  C   UNL d   1      25.319 -14.659  -2.702  0.00  0.00     0.179 C 
ATOM     22  S   UNL d   1      24.031 -14.040  -3.599  0.00  0.00    -0.040 SA
BRANCH  21  23
ATOM     23  N   UNL d   1      26.589 -14.706  -3.313  0.00  0.00    -0.299 N 
ATOM     24  C   UNL d   1      26.777 -15.197  -4.625  0.00  0.00     0.257 C 
ATOM     25  O   UNL d   1      25.944 -15.706  -5.370  0.00  0.00    -0.267 OA
ATOM     26  H   UNL d   1      27.397 -14.312  -2.859  0.00  0.00     0.171 HD
BRANCH  24  27
ATOM     27  C   UNL d   1      28.089 -15.190  -5.250  0.00  0.00     0.032 A 
ATOM     28  C   UNL d   1      28.251 -14.360  -6.374  0.00  0.00     0.018 A 
ATOM     29  C   UNL d   1      29.375 -14.495  -7.171  0.00  0.00     0.013 A 
ATOM     30  C   UNL d   1      30.377 -15.404  -6.811  0.00  0.00    -0.026 A 
ATOM     31  C   UNL d   1      30.163 -16.269  -5.720  0.00  0.00     0.013 A 
ATOM     32  C   UNL d   1      29.012 -16.176  -4.944  0.00  0.00     0.018 A 
BRANCH  30  33
ATOM     33  C   UNL d   1      31.637 -15.433  -7.550  0.00  0.00    -0.026 A 
ATOM     34  C   UNL d   1      32.207 -14.238  -8.023  0.00  0.00     0.012 A 
ATOM     35  C   UNL d   1      33.372 -14.261  -8.787  0.00  0.00     0.001 A 
ATOM     36  C   UNL d   1      34.024 -15.469  -9.018  0.00  0.00     0.000 A 
ATOM     37  C   UNL d   1      33.485 -16.658  -8.530  0.00  0.00     0.001 A 
ATOM     38  C   UNL d   1      32.293 -16.642  -7.808  0.00  0.00     0.012 A 
ENDBRANCH  30  33
ENDBRANCH  24  27
ENDBRANCH  21  23
ENDBRANCH   1  21
TORSDOF 8
ENDMDL
MODEL 6
REMARK VINA RESULT:   -10.206      1.732      2.571
REMARK INTER + INTRA:         -14.286
REMARK INTER:                 -12.593
REMARK INTRA:                  -1.693
REMARK CONF_INDEPENDENT:        2.386
REMARK UNBOUND:                -1.693
REMARK  8 active torsions:
REMARK  status: ('A' for Active; 'I' for Inactive)
REMARK    1  A    between atoms: O_2  and  C_3 
REMARK    2  A    between atoms: C_3  and  C_5 
REMARK    3  A    between atoms: C_8  and  N_9 
REMARK    4  A    between atoms: C_16  and  N_17 
REMARK    5  A    between atoms: N_17  and  C_18 
REMARK    6  A    between atoms: C_18  and  N_20 
REMARK       I    between atoms: N_20  and  C_21 
REMARK    7  A    between atoms: C_21  and  C_23 
REMARK    8  A    between atoms: C_26  and  C_27 
ROOT
ATOM      1  N   UNL d   1      29.016 -16.543  -1.034  0.00  0.00    -0.331 N 
ATOM      2  H   UNL d   1      29.434 -17.280  -0.501  0.00  0.00     0.168 HD
ENDROOT
BRANCH   1   3
ATOM      3  C   UNL d   1      29.469 -16.508  -2.428  0.00  0.00     0.062 A 
ATOM      4  C   UNL d   1      30.678 -17.099  -2.901  0.00  0.00     0.057 A 
ATOM      5  C   UNL d   1      30.912 -17.033  -4.314  0.00  0.00     0.033 A 
ATOM      6  C   UNL d   1      30.057 -16.366  -5.226  0.00  0.00     0.020 A 
ATOM      7  C   UNL d   1      28.917 -15.761  -4.755  0.00  0.00     0.041 A 
ATOM      8  C   UNL d   1      28.690 -15.841  -3.394  0.00  0.00     0.049 A 
BRANCH   4   9
ATOM      9  N   UNL d   1      31.662 -17.674  -2.101  0.00  0.00    -0.376 N 
ATOM     10  C   UNL d   1      31.665 -19.071  -1.667  0.00  0.00     0.150 C 
ATOM     11  C   UNL d   1      31.680 -19.117  -0.123  0.00  0.00     0.254 C 
ATOM     12  N   UNL d   1      32.843 -18.311   0.454  0.00  0.00    -0.072 N 
ATOM     13  C   UNL d   1      32.801 -18.303   1.957  0.00  0.00     0.269 C 
ATOM     14  C   UNL d   1      32.880 -16.880  -0.115  0.00  0.00     0.254 C 
ATOM     15  H   UNL d   1      33.713 -18.776   0.166  0.00  0.00     0.279 HD
ATOM     16  C   UNL d   1      32.840 -16.895  -1.666  0.00  0.00     0.150 C 
ENDBRANCH   4   9
BRANCH   7  17
ATOM     17  C   UNL d   1      27.832 -15.199  -5.622  0.00  0.00     0.293 C 
ATOM     18  O   UNL d   1      28.070 -14.745  -6.740  0.00  0.00    -0.259 OA
BRANCH  17  19
ATOM     19  O   UNL d   1      26.600 -15.293  -5.052  0.00  0.00    -0.323 OA
ATOM     20  C   UNL d   1      26.080 -14.065  -4.504  0.00  0.00     0.213 C 
ENDBRANCH  17  19
ENDBRANCH   7  17
ENDBRANCH   1   3
BRANCH   1  21
ATOM     21  C   UNL d   1      28.004 -15.748  -0.411  0.00  0.00     0.179 C 
ATOM     22  S   UNL d   1      28.147 -14.146   0.098  0.00  0.00    -0.040 SA
BRANCH  21  23
ATOM     23  N   UNL d   1      26.770 -16.399  -0.207  0.00  0.00    -0.299 N 
ATOM     24  C   UNL d   1      25.832 -16.582  -1.249  0.00  0.00     0.257 C 
ATOM     25  O   UNL d   1      25.889 -16.163  -2.402  0.00  0.00    -0.267 OA
ATOM     26  H   UNL d   1      26.552 -16.831   0.676  0.00  0.00     0.171 HD
BRANCH  24  27
ATOM     27  C   UNL d   1      24.589 -17.300  -1.025  0.00  0.00     0.032 A 
ATOM     28  C   UNL d   1      23.410 -16.533  -1.000  0.00  0.00     0.018 A 
ATOM     29  C   UNL d   1      22.233 -17.098  -0.537  0.00  0.00     0.013 A 
ATOM     30  C   UNL d   1      22.209 -18.448  -0.167  0.00  0.00    -0.026 A 
ATOM     31  C   UNL d   1      23.414 -19.176  -0.139  0.00  0.00     0.013 A 
ATOM     32  C   UNL d   1      24.611 -18.602  -0.552  0.00  0.00     0.018 A 
BRANCH  30  33
ATOM     33  C   UNL d   1      20.939 -19.092   0.161  0.00  0.00    -0.026 A 
ATOM     34  C   UNL d   1      20.614 -19.376   1.498  0.00  0.00     0.012 A 
ATOM     35  C   UNL d   1      19.437 -20.051   1.816  0.00  0.00     0.001 A 
ATOM     36  C   UNL d   1      18.534 -20.377   0.807  0.00  0.00     0.000 A 
ATOM     37  C   UNL d   1      18.830 -20.075  -0.521  0.00  0.00     0.001 A 
ATOM     38  C   UNL d   1      20.030 -19.445  -0.844  0.00  0.00     0.012 A 
ENDBRANCH  30  33
ENDBRANCH  24  27
ENDBRANCH  21  23
ENDBRANCH   1  21
TORSDOF 8
ENDMDL
MODEL 7
REMARK VINA RESULT:   -10.199      3.410      4.900
REMARK INTER + INTRA:         -14.023
REMARK INTER:                 -12.585
REMARK INTRA:                  -1.438
REMARK CONF_INDEPENDENT:        2.386
REMARK UNBOUND:                -1.438
REMARK  8 active torsions:
REMARK  status: ('A' for Active; 'I' for Inactive)
REMARK    1  A    between atoms: O_2  and  C_3 
REMARK    2  A    between atoms: C_3  and  C_5 
REMARK    3  A    between atoms: C_8  and  N_9 
REMARK    4  A    between atoms: C_16  and  N_17 
REMARK    5  A    between atoms: N_17  and  C_18 
REMARK    6  A    between atoms: C_18  and  N_20 
REMARK       I    between atoms: N_20  and  C_21 
REMARK    7  A    between atoms: C_21  and  C_23 
REMARK    8  A    between atoms: C_26  and  C_27 
ROOT
ATOM      1  N   UNL d   1      28.631 -15.451   0.564  0.00  0.00    -0.331 N 
ATOM      2  H   UNL d   1      29.292 -15.870   1.188  0.00  0.00     0.168 HD
ENDROOT
BRANCH   1   3
ATOM      3  C   UNL d   1      28.341 -14.050   0.886  0.00  0.00     0.062 A 
ATOM      4  C   UNL d   1      28.476 -13.473   2.183  0.00  0.00     0.057 A 
ATOM      5  C   UNL d   1      28.225 -12.064   2.285  0.00  0.00     0.033 A 
ATOM      6  C   UNL d   1      27.792 -11.258   1.204  0.00  0.00     0.020 A 
ATOM      7  C   UNL d   1      27.622 -11.832  -0.033  0.00  0.00     0.041 A 
ATOM      8  C   UNL d   1      27.880 -13.187  -0.128  0.00  0.00     0.049 A 
BRANCH   4   9
ATOM      9  N   UNL d   1      28.772 -14.171   3.350  0.00  0.00    -0.376 N 
ATOM     10  C   UNL d   1      27.775 -14.810   4.208  0.00  0.00     0.150 C 
ATOM     11  C   UNL d   1      27.883 -14.216   5.631  0.00  0.00     0.254 C 
ATOM     12  N   UNL d   1      29.303 -14.326   6.182  0.00  0.00    -0.072 N 
ATOM     13  C   UNL d   1      29.410 -13.677   7.535  0.00  0.00     0.269 C 
ATOM     14  C   UNL d   1      30.341 -13.751   5.199  0.00  0.00     0.254 C 
ATOM     15  H   UNL d   1      29.513 -15.326   6.296  0.00  0.00     0.279 HD
ATOM     16  C   UNL d   1      30.170 -14.366   3.786  0.00  0.00     0.150 C 
ENDBRANCH   4   9
BRANCH   7  17
ATOM     17  C   UNL d   1      27.366 -11.070  -1.297  0.00  0.00     0.293 C 
ATOM     18  O   UNL d   1      27.102  -9.869  -1.284  0.00  0.00    -0.259 OA
BRANCH  17  19
ATOM     19  O   UNL d   1      27.500 -11.838  -2.413  0.00  0.00    -0.323 OA
ATOM     20  C   UNL d   1      28.856 -12.048  -2.855  0.00  0.00     0.213 C 
ENDBRANCH  17  19
ENDBRANCH   7  17
ENDBRANCH   1   3
BRANCH   1  21
ATOM     21  C   UNL d   1      28.183 -16.214  -0.559  0.00  0.00     0.179 C 
ATOM     22  S   UNL d   1      28.962 -16.378  -2.046  0.00  0.00    -0.040 SA
BRANCH  21  23
ATOM     23  N   UNL d   1      26.954 -16.882  -0.378  0.00  0.00    -0.299 N 
ATOM     24  C   UNL d   1      25.789 -16.527  -1.096  0.00  0.00     0.257 C 
ATOM     25  O   UNL d   1      25.637 -15.592  -1.877  0.00  0.00    -0.267 OA
ATOM     26  H   UNL d   1      26.889 -17.695   0.214  0.00  0.00     0.171 HD
BRANCH  24  27
ATOM     27  C   UNL d   1      24.548 -17.264  -0.927  0.00  0.00     0.032 A 
ATOM     28  C   UNL d   1      23.362 -16.508  -0.895  0.00  0.00     0.018 A 
ATOM     29  C   UNL d   1      22.181 -17.101  -0.480  0.00  0.00     0.013 A 
ATOM     30  C   UNL d   1      22.162 -18.466  -0.168  0.00  0.00    -0.026 A 
ATOM     31  C   UNL d   1      23.372 -19.185  -0.145  0.00  0.00     0.013 A 
ATOM     32  C   UNL d   1      24.572 -18.585  -0.510  0.00  0.00     0.018 A 
BRANCH  30  33
ATOM     33  C   UNL d   1      20.891 -19.133   0.107  0.00  0.00    -0.026 A 
ATOM     34  C   UNL d   1      20.562 -19.515   1.418  0.00  0.00     0.012 A 
ATOM     35  C   UNL d   1      19.384 -20.213   1.681  0.00  0.00     0.001 A 
ATOM     36  C   UNL d   1      18.485 -20.464   0.648  0.00  0.00     0.000 A 
ATOM     37  C   UNL d   1      18.786 -20.064  -0.653  0.00  0.00     0.001 A 
ATOM     38  C   UNL d   1      19.986 -19.411  -0.924  0.00  0.00     0.012 A 
ENDBRANCH  30  33
ENDBRANCH  24  27
ENDBRANCH  21  23
ENDBRANCH   1  21
TORSDOF 8
ENDMDL
MODEL 8
REMARK VINA RESULT:    -9.825      2.422      9.114
REMARK INTER + INTRA:         -14.429
REMARK INTER:                 -12.211
REMARK INTRA:                  -2.218
REMARK CONF_INDEPENDENT:        2.386
REMARK UNBOUND:                -2.218
REMARK  8 active torsions:
REMARK  status: ('A' for Active; 'I' for Inactive)
REMARK    1  A    between atoms: O_2  and  C_3 
REMARK    2  A    between atoms: C_3  and  C_5 
REMARK    3  A    between atoms: C_8  and  N_9 
REMARK    4  A    between atoms: C_16  and  N_17 
REMARK    5  A    between atoms: N_17  and  C_18 
REMARK    6  A    between atoms: C_18  and  N_20 
REMARK       I    between atoms: N_20  and  C_21 
REMARK    7  A    between atoms: C_21  and  C_23 
REMARK    8  A    between atoms: C_26  and  C_27 
ROOT
ATOM      1  N   UNL d   1      25.533 -15.221  -1.683  0.00  0.00    -0.331 N 
ATOM      2  H   UNL d   1      26.029 -14.605  -1.069  0.00  0.00     0.168 HD
ENDROOT
BRANCH   1   3
ATOM      3  C   UNL d   1      24.971 -16.390  -1.000  0.00  0.00     0.062 A 
ATOM      4  C   UNL d   1      25.647 -17.142   0.006  0.00  0.00     0.057 A 
ATOM      5  C   UNL d   1      24.903 -18.204   0.618  0.00  0.00     0.033 A 
ATOM      6  C   UNL d   1      23.592 -18.577   0.230  0.00  0.00     0.020 A 
ATOM      7  C   UNL d   1      22.966 -17.875  -0.771  0.00  0.00     0.041 A 
ATOM      8  C   UNL d   1      23.683 -16.843  -1.347  0.00  0.00     0.049 A 
BRANCH   4   9
ATOM      9  N   UNL d   1      26.972 -16.963   0.393  0.00  0.00    -0.376 N 
ATOM     10  C   UNL d   1      27.429 -15.943   1.336  0.00  0.00     0.150 C 
ATOM     11  C   UNL d   1      28.476 -15.046   0.637  0.00  0.00     0.254 C 
ATOM     12  N   UNL d   1      29.620 -15.870   0.047  0.00  0.00    -0.072 N 
ATOM     13  C   UNL d   1      30.592 -14.993  -0.693  0.00  0.00     0.269 C 
ATOM     14  C   UNL d   1      29.098 -17.011  -0.846  0.00  0.00     0.254 C 
ATOM     15  H   UNL d   1      30.124 -16.304   0.832  0.00  0.00     0.279 HD
ATOM     16  C   UNL d   1      28.036 -17.861  -0.102  0.00  0.00     0.150 C 
ENDBRANCH   4   9
BRANCH   7  17
ATOM     17  C   UNL d   1      21.522 -18.027  -1.142  0.00  0.00     0.293 C 
ATOM     18  O   UNL d   1      20.783 -17.053  -1.270  0.00  0.00    -0.259 OA
BRANCH  17  19
ATOM     19  O   UNL d   1      21.165 -19.324  -1.350  0.00  0.00    -0.323 OA
ATOM     20  C   UNL d   1      19.878 -19.701  -0.822  0.00  0.00     0.213 C 
ENDBRANCH  17  19
ENDBRANCH   7  17
ENDBRANCH   1   3
BRANCH   1  21
ATOM     21  C   UNL d   1      25.360 -14.822  -3.046  0.00  0.00     0.179 C 
ATOM     22  S   UNL d   1      24.069 -13.946  -3.687  0.00  0.00    -0.040 SA
BRANCH  21  23
ATOM     23  N   UNL d   1      26.389 -15.223  -3.923  0.00  0.00    -0.299 N 
ATOM     24  C   UNL d   1      27.757 -15.099  -3.589  0.00  0.00     0.257 C 
ATOM     25  O   UNL d   1      28.248 -14.583  -2.589  0.00  0.00    -0.267 OA
ATOM     26  H   UNL d   1      26.177 -15.690  -4.790  0.00  0.00     0.171 HD
BRANCH  24  27
ATOM     27  C   UNL d   1      28.797 -15.565  -4.491  0.00  0.00     0.032 A 
ATOM     28  C   UNL d   1      28.818 -15.000  -5.779  0.00  0.00     0.018 A 
ATOM     29  C   UNL d   1      29.601 -15.573  -6.767  0.00  0.00     0.013 A 
ATOM     30  C   UNL d   1      30.422 -16.664  -6.457  0.00  0.00    -0.026 A 
ATOM     31  C   UNL d   1      30.334 -17.252  -5.180  0.00  0.00     0.013 A 
ATOM     32  C   UNL d   1      29.511 -16.715  -4.197  0.00  0.00     0.018 A 
BRANCH  30  33
ATOM     33  C   UNL d   1      31.373 -17.166  -7.447  0.00  0.00    -0.026 A 
ATOM     34  C   UNL d   1      31.204 -18.445  -8.005  0.00  0.00     0.012 A 
ATOM     35  C   UNL d   1      32.143 -18.959  -8.898  0.00  0.00     0.001 A 
ATOM     36  C   UNL d   1      33.216 -18.170  -9.304  0.00  0.00     0.000 A 
ATOM     37  C   UNL d   1      33.378 -16.889  -8.780  0.00  0.00     0.001 A 
ATOM     38  C   UNL d   1      32.468 -16.393  -7.849  0.00  0.00     0.012 A 
ENDBRANCH  30  33
ENDBRANCH  24  27
ENDBRANCH  21  23
ENDBRANCH   1  21
TORSDOF 8
ENDMDL
MODEL 9
REMARK VINA RESULT:    -8.985      1.898      2.413
REMARK INTER + INTRA:         -13.921
REMARK INTER:                 -11.372
REMARK INTRA:                  -2.549
REMARK CONF_INDEPENDENT:        2.386
REMARK UNBOUND:                -2.549
REMARK  8 active torsions:
REMARK  status: ('A' for Active; 'I' for Inactive)
REMARK    1  A    between atoms: O_2  and  C_3 
REMARK    2  A    between atoms: C_3  and  C_5 
REMARK    3  A    between atoms: C_8  and  N_9 
REMARK    4  A    between atoms: C_16  and  N_17 
REMARK    5  A    between atoms: N_17  and  C_18 
REMARK    6  A    between atoms: C_18  and  N_20 
REMARK       I    between atoms: N_20  and  C_21 
REMARK    7  A    between atoms: C_21  and  C_23 
REMARK    8  A    between atoms: C_26  and  C_27 
ROOT
ATOM      1  N   UNL d   1      27.152 -15.105  -3.743  0.00  0.00    -0.331 N 
ATOM      2  H   UNL d   1      27.148 -16.105  -3.679  0.00  0.00     0.168 HD
ENDROOT
BRANCH   1   3
ATOM      3  C   UNL d   1      28.464 -14.554  -4.094  0.00  0.00     0.062 A 
ATOM      4  C   UNL d   1      29.629 -14.654  -3.277  0.00  0.00     0.057 A 
ATOM      5  C   UNL d   1      30.843 -14.123  -3.828  0.00  0.00     0.033 A 
ATOM      6  C   UNL d   1      30.921 -13.461  -5.077  0.00  0.00     0.020 A 
ATOM      7  C   UNL d   1      29.784 -13.330  -5.838  0.00  0.00     0.041 A 
ATOM      8  C   UNL d   1      28.620 -13.856  -5.308  0.00  0.00     0.049 A 
BRANCH   4   9
ATOM      9  N   UNL d   1      29.666 -15.166  -1.983  0.00  0.00    -0.376 N 
ATOM     10  C   UNL d   1      30.166 -16.494  -1.632  0.00  0.00     0.150 C 
ATOM     11  C   UNL d   1      29.041 -17.284  -0.926  0.00  0.00     0.254 C 
ATOM     12  N   UNL d   1      28.484 -16.520   0.274  0.00  0.00    -0.072 N 
ATOM     13  C   UNL d   1      27.341 -17.265   0.906  0.00  0.00     0.269 C 
ATOM     14  C   UNL d   1      28.077 -15.083  -0.106  0.00  0.00     0.254 C 
ATOM     15  H   UNL d   1      29.236 -16.449   0.971  0.00  0.00     0.279 HD
ATOM     16  C   UNL d   1      29.236 -14.349  -0.830  0.00  0.00     0.150 C 
ENDBRANCH   4   9
BRANCH   7  17
ATOM     17  C   UNL d   1      29.759 -12.836  -7.252  0.00  0.00     0.293 C 
ATOM     18  O   UNL d   1      28.826 -12.161  -7.683  0.00  0.00    -0.259 OA
BRANCH  17  19
ATOM     19  O   UNL d   1      30.874 -13.182  -7.951  0.00  0.00    -0.323 OA
ATOM     20  C   UNL d   1      31.042 -12.508  -9.215  0.00  0.00     0.213 C 
ENDBRANCH  17  19
ENDBRANCH   7  17
ENDBRANCH   1   3
BRANCH   1  21
ATOM     21  C   UNL d   1      25.909 -14.413  -3.600  0.00  0.00     0.179 C 
ATOM     22  S   UNL d   1      25.564 -12.840  -4.101  0.00  0.00    -0.040 SA
BRANCH  21  23
ATOM     23  N   UNL d   1      24.885 -15.145  -2.963  0.00  0.00    -0.299 N 
ATOM     24  C   UNL d   1      25.157 -16.221  -2.089  0.00  0.00     0.257 C 
ATOM     25  O   UNL d   1      26.246 -16.722  -1.821  0.00  0.00    -0.267 OA
ATOM     26  H   UNL d   1      23.920 -14.866  -3.049  0.00  0.00     0.171 HD
BRANCH  24  27
ATOM     27  C   UNL d   1      24.086 -16.927  -1.408  0.00  0.00     0.032 A 
ATOM     28  C   UNL d   1      24.087 -18.330  -1.507  0.00  0.00     0.018 A 
ATOM     29  C   UNL d   1      22.970 -19.048  -1.113  0.00  0.00     0.013 A 
ATOM     30  C   UNL d   1      21.877 -18.378  -0.550  0.00  0.00    -0.026 A 
ATOM     31  C   UNL d   1      21.873 -16.970  -0.521  0.00  0.00     0.013 A 
ATOM     32  C   UNL d   1      22.969 -16.238  -0.963  0.00  0.00     0.018 A 
BRANCH  30  33
ATOM     33  C   UNL d   1      20.769 -19.141   0.020  0.00  0.00    -0.026 A 
ATOM     34  C   UNL d   1      19.786 -19.695  -0.818  0.00  0.00     0.012 A 
ATOM     35  C   UNL d   1      18.689 -20.365  -0.280  0.00  0.00     0.001 A 
ATOM     36  C   UNL d   1      18.605 -20.559   1.097  0.00  0.00     0.000 A 
ATOM     37  C   UNL d   1      19.588 -20.040   1.937  0.00  0.00     0.001 A 
ATOM     38  C   UNL d   1      20.659 -19.326   1.403  0.00  0.00     0.012 A 
ENDBRANCH  30  33
ENDBRANCH  24  27
ENDBRANCH  21  23
ENDBRANCH   1  21
TORSDOF 8
ENDMDL
