MODEL 1
REMARK VINA RESULT:    -8.840      0.000      0.000
REMARK INTER + INTRA:         -13.581
REMARK INTER:                 -11.823
REMARK INTRA:                  -1.758
REMARK CONF_INDEPENDENT:        2.983
REMARK UNBOUND:                -1.758
REMARK  10 active torsions:
REMARK  status: ('A' for Active; 'I' for Inactive)
REMARK    1  A    between atoms: O_2  and  C_3 
REMARK    2  A    between atoms: C_3  and  C_4 
REMARK    3  A    between atoms: C_4  and  O_5 
REMARK    4  A    between atoms: O_5  and  C_6 
REMARK    5  A    between atoms: C_9  and  C_10 
REMARK       I    between atoms: C_10  and  N_12 
REMARK    6  A    between atoms: N_12  and  C_13 
REMARK    7  A    between atoms: C_13  and  N_15 
REMARK    8  A    between atoms: N_15  and  N_16 
REMARK       I    between atoms: N_16  and  C_17 
REMARK    9  A    between atoms: C_17  and  C_19 
REMARK   10  A    between atoms: C_19  and  C_20 
ROOT
ATOM      1  C   UNL d   1      30.831 -14.758   1.879  0.00  0.00     0.193 C 
ATOM      2  S   UNL d   1      32.351 -15.405   1.536  0.00  0.00    -0.039 SA
ENDROOT
BRANCH   1   3
ATOM      3  N   UNL d   1      29.610 -15.201   1.315  0.00  0.00    -0.298 N 
ATOM      4  C   UNL d   1      29.158 -14.972  -0.012  0.00  0.00     0.257 C 
ATOM      5  O   UNL d   1      29.802 -14.345  -0.857  0.00  0.00    -0.267 OA
ATOM      6  H   UNL d   1      29.011 -15.732   1.929  0.00  0.00     0.171 HD
BRANCH   4   7
ATOM      7  C   UNL d   1      27.832 -15.487  -0.499  0.00  0.00     0.033 A 
ATOM      8  C   UNL d   1      27.194 -16.533   0.208  0.00  0.00     0.020 A 
ATOM      9  C   UNL d   1      25.944 -17.042  -0.196  0.00  0.00     0.039 A 
ATOM     10  C   UNL d   1      25.300 -16.530  -1.333  0.00  0.00     0.086 A 
ATOM     11  C   UNL d   1      25.917 -15.464  -2.011  0.00  0.00     0.045 A 
ATOM     12  C   UNL d   1      27.174 -14.970  -1.606  0.00  0.00     0.039 A 
ATOM     13 BR   UNL d   1      25.154 -14.450  -3.432  0.00  0.00    -0.048 Br
BRANCH  10  14
ATOM     14  O   UNL d   1      24.067 -17.074  -1.594  0.00  0.00    -0.348 OA
BRANCH  14  15
ATOM     15  C   UNL d   1      23.198 -17.222  -0.467  0.00  0.00     0.201 C 
BRANCH  15  16
ATOM     16  C   UNL d   1      22.379 -18.501  -0.589  0.00  0.00     0.193 C 
BRANCH  16  17
ATOM     17  O   UNL d   1      21.024 -18.153  -0.892  0.00  0.00    -0.394 OA
ATOM     18  C   UNL d   1      20.221 -19.316  -1.040  0.00  0.00     0.201 C 
ENDBRANCH  16  17
ENDBRANCH  15  16
ENDBRANCH  14  15
ENDBRANCH  10  14
ENDBRANCH   4   7
ENDBRANCH   1   3
BRANCH   1  19
ATOM     19  N   UNL d   1      30.725 -13.695   2.792  0.00  0.00    -0.273 N 
ATOM     20  H   UNL d   1      30.856 -12.703   2.594  0.00  0.00     0.189 HD
BRANCH  19  21
ATOM     21  N   UNL d   1      30.401 -13.990   4.178  0.00  0.00    -0.268 N 
ATOM     22  C   UNL d   1      29.145 -14.457   4.532  0.00  0.00     0.240 C 
ATOM     23  O   UNL d   1      28.276 -14.626   3.677  0.00  0.00    -0.272 OA
ATOM     24  H   UNL d   1      31.156 -13.844   4.847  0.00  0.00     0.190 HD
BRANCH  22  25
ATOM     25  C   UNL d   1      28.947 -14.746   6.039  0.00  0.00     0.144 C 
BRANCH  25  26
ATOM     26  C   UNL d   1      28.822 -13.470   6.868  0.00  0.00    -0.038 A 
ATOM     27  C   UNL d   1      28.752 -12.236   6.193  0.00  0.00     0.008 A 
ATOM     28  C   UNL d   1      28.790 -11.032   6.894  0.00  0.00     0.001 A 
ATOM     29  C   UNL d   1      28.883 -11.039   8.284  0.00  0.00     0.012 A 
ATOM     30  C   UNL d   1      28.900 -12.248   8.994  0.00  0.00    -0.025 A 
ATOM     31  C   UNL d   1      28.951 -12.241  10.399  0.00  0.00     0.012 A 
ATOM     32  C   UNL d   1      28.873 -13.482   8.290  0.00  0.00    -0.019 A 
ATOM     33  C   UNL d   1      28.965 -13.433  11.122  0.00  0.00     0.001 A 
ATOM     34  C   UNL d   1      28.941 -14.646  10.449  0.00  0.00     0.001 A 
ATOM     35  C   UNL d   1      28.905 -14.669   9.055  0.00  0.00     0.013 A 
ENDBRANCH  25  26
ENDBRANCH  22  25
ENDBRANCH  19  21
ENDBRANCH   1  19
TORSDOF 10
ENDMDL
MODEL 2
REMARK VINA RESULT:    -8.405      2.427      3.641
REMARK INTER + INTRA:         -13.488
REMARK INTER:                 -11.388
REMARK INTRA:                  -2.101
REMARK CONF_INDEPENDENT:        2.983
REMARK UNBOUND:                -2.101
REMARK  10 active torsions:
REMARK  status: ('A' for Active; 'I' for Inactive)
REMARK    1  A    between atoms: O_2  and  C_3 
REMARK    2  A    between atoms: C_3  and  C_4 
REMARK    3  A    between atoms: C_4  and  O_5 
REMARK    4  A    between atoms: O_5  and  C_6 
REMARK    5  A    between atoms: C_9  and  C_10 
REMARK       I    between atoms: C_10  and  N_12 
REMARK    6  A    between atoms: N_12  and  C_13 
REMARK    7  A    between atoms: C_13  and  N_15 
REMARK    8  A    between atoms: N_15  and  N_16 
REMARK       I    between atoms: N_16  and  C_17 
REMARK    9  A    between atoms: C_17  and  C_19 
REMARK   10  A    between atoms: C_19  and  C_20 
ROOT
ATOM      1  C   UNL d   1      30.247 -14.352   2.330  0.00  0.00     0.193 C 
ATOM      2  S   UNL d   1      31.868 -13.895   2.216  0.00  0.00    -0.039 SA
ENDROOT
BRANCH   1   3
ATOM      3  N   UNL d   1      29.335 -14.396   1.249  0.00  0.00    -0.298 N 
ATOM      4  C   UNL d   1      27.919 -14.474   1.338  0.00  0.00     0.257 C 
ATOM      5  O   UNL d   1      27.299 -14.508   2.406  0.00  0.00    -0.267 OA
ATOM      6  H   UNL d   1      29.745 -14.368   0.328  0.00  0.00     0.171 HD
BRANCH   4   7
ATOM      7  C   UNL d   1      27.047 -14.524   0.114  0.00  0.00     0.033 A 
ATOM      8  C   UNL d   1      27.139 -13.486  -0.842  0.00  0.00     0.020 A 
ATOM      9  C   UNL d   1      26.358 -13.491  -2.015  0.00  0.00     0.039 A 
ATOM     10  C   UNL d   1      25.446 -14.530  -2.258  0.00  0.00     0.086 A 
ATOM     11  C   UNL d   1      25.385 -15.580  -1.326  0.00  0.00     0.045 A 
ATOM     12  C   UNL d   1      26.163 -15.559  -0.150  0.00  0.00     0.039 A 
ATOM     13 BR   UNL d   1      24.407 -17.203  -1.529  0.00  0.00    -0.048 Br
BRANCH  10  14
ATOM     14  O   UNL d   1      24.780 -14.447  -3.456  0.00  0.00    -0.348 OA
BRANCH  14  15
ATOM     15  C   UNL d   1      25.598 -14.245  -4.613  0.00  0.00     0.201 C 
BRANCH  15  16
ATOM     16  C   UNL d   1      26.341 -15.526  -4.970  0.00  0.00     0.193 C 
BRANCH  16  17
ATOM     17  O   UNL d   1      27.425 -15.200  -5.846  0.00  0.00    -0.394 OA
ATOM     18  C   UNL d   1      28.666 -15.232  -5.154  0.00  0.00     0.201 C 
ENDBRANCH  16  17
ENDBRANCH  15  16
ENDBRANCH  14  15
ENDBRANCH  10  14
ENDBRANCH   4   7
ENDBRANCH   1   3
BRANCH   1  19
ATOM     19  N   UNL d   1      29.724 -14.726   3.580  0.00  0.00    -0.273 N 
ATOM     20  H   UNL d   1      28.892 -15.290   3.752  0.00  0.00     0.189 HD
BRANCH  19  21
ATOM     21  N   UNL d   1      30.404 -14.283   4.786  0.00  0.00    -0.268 N 
ATOM     22  C   UNL d   1      29.749 -14.263   6.008  0.00  0.00     0.240 C 
ATOM     23  O   UNL d   1      28.572 -14.616   6.093  0.00  0.00    -0.272 OA
ATOM     24  H   UNL d   1      31.379 -14.011   4.666  0.00  0.00     0.190 HD
BRANCH  22  25
ATOM     25  C   UNL d   1      30.601 -13.787   7.207  0.00  0.00     0.144 C 
BRANCH  25  26
ATOM     26  C   UNL d   1      29.768 -13.572   8.469  0.00  0.00    -0.038 A 
ATOM     27  C   UNL d   1      28.803 -12.546   8.468  0.00  0.00     0.008 A 
ATOM     28  C   UNL d   1      28.122 -12.204   9.635  0.00  0.00     0.001 A 
ATOM     29  C   UNL d   1      28.380 -12.889  10.820  0.00  0.00     0.012 A 
ATOM     30  C   UNL d   1      29.294 -13.952  10.845  0.00  0.00    -0.025 A 
ATOM     31  C   UNL d   1      29.515 -14.664  12.038  0.00  0.00     0.012 A 
ATOM     32  C   UNL d   1      30.005 -14.304   9.666  0.00  0.00    -0.019 A 
ATOM     33  C   UNL d   1      30.418 -15.726  12.083  0.00  0.00     0.001 A 
ATOM     34  C   UNL d   1      31.120 -16.080  10.940  0.00  0.00     0.001 A 
ATOM     35  C   UNL d   1      30.922 -15.373   9.753  0.00  0.00     0.013 A 
ENDBRANCH  25  26
ENDBRANCH  22  25
ENDBRANCH  19  21
ENDBRANCH   1  19
TORSDOF 10
ENDMDL
MODEL 3
REMARK VINA RESULT:    -8.337      7.047      9.274
REMARK INTER + INTRA:         -13.388
REMARK INTER:                 -11.320
REMARK INTRA:                  -2.068
REMARK CONF_INDEPENDENT:        2.983
REMARK UNBOUND:                -2.068
REMARK  10 active torsions:
REMARK  status: ('A' for Active; 'I' for Inactive)
REMARK    1  A    between atoms: O_2  and  C_3 
REMARK    2  A    between atoms: C_3  and  C_4 
REMARK    3  A    between atoms: C_4  and  O_5 
REMARK    4  A    between atoms: O_5  and  C_6 
REMARK    5  A    between atoms: C_9  and  C_10 
REMARK       I    between atoms: C_10  and  N_12 
REMARK    6  A    between atoms: N_12  and  C_13 
REMARK    7  A    between atoms: C_13  and  N_15 
REMARK    8  A    between atoms: N_15  and  N_16 
REMARK       I    between atoms: N_16  and  C_17 
REMARK    9  A    between atoms: C_17  and  C_19 
REMARK   10  A    between atoms: C_19  and  C_20 
ROOT
ATOM      1  C   UNL d   1      26.604 -12.497  -5.390  0.00  0.00     0.193 C 
ATOM      2  S   UNL d   1      26.579 -11.299  -6.579  0.00  0.00    -0.039 SA
ENDROOT
BRANCH   1   3
ATOM      3  N   UNL d   1      27.669 -13.401  -5.166  0.00  0.00    -0.298 N 
ATOM      4  C   UNL d   1      27.642 -14.808  -5.361  0.00  0.00     0.257 C 
ATOM      5  O   UNL d   1      26.653 -15.425  -5.769  0.00  0.00    -0.267 OA
ATOM      6  H   UNL d   1      28.529 -12.991  -4.834  0.00  0.00     0.171 HD
BRANCH   4   7
ATOM      7  C   UNL d   1      28.840 -15.673  -5.080  0.00  0.00     0.033 A 
ATOM      8  C   UNL d   1      29.778 -15.910  -6.111  0.00  0.00     0.020 A 
ATOM      9  C   UNL d   1      30.926 -16.699  -5.897  0.00  0.00     0.039 A 
ATOM     10  C   UNL d   1      31.160 -17.290  -4.646  0.00  0.00     0.086 A 
ATOM     11  C   UNL d   1      30.247 -17.021  -3.613  0.00  0.00     0.045 A 
ATOM     12  C   UNL d   1      29.095 -16.240  -3.840  0.00  0.00     0.039 A 
ATOM     13 BR   UNL d   1      30.451 -17.510  -1.782  0.00  0.00    -0.048 Br
BRANCH  10  14
ATOM     14  O   UNL d   1      32.335 -17.994  -4.550  0.00  0.00    -0.348 OA
BRANCH  14  15
ATOM     15  C   UNL d   1      32.247 -19.397  -4.821  0.00  0.00     0.201 C 
BRANCH  15  16
ATOM     16  C   UNL d   1      30.802 -19.798  -5.087  0.00  0.00     0.193 C 
BRANCH  16  17
ATOM     17  O   UNL d   1      30.457 -19.420  -6.423  0.00  0.00    -0.394 OA
ATOM     18  C   UNL d   1      30.780 -20.453  -7.344  0.00  0.00     0.201 C 
ENDBRANCH  16  17
ENDBRANCH  15  16
ENDBRANCH  14  15
ENDBRANCH  10  14
ENDBRANCH   4   7
ENDBRANCH   1   3
BRANCH   1  19
ATOM     19  N   UNL d   1      25.498 -12.639  -4.534  0.00  0.00    -0.273 N 
ATOM     20  H   UNL d   1      24.513 -12.564  -4.789  0.00  0.00     0.189 HD
BRANCH  19  21
ATOM     21  N   UNL d   1      25.731 -12.921  -3.128  0.00  0.00    -0.268 N 
ATOM     22  C   UNL d   1      25.610 -14.209  -2.629  0.00  0.00     0.240 C 
ATOM     23  O   UNL d   1      25.294 -15.140  -3.370  0.00  0.00    -0.272 OA
ATOM     24  H   UNL d   1      26.000 -12.120  -2.557  0.00  0.00     0.190 HD
BRANCH  22  25
ATOM     25  C   UNL d   1      25.905 -14.364  -1.119  0.00  0.00     0.144 C 
BRANCH  25  26
ATOM     26  C   UNL d   1      25.953 -15.825  -0.677  0.00  0.00    -0.038 A 
ATOM     27  C   UNL d   1      27.205 -16.390  -0.367  0.00  0.00     0.008 A 
ATOM     28  C   UNL d   1      27.330 -17.754  -0.106  0.00  0.00     0.001 A 
ATOM     29  C   UNL d   1      26.205 -18.575  -0.136  0.00  0.00     0.012 A 
ATOM     30  C   UNL d   1      24.935 -18.037  -0.388  0.00  0.00    -0.025 A 
ATOM     31  C   UNL d   1      23.801 -18.870  -0.374  0.00  0.00     0.012 A 
ATOM     32  C   UNL d   1      24.794 -16.651  -0.666  0.00  0.00    -0.019 A 
ATOM     33  C   UNL d   1      22.529 -18.353  -0.618  0.00  0.00     0.001 A 
ATOM     34  C   UNL d   1      22.377 -17.002  -0.894  0.00  0.00     0.001 A 
ATOM     35  C   UNL d   1      23.494 -16.167  -0.926  0.00  0.00     0.013 A 
ENDBRANCH  25  26
ENDBRANCH  22  25
ENDBRANCH  19  21
ENDBRANCH   1  19
TORSDOF 10
ENDMDL
MODEL 4
REMARK VINA RESULT:    -7.773      6.405     10.194
REMARK INTER + INTRA:         -13.328
REMARK INTER:                 -10.756
REMARK INTRA:                  -2.573
REMARK CONF_INDEPENDENT:        2.983
REMARK UNBOUND:                -2.573
REMARK  10 active torsions:
REMARK  status: ('A' for Active; 'I' for Inactive)
REMARK    1  A    between atoms: O_2  and  C_3 
REMARK    2  A    between atoms: C_3  and  C_4 
REMARK    3  A    between atoms: C_4  and  O_5 
REMARK    4  A    between atoms: O_5  and  C_6 
REMARK    5  A    between atoms: C_9  and  C_10 
REMARK       I    between atoms: C_10  and  N_12 
REMARK    6  A    between atoms: N_12  and  C_13 
REMARK    7  A    between atoms: C_13  and  N_15 
REMARK    8  A    between atoms: N_15  and  N_16 
REMARK       I    between atoms: N_16  and  C_17 
REMARK    9  A    between atoms: C_17  and  C_19 
REMARK   10  A    between atoms: C_19  and  C_20 
ROOT
ATOM      1  C   UNL d   1      31.802 -18.291  -0.817  0.00  0.00     0.193 C 
ATOM      2  S   UNL d   1      33.000 -17.531   0.097  0.00  0.00    -0.039 SA
ENDROOT
BRANCH   1   3
ATOM      3  N   UNL d   1      30.409 -18.163  -0.602  0.00  0.00    -0.298 N 
ATOM      4  C   UNL d   1      29.508 -17.352  -1.342  0.00  0.00     0.257 C 
ATOM      5  O   UNL d   1      29.846 -16.645  -2.296  0.00  0.00    -0.267 OA
ATOM      6  H   UNL d   1      30.031 -18.710   0.157  0.00  0.00     0.171 HD
BRANCH   4   7
ATOM      7  C   UNL d   1      28.041 -17.290  -1.014  0.00  0.00     0.033 A 
ATOM      8  C   UNL d   1      27.549 -18.021   0.092  0.00  0.00     0.020 A 
ATOM      9  C   UNL d   1      26.188 -17.985   0.453  0.00  0.00     0.039 A 
ATOM     10  C   UNL d   1      25.272 -17.229  -0.295  0.00  0.00     0.086 A 
ATOM     11  C   UNL d   1      25.770 -16.473  -1.370  0.00  0.00     0.045 A 
ATOM     12  C   UNL d   1      27.133 -16.524  -1.730  0.00  0.00     0.039 A 
ATOM     13 BR   UNL d   1      24.789 -15.200  -2.394  0.00  0.00    -0.048 Br
BRANCH  10  14
ATOM     14  O   UNL d   1      23.986 -17.237   0.185  0.00  0.00    -0.348 OA
BRANCH  14  15
ATOM     15  C   UNL d   1      22.965 -17.552  -0.768  0.00  0.00     0.201 C 
BRANCH  15  16
ATOM     16  C   UNL d   1      22.667 -19.046  -0.756  0.00  0.00     0.193 C 
BRANCH  16  17
ATOM     17  O   UNL d   1      21.573 -19.304  -1.642  0.00  0.00    -0.394 OA
ATOM     18  C   UNL d   1      20.341 -19.331  -0.934  0.00  0.00     0.201 C 
ENDBRANCH  16  17
ENDBRANCH  15  16
ENDBRANCH  14  15
ENDBRANCH  10  14
ENDBRANCH   4   7
ENDBRANCH   1   3
BRANCH   1  19
ATOM     19  N   UNL d   1      32.176 -19.124  -1.886  0.00  0.00    -0.273 N 
ATOM     20  H   UNL d   1      33.041 -19.658  -1.972  0.00  0.00     0.189 HD
BRANCH  19  21
ATOM     21  N   UNL d   1      31.268 -19.272  -3.011  0.00  0.00    -0.268 N 
ATOM     22  C   UNL d   1      31.353 -20.368  -3.856  0.00  0.00     0.240 C 
ATOM     23  O   UNL d   1      32.206 -21.236  -3.672  0.00  0.00    -0.272 OA
ATOM     24  H   UNL d   1      30.573 -18.534  -3.115  0.00  0.00     0.190 HD
BRANCH  22  25
ATOM     25  C   UNL d   1      30.311 -20.403  -4.999  0.00  0.00     0.144 C 
BRANCH  25  26
ATOM     26  C   UNL d   1      30.727 -19.552  -6.197  0.00  0.00    -0.038 A 
ATOM     27  C   UNL d   1      31.311 -20.195  -7.305  0.00  0.00     0.008 A 
ATOM     28  C   UNL d   1      31.847 -19.458  -8.360  0.00  0.00     0.001 A 
ATOM     29  C   UNL d   1      31.797 -18.067  -8.334  0.00  0.00     0.012 A 
ATOM     30  C   UNL d   1      31.174 -17.394  -7.273  0.00  0.00    -0.025 A 
ATOM     31  C   UNL d   1      31.091 -15.990  -7.279  0.00  0.00     0.012 A 
ATOM     32  C   UNL d   1      30.633 -18.132  -6.186  0.00  0.00    -0.019 A 
ATOM     33  C   UNL d   1      30.474 -15.303  -6.235  0.00  0.00     0.001 A 
ATOM     34  C   UNL d   1      29.943 -16.011  -5.165  0.00  0.00     0.001 A 
ATOM     35  C   UNL d   1      30.030 -17.402  -5.139  0.00  0.00     0.013 A 
ENDBRANCH  25  26
ENDBRANCH  22  25
ENDBRANCH  19  21
ENDBRANCH   1  19
TORSDOF 10
ENDMDL
MODEL 5
REMARK VINA RESULT:    -7.716      7.184      9.197
REMARK INTER + INTRA:         -13.617
REMARK INTER:                 -10.699
REMARK INTRA:                  -2.918
REMARK CONF_INDEPENDENT:        2.983
REMARK UNBOUND:                -2.918
REMARK  10 active torsions:
REMARK  status: ('A' for Active; 'I' for Inactive)
REMARK    1  A    between atoms: O_2  and  C_3 
REMARK    2  A    between atoms: C_3  and  C_4 
REMARK    3  A    between atoms: C_4  and  O_5 
REMARK    4  A    between atoms: O_5  and  C_6 
REMARK    5  A    between atoms: C_9  and  C_10 
REMARK       I    between atoms: C_10  and  N_12 
REMARK    6  A    between atoms: N_12  and  C_13 
REMARK    7  A    between atoms: C_13  and  N_15 
REMARK    8  A    between atoms: N_15  and  N_16 
REMARK       I    between atoms: N_16  and  C_17 
REMARK    9  A    between atoms: C_17  and  C_19 
REMARK   10  A    between atoms: C_19  and  C_20 
ROOT
ATOM      1  C   UNL d   1      28.626 -15.191  -5.885  0.00  0.00     0.193 C 
ATOM      2  S   UNL d   1      29.348 -14.268  -7.100  0.00  0.00    -0.039 SA
ENDROOT
BRANCH   1   3
ATOM      3  N   UNL d   1      29.240 -16.274  -5.212  0.00  0.00    -0.298 N 
ATOM      4  C   UNL d   1      29.683 -16.291  -3.862  0.00  0.00     0.257 C 
ATOM      5  O   UNL d   1      29.575 -15.332  -3.093  0.00  0.00    -0.267 OA
ATOM      6  H   UNL d   1      29.369 -17.113  -5.757  0.00  0.00     0.171 HD
BRANCH   4   7
ATOM      7  C   UNL d   1      30.332 -17.504  -3.254  0.00  0.00     0.033 A 
ATOM      8  C   UNL d   1      30.523 -17.557  -1.854  0.00  0.00     0.020 A 
ATOM      9  C   UNL d   1      31.110 -18.676  -1.231  0.00  0.00     0.039 A 
ATOM     10  C   UNL d   1      31.542 -19.771  -1.995  0.00  0.00     0.086 A 
ATOM     11  C   UNL d   1      31.315 -19.733  -3.381  0.00  0.00     0.045 A 
ATOM     12  C   UNL d   1      30.736 -18.604  -3.997  0.00  0.00     0.039 A 
ATOM     13 BR   UNL d   1      31.596 -21.169  -4.602  0.00  0.00    -0.048 Br
BRANCH  10  14
ATOM     14  O   UNL d   1      32.052 -20.818  -1.268  0.00  0.00    -0.348 OA
BRANCH  14  15
ATOM     15  C   UNL d   1      31.810 -20.777   0.141  0.00  0.00     0.201 C 
BRANCH  15  16
ATOM     16  C   UNL d   1      30.559 -21.574   0.491  0.00  0.00     0.193 C 
BRANCH  16  17
ATOM     17  O   UNL d   1      30.760 -22.217   1.753  0.00  0.00    -0.394 OA
ATOM     18  C   UNL d   1      31.780 -21.567   2.499  0.00  0.00     0.201 C 
ENDBRANCH  16  17
ENDBRANCH  15  16
ENDBRANCH  14  15
ENDBRANCH  10  14
ENDBRANCH   4   7
ENDBRANCH   1   3
BRANCH   1  19
ATOM     19  N   UNL d   1      27.313 -14.892  -5.482  0.00  0.00    -0.273 N 
ATOM     20  H   UNL d   1      26.497 -14.787  -6.085  0.00  0.00     0.189 HD
BRANCH  19  21
ATOM     21  N   UNL d   1      27.040 -14.702  -4.068  0.00  0.00    -0.268 N 
ATOM     22  C   UNL d   1      25.739 -14.591  -3.602  0.00  0.00     0.240 C 
ATOM     23  O   UNL d   1      24.788 -14.646  -4.381  0.00  0.00    -0.272 OA
ATOM     24  H   UNL d   1      27.859 -14.673  -3.462  0.00  0.00     0.190 HD
BRANCH  22  25
ATOM     25  C   UNL d   1      25.598 -14.410  -2.072  0.00  0.00     0.144 C 
BRANCH  25  26
ATOM     26  C   UNL d   1      25.847 -15.706  -1.303  0.00  0.00    -0.038 A 
ATOM     27  C   UNL d   1      27.177 -16.065  -1.008  0.00  0.00     0.008 A 
ATOM     28  C   UNL d   1      27.475 -17.305  -0.446  0.00  0.00     0.001 A 
ATOM     29  C   UNL d   1      26.451 -18.202  -0.154  0.00  0.00     0.012 A 
ATOM     30  C   UNL d   1      25.111 -17.857  -0.383  0.00  0.00    -0.025 A 
ATOM     31  C   UNL d   1      24.083 -18.755  -0.044  0.00  0.00     0.012 A 
ATOM     32  C   UNL d   1      24.793 -16.601  -0.966  0.00  0.00    -0.019 A 
ATOM     33  C   UNL d   1      22.746 -18.429  -0.262  0.00  0.00     0.001 A 
ATOM     34  C   UNL d   1      22.420 -17.207  -0.833  0.00  0.00     0.001 A 
ATOM     35  C   UNL d   1      23.429 -16.312  -1.187  0.00  0.00     0.013 A 
ENDBRANCH  25  26
ENDBRANCH  22  25
ENDBRANCH  19  21
ENDBRANCH   1  19
TORSDOF 10
ENDMDL
MODEL 6
REMARK VINA RESULT:    -7.596      2.345      3.722
REMARK INTER + INTRA:         -13.487
REMARK INTER:                 -10.579
REMARK INTRA:                  -2.908
REMARK CONF_INDEPENDENT:        2.983
REMARK UNBOUND:                -2.908
REMARK  10 active torsions:
REMARK  status: ('A' for Active; 'I' for Inactive)
REMARK    1  A    between atoms: O_2  and  C_3 
REMARK    2  A    between atoms: C_3  and  C_4 
REMARK    3  A    between atoms: C_4  and  O_5 
REMARK    4  A    between atoms: O_5  and  C_6 
REMARK    5  A    between atoms: C_9  and  C_10 
REMARK       I    between atoms: C_10  and  N_12 
REMARK    6  A    between atoms: N_12  and  C_13 
REMARK    7  A    between atoms: C_13  and  N_15 
REMARK    8  A    between atoms: N_15  and  N_16 
REMARK       I    between atoms: N_16  and  C_17 
REMARK    9  A    between atoms: C_17  and  C_19 
REMARK   10  A    between atoms: C_19  and  C_20 
ROOT
ATOM      1  C   UNL d   1      31.393 -15.052   1.862  0.00  0.00     0.193 C 
ATOM      2  S   UNL d   1      32.891 -14.782   1.134  0.00  0.00    -0.039 SA
ENDROOT
BRANCH   1   3
ATOM      3  N   UNL d   1      30.251 -15.574   1.209  0.00  0.00    -0.298 N 
ATOM      4  C   UNL d   1      29.149 -14.832   0.706  0.00  0.00     0.257 C 
ATOM      5  O   UNL d   1      29.060 -13.602   0.778  0.00  0.00    -0.267 OA
ATOM      6  H   UNL d   1      30.231 -16.576   1.096  0.00  0.00     0.171 HD
BRANCH   4   7
ATOM      7  C   UNL d   1      27.981 -15.500   0.034  0.00  0.00     0.033 A 
ATOM      8  C   UNL d   1      27.431 -16.670   0.606  0.00  0.00     0.020 A 
ATOM      9  C   UNL d   1      26.328 -17.326   0.026  0.00  0.00     0.039 A 
ATOM     10  C   UNL d   1      25.750 -16.840  -1.157  0.00  0.00     0.086 A 
ATOM     11  C   UNL d   1      26.274 -15.655  -1.702  0.00  0.00     0.045 A 
ATOM     12  C   UNL d   1      27.386 -15.011  -1.120  0.00  0.00     0.039 A 
ATOM     13 BR   UNL d   1      25.537 -14.670  -3.157  0.00  0.00    -0.048 Br
BRANCH  10  14
ATOM     14  O   UNL d   1      24.652 -17.538  -1.595  0.00  0.00    -0.348 OA
BRANCH  14  15
ATOM     15  C   UNL d   1      23.463 -17.386  -0.813  0.00  0.00     0.201 C 
BRANCH  15  16
ATOM     16  C   UNL d   1      22.821 -18.742  -0.551  0.00  0.00     0.193 C 
BRANCH  16  17
ATOM     17  O   UNL d   1      21.793 -18.960  -1.523  0.00  0.00    -0.394 OA
ATOM     18  C   UNL d   1      20.532 -19.151  -0.896  0.00  0.00     0.201 C 
ENDBRANCH  16  17
ENDBRANCH  15  16
ENDBRANCH  14  15
ENDBRANCH  10  14
ENDBRANCH   4   7
ENDBRANCH   1   3
BRANCH   1  19
ATOM     19  N   UNL d   1      31.225 -14.747   3.224  0.00  0.00    -0.273 N 
ATOM     20  H   UNL d   1      31.913 -14.868   3.968  0.00  0.00     0.189 HD
BRANCH  19  21
ATOM     21  N   UNL d   1      29.954 -14.201   3.669  0.00  0.00    -0.268 N 
ATOM     22  C   UNL d   1      29.570 -14.281   4.999  0.00  0.00     0.240 C 
ATOM     23  O   UNL d   1      30.300 -14.822   5.830  0.00  0.00    -0.272 OA
ATOM     24  H   UNL d   1      29.390 -13.754   2.947  0.00  0.00     0.190 HD
BRANCH  22  25
ATOM     25  C   UNL d   1      28.201 -13.642   5.332  0.00  0.00     0.144 C 
BRANCH  25  26
ATOM     26  C   UNL d   1      27.584 -12.922   4.134  0.00  0.00    -0.038 A 
ATOM     27  C   UNL d   1      27.026 -13.699   3.101  0.00  0.00     0.008 A 
ATOM     28  C   UNL d   1      26.587 -13.108   1.918  0.00  0.00     0.001 A 
ATOM     29  C   UNL d   1      26.683 -11.728   1.751  0.00  0.00     0.012 A 
ATOM     30  C   UNL d   1      27.183 -10.917   2.780  0.00  0.00    -0.025 A 
ATOM     31  C   UNL d   1      27.235  -9.521   2.616  0.00  0.00     0.012 A 
ATOM     32  C   UNL d   1      27.645 -11.508   3.987  0.00  0.00    -0.019 A 
ATOM     33  C   UNL d   1      27.726  -8.698   3.629  0.00  0.00     0.001 A 
ATOM     34  C   UNL d   1      28.182  -9.261   4.812  0.00  0.00     0.001 A 
ATOM     35  C   UNL d   1      28.150 -10.645   4.983  0.00  0.00     0.013 A 
ENDBRANCH  25  26
ENDBRANCH  22  25
ENDBRANCH  19  21
ENDBRANCH   1  19
TORSDOF 10
ENDMDL
MODEL 7
REMARK VINA RESULT:    -7.469      3.921      9.097
REMARK INTER + INTRA:         -13.571
REMARK INTER:                 -10.452
REMARK INTRA:                  -3.120
REMARK CONF_INDEPENDENT:        2.983
REMARK UNBOUND:                -3.120
REMARK  10 active torsions:
REMARK  status: ('A' for Active; 'I' for Inactive)
REMARK    1  A    between atoms: O_2  and  C_3 
REMARK    2  A    between atoms: C_3  and  C_4 
REMARK    3  A    between atoms: C_4  and  O_5 
REMARK    4  A    between atoms: O_5  and  C_6 
REMARK    5  A    between atoms: C_9  and  C_10 
REMARK       I    between atoms: C_10  and  N_12 
REMARK    6  A    between atoms: N_12  and  C_13 
REMARK    7  A    between atoms: C_13  and  N_15 
REMARK    8  A    between atoms: N_15  and  N_16 
REMARK       I    between atoms: N_16  and  C_17 
REMARK    9  A    between atoms: C_17  and  C_19 
REMARK   10  A    between atoms: C_19  and  C_20 
ROOT
ATOM      1  C   UNL d   1      26.590 -10.799  -3.348  0.00  0.00     0.193 C 
ATOM      2  S   UNL d   1      27.305  -9.462  -4.090  0.00  0.00    -0.039 SA
ENDROOT
BRANCH   1   3
ATOM      3  N   UNL d   1      26.655 -11.095  -1.965  0.00  0.00    -0.298 N 
ATOM      4  C   UNL d   1      27.281 -12.222  -1.368  0.00  0.00     0.257 C 
ATOM      5  O   UNL d   1      27.867 -13.100  -2.008  0.00  0.00    -0.267 OA
ATOM      6  H   UNL d   1      26.206 -10.430  -1.353  0.00  0.00     0.171 HD
BRANCH   4   7
ATOM      7  C   UNL d   1      27.278 -12.437   0.120  0.00  0.00     0.033 A 
ATOM      8  C   UNL d   1      27.505 -13.735   0.632  0.00  0.00     0.020 A 
ATOM      9  C   UNL d   1      27.529 -13.989   2.017  0.00  0.00     0.039 A 
ATOM     10  C   UNL d   1      27.309 -12.951   2.936  0.00  0.00     0.086 A 
ATOM     11  C   UNL d   1      27.123 -11.654   2.426  0.00  0.00     0.045 A 
ATOM     12  C   UNL d   1      27.089 -11.412   1.037  0.00  0.00     0.039 A 
ATOM     13 BR   UNL d   1      27.030 -10.050   3.451  0.00  0.00    -0.048 Br
BRANCH  10  14
ATOM     14  O   UNL d   1      27.405 -13.315   4.256  0.00  0.00    -0.348 OA
BRANCH  14  15
ATOM     15  C   UNL d   1      28.014 -14.585   4.510  0.00  0.00     0.201 C 
BRANCH  15  16
ATOM     16  C   UNL d   1      28.775 -14.557   5.830  0.00  0.00     0.193 C 
BRANCH  16  17
ATOM     17  O   UNL d   1      28.155 -13.604   6.699  0.00  0.00    -0.394 OA
ATOM     18  C   UNL d   1      28.949 -12.431   6.817  0.00  0.00     0.201 C 
ENDBRANCH  16  17
ENDBRANCH  15  16
ENDBRANCH  14  15
ENDBRANCH  10  14
ENDBRANCH   4   7
ENDBRANCH   1   3
BRANCH   1  19
ATOM     19  N   UNL d   1      25.865 -11.715  -4.130  0.00  0.00    -0.273 N 
ATOM     20  H   UNL d   1      25.057 -11.512  -4.718  0.00  0.00     0.189 HD
BRANCH  19  21
ATOM     21  N   UNL d   1      26.270 -13.110  -4.132  0.00  0.00    -0.268 N 
ATOM     22  C   UNL d   1      25.330 -14.126  -4.209  0.00  0.00     0.240 C 
ATOM     23  O   UNL d   1      24.129 -13.863  -4.270  0.00  0.00    -0.272 OA
ATOM     24  H   UNL d   1      27.276 -13.277  -4.091  0.00  0.00     0.190 HD
BRANCH  22  25
ATOM     25  C   UNL d   1      25.906 -15.561  -4.220  0.00  0.00     0.144 C 
BRANCH  25  26
ATOM     26  C   UNL d   1      26.538 -15.950  -2.885  0.00  0.00    -0.038 A 
ATOM     27  C   UNL d   1      27.920 -15.741  -2.713  0.00  0.00     0.008 A 
ATOM     28  C   UNL d   1      28.579 -16.213  -1.579  0.00  0.00     0.001 A 
ATOM     29  C   UNL d   1      27.868 -16.889  -0.590  0.00  0.00     0.012 A 
ATOM     30  C   UNL d   1      26.481 -17.067  -0.703  0.00  0.00    -0.025 A 
ATOM     31  C   UNL d   1      25.767 -17.714   0.322  0.00  0.00     0.012 A 
ATOM     32  C   UNL d   1      25.798 -16.601  -1.859  0.00  0.00    -0.019 A 
ATOM     33  C   UNL d   1      24.388 -17.897   0.230  0.00  0.00     0.001 A 
ATOM     34  C   UNL d   1      23.708 -17.449  -0.894  0.00  0.00     0.001 A 
ATOM     35  C   UNL d   1      24.405 -16.819  -1.925  0.00  0.00     0.013 A 
ENDBRANCH  25  26
ENDBRANCH  22  25
ENDBRANCH  19  21
ENDBRANCH   1  19
TORSDOF 10
ENDMDL
MODEL 8
REMARK VINA RESULT:    -7.439      7.774      9.648
REMARK INTER + INTRA:         -13.298
REMARK INTER:                 -10.422
REMARK INTRA:                  -2.875
REMARK CONF_INDEPENDENT:        2.983
REMARK UNBOUND:                -2.875
REMARK  10 active torsions:
REMARK  status: ('A' for Active; 'I' for Inactive)
REMARK    1  A    between atoms: O_2  and  C_3 
REMARK    2  A    between atoms: C_3  and  C_4 
REMARK    3  A    between atoms: C_4  and  O_5 
REMARK    4  A    between atoms: O_5  and  C_6 
REMARK    5  A    between atoms: C_9  and  C_10 
REMARK       I    between atoms: C_10  and  N_12 
REMARK    6  A    between atoms: N_12  and  C_13 
REMARK    7  A    between atoms: C_13  and  N_15 
REMARK    8  A    between atoms: N_15  and  N_16 
REMARK       I    between atoms: N_16  and  C_17 
REMARK    9  A    between atoms: C_17  and  C_19 
REMARK   10  A    between atoms: C_19  and  C_20 
ROOT
ATOM      1  C   UNL d   1      27.624 -12.343  -6.525  0.00  0.00     0.193 C 
ATOM      2  S   UNL d   1      27.455 -11.447  -7.946  0.00  0.00    -0.039 SA
ENDROOT
BRANCH   1   3
ATOM      3  N   UNL d   1      28.585 -13.359  -6.312  0.00  0.00    -0.298 N 
ATOM      4  C   UNL d   1      28.324 -14.730  -6.043  0.00  0.00     0.257 C 
ATOM      5  O   UNL d   1      27.189 -15.210  -5.968  0.00  0.00    -0.267 OA
ATOM      6  H   UNL d   1      29.549 -13.067  -6.359  0.00  0.00     0.171 HD
BRANCH   4   7
ATOM      7  C   UNL d   1      29.433 -15.722  -5.825  0.00  0.00     0.033 A 
ATOM      8  C   UNL d   1      29.426 -16.521  -4.659  0.00  0.00     0.020 A 
ATOM      9  C   UNL d   1      30.431 -17.477  -4.413  0.00  0.00     0.039 A 
ATOM     10  C   UNL d   1      31.487 -17.650  -5.320  0.00  0.00     0.086 A 
ATOM     11  C   UNL d   1      31.471 -16.882  -6.497  0.00  0.00     0.045 A 
ATOM     12  C   UNL d   1      30.467 -15.920  -6.729  0.00  0.00     0.039 A 
ATOM     13 BR   UNL d   1      32.650 -17.082  -7.981  0.00  0.00    -0.048 Br
BRANCH  10  14
ATOM     14  O   UNL d   1      32.376 -18.644  -4.993  0.00  0.00    -0.348 OA
BRANCH  14  15
ATOM     15  C   UNL d   1      32.328 -19.818  -5.810  0.00  0.00     0.201 C 
BRANCH  15  16
ATOM     16  C   UNL d   1      30.928 -20.418  -5.801  0.00  0.00     0.193 C 
BRANCH  16  17
ATOM     17  O   UNL d   1      30.167 -19.827  -6.859  0.00  0.00    -0.394 OA
ATOM     18  C   UNL d   1      30.769 -20.077  -8.121  0.00  0.00     0.201 C 
ENDBRANCH  16  17
ENDBRANCH  15  16
ENDBRANCH  14  15
ENDBRANCH  10  14
ENDBRANCH   4   7
ENDBRANCH   1   3
BRANCH   1  19
ATOM     19  N   UNL d   1      26.760 -12.090  -5.445  0.00  0.00    -0.273 N 
ATOM     20  H   UNL d   1      26.589 -11.191  -4.996  0.00  0.00     0.189 HD
BRANCH  19  21
ATOM     21  N   UNL d   1      26.012 -13.196  -4.872  0.00  0.00    -0.268 N 
ATOM     22  C   UNL d   1      25.435 -13.091  -3.616  0.00  0.00     0.240 C 
ATOM     23  O   UNL d   1      25.551 -12.058  -2.958  0.00  0.00    -0.272 OA
ATOM     24  H   UNL d   1      25.934 -14.026  -5.459  0.00  0.00     0.190 HD
BRANCH  22  25
ATOM     25  C   UNL d   1      24.653 -14.339  -3.141  0.00  0.00     0.144 C 
BRANCH  25  26
ATOM     26  C   UNL d   1      25.497 -15.260  -2.262  0.00  0.00    -0.038 A 
ATOM     27  C   UNL d   1      26.900 -15.165  -2.346  0.00  0.00     0.008 A 
ATOM     28  C   UNL d   1      27.720 -16.078  -1.686  0.00  0.00     0.001 A 
ATOM     29  C   UNL d   1      27.155 -17.093  -0.917  0.00  0.00     0.012 A 
ATOM     30  C   UNL d   1      25.763 -17.185  -0.767  0.00  0.00    -0.025 A 
ATOM     31  C   UNL d   1      25.206 -18.188   0.047  0.00  0.00     0.012 A 
ATOM     32  C   UNL d   1      24.915 -16.267  -1.444  0.00  0.00    -0.019 A 
ATOM     33  C   UNL d   1      23.826 -18.294   0.211  0.00  0.00     0.001 A 
ATOM     34  C   UNL d   1      22.985 -17.406  -0.445  0.00  0.00     0.001 A 
ATOM     35  C   UNL d   1      23.523 -16.415  -1.267  0.00  0.00     0.013 A 
ENDBRANCH  25  26
ENDBRANCH  22  25
ENDBRANCH  19  21
ENDBRANCH   1  19
TORSDOF 10
ENDMDL
MODEL 9
REMARK VINA RESULT:    -7.309      7.689     10.968
REMARK INTER + INTRA:         -13.153
REMARK INTER:                 -10.292
REMARK INTRA:                  -2.860
REMARK CONF_INDEPENDENT:        2.983
REMARK UNBOUND:                -2.860
REMARK  10 active torsions:
REMARK  status: ('A' for Active; 'I' for Inactive)
REMARK    1  A    between atoms: O_2  and  C_3 
REMARK    2  A    between atoms: C_3  and  C_4 
REMARK    3  A    between atoms: C_4  and  O_5 
REMARK    4  A    between atoms: O_5  and  C_6 
REMARK    5  A    between atoms: C_9  and  C_10 
REMARK       I    between atoms: C_10  and  N_12 
REMARK    6  A    between atoms: N_12  and  C_13 
REMARK    7  A    between atoms: C_13  and  N_15 
REMARK    8  A    between atoms: N_15  and  N_16 
REMARK       I    between atoms: N_16  and  C_17 
REMARK    9  A    between atoms: C_17  and  C_19 
REMARK   10  A    between atoms: C_19  and  C_20 
ROOT
ATOM      1  C   UNL d   1      28.116 -12.790  -7.153  0.00  0.00     0.193 C 
ATOM      2  S   UNL d   1      27.525 -11.435  -7.968  0.00  0.00    -0.039 SA
ENDROOT
BRANCH   1   3
ATOM      3  N   UNL d   1      27.646 -13.258  -5.903  0.00  0.00    -0.298 N 
ATOM      4  C   UNL d   1      27.499 -14.615  -5.508  0.00  0.00     0.257 C 
ATOM      5  O   UNL d   1      27.779 -15.575  -6.232  0.00  0.00    -0.267 OA
ATOM      6  H   UNL d   1      27.395 -12.546  -5.235  0.00  0.00     0.171 HD
BRANCH   4   7
ATOM      7  C   UNL d   1      26.979 -14.995  -4.148  0.00  0.00     0.033 A 
ATOM      8  C   UNL d   1      25.613 -14.791  -3.849  0.00  0.00     0.020 A 
ATOM      9  C   UNL d   1      25.070 -15.144  -2.598  0.00  0.00     0.039 A 
ATOM     10  C   UNL d   1      25.886 -15.696  -1.598  0.00  0.00     0.086 A 
ATOM     11  C   UNL d   1      27.236 -15.933  -1.911  0.00  0.00     0.045 A 
ATOM     12  C   UNL d   1      27.772 -15.566  -3.163  0.00  0.00     0.039 A 
ATOM     13 BR   UNL d   1      28.490 -16.870  -0.825  0.00  0.00    -0.048 Br
BRANCH  10  14
ATOM     14  O   UNL d   1      25.232 -16.042  -0.442  0.00  0.00    -0.348 OA
BRANCH  14  15
ATOM     15  C   UNL d   1      23.969 -16.694  -0.610  0.00  0.00     0.201 C 
BRANCH  15  16
ATOM     16  C   UNL d   1      24.155 -18.204  -0.688  0.00  0.00     0.193 C 
BRANCH  16  17
ATOM     17  O   UNL d   1      22.994 -18.840  -0.144  0.00  0.00    -0.394 OA
ATOM     18  C   UNL d   1      21.834 -18.507  -0.894  0.00  0.00     0.201 C 
ENDBRANCH  16  17
ENDBRANCH  15  16
ENDBRANCH  14  15
ENDBRANCH  10  14
ENDBRANCH   4   7
ENDBRANCH   1   3
BRANCH   1  19
ATOM     19  N   UNL d   1      29.157 -13.539  -7.729  0.00  0.00    -0.273 N 
ATOM     20  H   UNL d   1      29.373 -13.624  -8.723  0.00  0.00     0.189 HD
BRANCH  19  21
ATOM     21  N   UNL d   1      30.043 -14.293  -6.859  0.00  0.00    -0.268 N 
ATOM     22  C   UNL d   1      31.330 -14.616  -7.259  0.00  0.00     0.240 C 
ATOM     23  O   UNL d   1      31.746 -14.275  -8.366  0.00  0.00    -0.272 OA
ATOM     24  H   UNL d   1      29.657 -14.544  -5.949  0.00  0.00     0.190 HD
BRANCH  22  25
ATOM     25  C   UNL d   1      32.166 -15.405  -6.224  0.00  0.00     0.144 C 
BRANCH  25  26
ATOM     26  C   UNL d   1      31.453 -16.662  -5.730  0.00  0.00    -0.038 A 
ATOM     27  C   UNL d   1      31.086 -16.735  -4.372  0.00  0.00     0.008 A 
ATOM     28  C   UNL d   1      30.572 -17.912  -3.832  0.00  0.00     0.001 A 
ATOM     29  C   UNL d   1      30.402 -19.033  -4.640  0.00  0.00     0.012 A 
ATOM     30  C   UNL d   1      30.705 -18.981  -6.008  0.00  0.00    -0.025 A 
ATOM     31  C   UNL d   1      30.488 -20.107  -6.823  0.00  0.00     0.012 A 
ATOM     32  C   UNL d   1      31.240 -17.791  -6.570  0.00  0.00    -0.019 A 
ATOM     33  C   UNL d   1      30.781 -20.073  -8.185  0.00  0.00     0.001 A 
ATOM     34  C   UNL d   1      31.306 -18.919  -8.748  0.00  0.00     0.001 A 
ATOM     35  C   UNL d   1      31.540 -17.799  -7.950  0.00  0.00     0.013 A 
ENDBRANCH  25  26
ENDBRANCH  22  25
ENDBRANCH  19  21
ENDBRANCH   1  19
TORSDOF 10
ENDMDL
