MODEL 1
REMARK VINA RESULT:    -8.560      0.000      0.000
REMARK INTER + INTRA:         -11.362
REMARK INTER:                 -10.350
REMARK INTRA:                  -1.012
REMARK CONF_INDEPENDENT:        1.790
REMARK UNBOUND:                -1.012
REMARK  6 active torsions:
REMARK  status: ('A' for Active; 'I' for Inactive)
REMARK    1  A    between atoms: O_2  and  C_3 
REMARK    2  A    between atoms: C_9  and  N_10 
REMARK    3  A    between atoms: C_11  and  N_10 
REMARK    4  A    between atoms: C_11  and  C_13 
REMARK       I    between atoms: C_13  and  N_15 
REMARK       I    between atoms: N_15  and  C_16 
REMARK       I    between atoms: C_16  and  N_18 
REMARK    5  A    between atoms: N_18  and  C_19 
REMARK    6  A    between atoms: C_19  and  C_20 
ROOT
ATOM      1  C   UNL d   1      25.190 -17.617  -0.300  0.00  0.00     0.247 C 
ATOM      2  O   UNL d   1      25.555 -18.778  -0.097  0.00  0.00    -0.271 OA
ATOM      3  N   UNL d   1      23.870 -17.303  -0.600  0.00  0.00    -0.278 N 
ATOM      4  C   UNL d   1      22.916 -18.311  -0.618  0.00  0.00     0.323 C 
ATOM      5  O   UNL d   1      23.143 -19.492  -0.407  0.00  0.00    -0.247 OA
ATOM      6  N   UNL d   1      21.631 -17.918  -0.955  0.00  0.00    -0.339 N 
ATOM      7  H   UNL d   1      23.608 -16.351  -0.777  0.00  0.00     0.173 HD
ATOM      8  H   UNL d   1      21.438 -17.001  -1.318  0.00  0.00     0.164 HD
ENDROOT
BRANCH   1   9
ATOM      9  C   UNL d   1      26.238 -16.465  -0.154  0.00  0.00     0.170 C 
ATOM     10  C   UNL d   1      27.589 -17.205  -0.108  0.00  0.00     0.042 C 
BRANCH   9  11
ATOM     11  N   UNL d   1      26.148 -15.456  -1.250  0.00  0.00    -0.375 N 
ATOM     12  H   UNL d   1      25.709 -14.566  -1.025  0.00  0.00     0.160 HD
BRANCH  11  13
ATOM     13  C   UNL d   1      26.837 -15.416  -2.470  0.00  0.00     0.063 A 
ATOM     14  C   UNL d   1      28.187 -15.755  -2.615  0.00  0.00     0.038 A 
ATOM     15  C   UNL d   1      28.892 -15.868  -3.815  0.00  0.00    -0.060 A 
ATOM     16  C   UNL d   1      28.224 -15.574  -4.983  0.00  0.00     0.009 A 
ATOM     17  C   UNL d   1      30.321 -16.322  -3.735  0.00  0.00     0.048 C 
ATOM     18  C   UNL d   1      26.876 -15.198  -4.917  0.00  0.00     0.039 A 
ATOM     19  C   UNL d   1      26.176 -15.149  -3.687  0.00  0.00     0.094 A 
BRANCH  19  20
ATOM     20  O   UNL d   1      24.852 -14.764  -3.617  0.00  0.00    -0.354 OA
ATOM     21  C   UNL d   1      24.616 -13.410  -4.008  0.00  0.00     0.210 C 
ENDBRANCH  19  20
ENDBRANCH  11  13
ENDBRANCH   9  11
ENDBRANCH   1   9
BRANCH   6  22
ATOM     22  C   UNL d   1      20.642 -18.973  -1.256  0.00  0.00     0.162 C 
BRANCH  22  23
ATOM     23  C   UNL d   1      19.978 -19.573  -0.024  0.00  0.00    -0.040 A 
ATOM     24  C   UNL d   1      20.497 -19.362   1.267  0.00  0.00     0.009 A 
ATOM     25  C   UNL d   1      19.906 -19.982   2.380  0.00  0.00     0.001 A 
ATOM     26  C   UNL d   1      18.807 -20.825   2.221  0.00  0.00     0.000 A 
ATOM     27  C   UNL d   1      18.286 -21.040   0.955  0.00  0.00     0.001 A 
ATOM     28  C   UNL d   1      18.860 -20.411  -0.144  0.00  0.00     0.009 A 
ENDBRANCH  22  23
ENDBRANCH   6  22
TORSDOF 6
ENDMDL
MODEL 2
REMARK VINA RESULT:    -8.279      1.435      2.111
REMARK INTER + INTRA:         -11.341
REMARK INTER:                 -10.068
REMARK INTRA:                  -1.272
REMARK CONF_INDEPENDENT:        1.790
REMARK UNBOUND:                -1.272
REMARK  6 active torsions:
REMARK  status: ('A' for Active; 'I' for Inactive)
REMARK    1  A    between atoms: O_2  and  C_3 
REMARK    2  A    between atoms: C_9  and  N_10 
REMARK    3  A    between atoms: C_11  and  N_10 
REMARK    4  A    between atoms: C_11  and  C_13 
REMARK       I    between atoms: C_13  and  N_15 
REMARK       I    between atoms: N_15  and  C_16 
REMARK       I    between atoms: C_16  and  N_18 
REMARK    5  A    between atoms: N_18  and  C_19 
REMARK    6  A    between atoms: C_19  and  C_20 
ROOT
ATOM      1  C   UNL d   1      24.994 -17.635  -0.478  0.00  0.00     0.247 C 
ATOM      2  O   UNL d   1      25.383 -18.765  -0.172  0.00  0.00    -0.271 OA
ATOM      3  N   UNL d   1      23.667 -17.374  -0.794  0.00  0.00    -0.278 N 
ATOM      4  C   UNL d   1      22.733 -18.397  -0.712  0.00  0.00     0.323 C 
ATOM      5  O   UNL d   1      22.983 -19.549  -0.396  0.00  0.00    -0.247 OA
ATOM      6  N   UNL d   1      21.438 -18.060  -1.072  0.00  0.00    -0.339 N 
ATOM      7  H   UNL d   1      23.386 -16.447  -1.054  0.00  0.00     0.173 HD
ATOM      8  H   UNL d   1      21.225 -17.184  -1.516  0.00  0.00     0.164 HD
ENDROOT
BRANCH   1   9
ATOM      9  C   UNL d   1      26.021 -16.455  -0.445  0.00  0.00     0.170 C 
ATOM     10  C   UNL d   1      27.262 -17.069   0.231  0.00  0.00     0.042 C 
BRANCH   9  11
ATOM     11  N   UNL d   1      26.299 -15.890  -1.799  0.00  0.00    -0.375 N 
ATOM     12  H   UNL d   1      26.310 -16.542  -2.580  0.00  0.00     0.160 HD
BRANCH  11  13
ATOM     13  C   UNL d   1      26.254 -14.555  -2.222  0.00  0.00     0.063 A 
ATOM     14  C   UNL d   1      26.802 -13.489  -1.500  0.00  0.00     0.038 A 
ATOM     15  C   UNL d   1      26.913 -12.164  -1.928  0.00  0.00    -0.060 A 
ATOM     16  C   UNL d   1      26.392 -11.842  -3.161  0.00  0.00     0.009 A 
ATOM     17  C   UNL d   1      27.611 -11.200  -1.012  0.00  0.00     0.048 C 
ATOM     18  C   UNL d   1      25.799 -12.849  -3.932  0.00  0.00     0.039 A 
ATOM     19  C   UNL d   1      25.755 -14.195  -3.492  0.00  0.00     0.094 A 
BRANCH  19  20
ATOM     20  O   UNL d   1      25.158 -15.188  -4.242  0.00  0.00    -0.354 OA
ATOM     21  C   UNL d   1      25.903 -15.573  -5.399  0.00  0.00     0.210 C 
ENDBRANCH  19  20
ENDBRANCH  11  13
ENDBRANCH   9  11
ENDBRANCH   1   9
BRANCH   6  22
ATOM     22  C   UNL d   1      20.468 -19.156  -1.268  0.00  0.00     0.162 C 
BRANCH  22  23
ATOM     23  C   UNL d   1      19.859 -19.686   0.023  0.00  0.00    -0.040 A 
ATOM     24  C   UNL d   1      20.461 -19.447   1.272  0.00  0.00     0.009 A 
ATOM     25  C   UNL d   1      19.918 -20.004   2.441  0.00  0.00     0.001 A 
ATOM     26  C   UNL d   1      18.783 -20.811   2.380  0.00  0.00     0.000 A 
ATOM     27  C   UNL d   1      18.180 -21.053   1.156  0.00  0.00     0.001 A 
ATOM     28  C   UNL d   1      18.707 -20.487   0.001  0.00  0.00     0.009 A 
ENDBRANCH  22  23
ENDBRANCH   6  22
TORSDOF 6
ENDMDL
MODEL 3
REMARK VINA RESULT:    -7.999      1.728      2.689
REMARK INTER + INTRA:         -10.956
REMARK INTER:                  -9.788
REMARK INTRA:                  -1.167
REMARK CONF_INDEPENDENT:        1.790
REMARK UNBOUND:                -1.167
REMARK  6 active torsions:
REMARK  status: ('A' for Active; 'I' for Inactive)
REMARK    1  A    between atoms: O_2  and  C_3 
REMARK    2  A    between atoms: C_9  and  N_10 
REMARK    3  A    between atoms: C_11  and  N_10 
REMARK    4  A    between atoms: C_11  and  C_13 
REMARK       I    between atoms: C_13  and  N_15 
REMARK       I    between atoms: N_15  and  C_16 
REMARK       I    between atoms: C_16  and  N_18 
REMARK    5  A    between atoms: N_18  and  C_19 
REMARK    6  A    between atoms: C_19  and  C_20 
ROOT
ATOM      1  C   UNL d   1      25.379 -16.883  -0.147  0.00  0.00     0.247 C 
ATOM      2  O   UNL d   1      25.071 -15.814  -0.680  0.00  0.00    -0.271 OA
ATOM      3  N   UNL d   1      24.486 -17.943  -0.054  0.00  0.00    -0.278 N 
ATOM      4  C   UNL d   1      23.225 -17.825  -0.624  0.00  0.00     0.323 C 
ATOM      5  O   UNL d   1      22.809 -16.834  -1.201  0.00  0.00    -0.247 OA
ATOM      6  N   UNL d   1      22.387 -18.916  -0.460  0.00  0.00    -0.339 N 
ATOM      7  H   UNL d   1      24.763 -18.794   0.400  0.00  0.00     0.173 HD
ATOM      8  H   UNL d   1      22.617 -19.670   0.165  0.00  0.00     0.164 HD
ENDROOT
BRANCH   1   9
ATOM      9  C   UNL d   1      26.841 -17.063   0.380  0.00  0.00     0.170 C 
ATOM     10  C   UNL d   1      27.101 -18.574   0.230  0.00  0.00     0.042 C 
BRANCH   9  11
ATOM     11  N   UNL d   1      27.828 -16.213  -0.347  0.00  0.00    -0.375 N 
ATOM     12  H   UNL d   1      28.608 -15.843   0.192  0.00  0.00     0.160 HD
BRANCH  11  13
ATOM     13  C   UNL d   1      28.026 -16.077  -1.728  0.00  0.00     0.063 A 
ATOM     14  C   UNL d   1      27.016 -15.723  -2.630  0.00  0.00     0.038 A 
ATOM     15  C   UNL d   1      27.176 -15.439  -3.988  0.00  0.00    -0.060 A 
ATOM     16  C   UNL d   1      28.437 -15.561  -4.526  0.00  0.00     0.009 A 
ATOM     17  C   UNL d   1      25.956 -15.001  -4.749  0.00  0.00     0.048 C 
ATOM     18  C   UNL d   1      29.496 -15.941  -3.693  0.00  0.00     0.039 A 
ATOM     19  C   UNL d   1      29.309 -16.167  -2.307  0.00  0.00     0.094 A 
BRANCH  19  20
ATOM     20  O   UNL d   1      30.348 -16.556  -1.486  0.00  0.00    -0.354 OA
ATOM     21  C   UNL d   1      30.342 -17.947  -1.157  0.00  0.00     0.210 C 
ENDBRANCH  19  20
ENDBRANCH  11  13
ENDBRANCH   9  11
ENDBRANCH   1   9
BRANCH   6  22
ATOM     22  C   UNL d   1      20.960 -18.747  -0.798  0.00  0.00     0.162 C 
BRANCH  22  23
ATOM     23  C   UNL d   1      20.009 -19.517   0.108  0.00  0.00    -0.040 A 
ATOM     24  C   UNL d   1      20.272 -19.679   1.481  0.00  0.00     0.009 A 
ATOM     25  C   UNL d   1      19.416 -20.450   2.283  0.00  0.00     0.001 A 
ATOM     26  C   UNL d   1      18.302 -21.078   1.728  0.00  0.00     0.000 A 
ATOM     27  C   UNL d   1      18.031 -20.926   0.378  0.00  0.00     0.001 A 
ATOM     28  C   UNL d   1      18.868 -20.146  -0.411  0.00  0.00     0.009 A 
ENDBRANCH  22  23
ENDBRANCH   6  22
TORSDOF 6
ENDMDL
MODEL 4
REMARK VINA RESULT:    -7.973      2.708      3.885
REMARK INTER + INTRA:         -10.914
REMARK INTER:                  -9.762
REMARK INTRA:                  -1.151
REMARK CONF_INDEPENDENT:        1.790
REMARK UNBOUND:                -1.151
REMARK  6 active torsions:
REMARK  status: ('A' for Active; 'I' for Inactive)
REMARK    1  A    between atoms: O_2  and  C_3 
REMARK    2  A    between atoms: C_9  and  N_10 
REMARK    3  A    between atoms: C_11  and  N_10 
REMARK    4  A    between atoms: C_11  and  C_13 
REMARK       I    between atoms: C_13  and  N_15 
REMARK       I    between atoms: N_15  and  C_16 
REMARK       I    between atoms: C_16  and  N_18 
REMARK    5  A    between atoms: N_18  and  C_19 
REMARK    6  A    between atoms: C_19  and  C_20 
ROOT
ATOM      1  C   UNL d   1      26.087 -17.094  -0.370  0.00  0.00     0.247 C 
ATOM      2  O   UNL d   1      25.947 -16.279  -1.286  0.00  0.00    -0.271 OA
ATOM      3  N   UNL d   1      25.061 -17.945   0.020  0.00  0.00    -0.278 N 
ATOM      4  C   UNL d   1      23.858 -17.926  -0.672  0.00  0.00     0.323 C 
ATOM      5  O   UNL d   1      23.604 -17.189  -1.611  0.00  0.00    -0.247 OA
ATOM      6  N   UNL d   1      22.878 -18.785  -0.200  0.00  0.00    -0.339 N 
ATOM      7  H   UNL d   1      25.201 -18.585   0.780  0.00  0.00     0.173 HD
ATOM      8  H   UNL d   1      22.976 -19.266   0.677  0.00  0.00     0.164 HD
ENDROOT
BRANCH   1   9
ATOM      9  C   UNL d   1      27.484 -17.206   0.326  0.00  0.00     0.170 C 
ATOM     10  C   UNL d   1      28.470 -17.329  -0.852  0.00  0.00     0.042 C 
BRANCH   9  11
ATOM     11  N   UNL d   1      27.775 -16.055   1.230  0.00  0.00    -0.375 N 
ATOM     12  H   UNL d   1      28.370 -16.238   2.036  0.00  0.00     0.160 HD
BRANCH  11  13
ATOM     13  C   UNL d   1      27.608 -14.684   0.993  0.00  0.00     0.063 A 
ATOM     14  C   UNL d   1      27.567 -14.112  -0.284  0.00  0.00     0.038 A 
ATOM     15  C   UNL d   1      27.268 -12.783  -0.590  0.00  0.00    -0.060 A 
ATOM     16  C   UNL d   1      27.033 -11.920   0.456  0.00  0.00     0.009 A 
ATOM     17  C   UNL d   1      27.206 -12.408  -2.044  0.00  0.00     0.048 C 
ATOM     18  C   UNL d   1      27.085 -12.411   1.766  0.00  0.00     0.039 A 
ATOM     19  C   UNL d   1      27.335 -13.778   2.039  0.00  0.00     0.094 A 
BRANCH  19  20
ATOM     20  O   UNL d   1      27.402 -14.262   3.330  0.00  0.00    -0.354 OA
ATOM     21  C   UNL d   1      28.733 -14.450   3.815  0.00  0.00     0.210 C 
ENDBRANCH  19  20
ENDBRANCH  11  13
ENDBRANCH   9  11
ENDBRANCH   1   9
BRANCH   6  22
ATOM     22  C   UNL d   1      21.505 -18.614  -0.714  0.00  0.00     0.162 C 
BRANCH  22  23
ATOM     23  C   UNL d   1      20.440 -19.329   0.107  0.00  0.00    -0.040 A 
ATOM     24  C   UNL d   1      20.489 -19.354   1.513  0.00  0.00     0.009 A 
ATOM     25  C   UNL d   1      19.534 -20.076   2.245  0.00  0.00     0.001 A 
ATOM     26  C   UNL d   1      18.531 -20.790   1.590  0.00  0.00     0.000 A 
ATOM     27  C   UNL d   1      18.470 -20.772   0.206  0.00  0.00     0.001 A 
ATOM     28  C   UNL d   1      19.405 -20.041  -0.518  0.00  0.00     0.009 A 
ENDBRANCH  22  23
ENDBRANCH   6  22
TORSDOF 6
ENDMDL
MODEL 5
REMARK VINA RESULT:    -7.847      1.606      2.135
REMARK INTER + INTRA:         -11.102
REMARK INTER:                  -9.637
REMARK INTRA:                  -1.466
REMARK CONF_INDEPENDENT:        1.790
REMARK UNBOUND:                -1.466
REMARK  6 active torsions:
REMARK  status: ('A' for Active; 'I' for Inactive)
REMARK    1  A    between atoms: O_2  and  C_3 
REMARK    2  A    between atoms: C_9  and  N_10 
REMARK    3  A    between atoms: C_11  and  N_10 
REMARK    4  A    between atoms: C_11  and  C_13 
REMARK       I    between atoms: C_13  and  N_15 
REMARK       I    between atoms: N_15  and  C_16 
REMARK       I    between atoms: C_16  and  N_18 
REMARK    5  A    between atoms: N_18  and  C_19 
REMARK    6  A    between atoms: C_19  and  C_20 
ROOT
ATOM      1  C   UNL d   1      25.508 -17.631  -0.126  0.00  0.00     0.247 C 
ATOM      2  O   UNL d   1      25.840 -18.818  -0.189  0.00  0.00    -0.271 OA
ATOM      3  N   UNL d   1      24.195 -17.224  -0.324  0.00  0.00    -0.278 N 
ATOM      4  C   UNL d   1      23.210 -18.177  -0.545  0.00  0.00     0.323 C 
ATOM      5  O   UNL d   1      23.403 -19.380  -0.603  0.00  0.00    -0.247 OA
ATOM      6  N   UNL d   1      21.933 -17.684  -0.763  0.00  0.00    -0.339 N 
ATOM      7  H   UNL d   1      23.960 -16.249  -0.282  0.00  0.00     0.173 HD
ATOM      8  H   UNL d   1      21.764 -16.704  -0.912  0.00  0.00     0.164 HD
ENDROOT
BRANCH   1   9
ATOM      9  C   UNL d   1      26.593 -16.569   0.250  0.00  0.00     0.170 C 
ATOM     10  C   UNL d   1      27.876 -17.106  -0.413  0.00  0.00     0.042 C 
BRANCH   9  11
ATOM     11  N   UNL d   1      26.229 -15.189  -0.185  0.00  0.00    -0.375 N 
ATOM     12  H   UNL d   1      26.036 -14.507   0.545  0.00  0.00     0.160 HD
BRANCH  11  13
ATOM     13  C   UNL d   1      26.396 -14.589  -1.441  0.00  0.00     0.063 A 
ATOM     14  C   UNL d   1      26.198 -15.253  -2.657  0.00  0.00     0.038 A 
ATOM     15  C   UNL d   1      26.214 -14.680  -3.930  0.00  0.00    -0.060 A 
ATOM     16  C   UNL d   1      26.500 -13.337  -4.026  0.00  0.00     0.009 A 
ATOM     17  C   UNL d   1      25.897 -15.576  -5.093  0.00  0.00     0.048 C 
ATOM     18  C   UNL d   1      26.740 -12.608  -2.855  0.00  0.00     0.039 A 
ATOM     19  C   UNL d   1      26.659 -13.209  -1.575  0.00  0.00     0.094 A 
BRANCH  19  20
ATOM     20  O   UNL d   1      26.910 -12.497  -0.419  0.00  0.00    -0.354 OA
ATOM     21  C   UNL d   1      27.773 -11.373  -0.601  0.00  0.00     0.210 C 
ENDBRANCH  19  20
ENDBRANCH  11  13
ENDBRANCH   9  11
ENDBRANCH   1   9
BRANCH   6  22
ATOM     22  C   UNL d   1      20.910 -18.619  -1.270  0.00  0.00     0.162 C 
BRANCH  22  23
ATOM     23  C   UNL d   1      20.131 -19.341  -0.178  0.00  0.00    -0.040 A 
ATOM     24  C   UNL d   1      20.574 -19.350   1.157  0.00  0.00     0.009 A 
ATOM     25  C   UNL d   1      19.875 -20.079   2.133  0.00  0.00     0.001 A 
ATOM     26  C   UNL d   1      18.741 -20.814   1.790  0.00  0.00     0.000 A 
ATOM     27  C   UNL d   1      18.294 -20.812   0.479  0.00  0.00     0.001 A 
ATOM     28  C   UNL d   1      18.975 -20.075  -0.483  0.00  0.00     0.009 A 
ENDBRANCH  22  23
ENDBRANCH   6  22
TORSDOF 6
ENDMDL
MODEL 6
REMARK VINA RESULT:    -7.760      3.286      4.524
REMARK INTER + INTRA:         -10.969
REMARK INTER:                  -9.550
REMARK INTRA:                  -1.419
REMARK CONF_INDEPENDENT:        1.790
REMARK UNBOUND:                -1.419
REMARK  6 active torsions:
REMARK  status: ('A' for Active; 'I' for Inactive)
REMARK    1  A    between atoms: O_2  and  C_3 
REMARK    2  A    between atoms: C_9  and  N_10 
REMARK    3  A    between atoms: C_11  and  N_10 
REMARK    4  A    between atoms: C_11  and  C_13 
REMARK       I    between atoms: C_13  and  N_15 
REMARK       I    between atoms: N_15  and  C_16 
REMARK       I    between atoms: C_16  and  N_18 
REMARK    5  A    between atoms: N_18  and  C_19 
REMARK    6  A    between atoms: C_19  and  C_20 
ROOT
ATOM      1  C   UNL d   1      25.683 -16.615  -0.195  0.00  0.00     0.247 C 
ATOM      2  O   UNL d   1      25.463 -15.807  -1.101  0.00  0.00    -0.271 OA
ATOM      3  N   UNL d   1      24.800 -17.646   0.102  0.00  0.00    -0.278 N 
ATOM      4  C   UNL d   1      23.662 -17.814  -0.675  0.00  0.00     0.323 C 
ATOM      5  O   UNL d   1      23.346 -17.102  -1.615  0.00  0.00    -0.247 OA
ATOM      6  N   UNL d   1      22.820 -18.847  -0.294  0.00  0.00    -0.339 N 
ATOM      7  H   UNL d   1      25.000 -18.276   0.856  0.00  0.00     0.173 HD
ATOM      8  H   UNL d   1      22.942 -19.332   0.578  0.00  0.00     0.164 HD
ENDROOT
BRANCH   1   9
ATOM      9  C   UNL d   1      27.027 -16.504   0.598  0.00  0.00     0.170 C 
ATOM     10  C   UNL d   1      27.983 -17.435  -0.172  0.00  0.00     0.042 C 
BRANCH   9  11
ATOM     11  N   UNL d   1      27.522 -15.100   0.707  0.00  0.00    -0.375 N 
ATOM     12  H   UNL d   1      27.561 -14.554  -0.151  0.00  0.00     0.160 HD
BRANCH  11  13
ATOM     13  C   UNL d   1      27.664 -14.303   1.851  0.00  0.00     0.063 A 
ATOM     14  C   UNL d   1      27.996 -14.804   3.115  0.00  0.00     0.038 A 
ATOM     15  C   UNL d   1      28.286 -14.055   4.257  0.00  0.00    -0.060 A 
ATOM     16  C   UNL d   1      28.196 -12.684   4.166  0.00  0.00     0.009 A 
ATOM     17  C   UNL d   1      28.695 -14.808   5.490  0.00  0.00     0.048 C 
ATOM     18  C   UNL d   1      27.840 -12.107   2.940  0.00  0.00     0.039 A 
ATOM     19  C   UNL d   1      27.607 -12.895   1.786  0.00  0.00     0.094 A 
BRANCH  19  20
ATOM     20  O   UNL d   1      27.241 -12.331   0.581  0.00  0.00    -0.354 OA
ATOM     21  C   UNL d   1      27.449 -10.919   0.510  0.00  0.00     0.210 C 
ENDBRANCH  19  20
ENDBRANCH  11  13
ENDBRANCH   9  11
ENDBRANCH   1   9
BRANCH   6  22
ATOM     22  C   UNL d   1      21.476 -18.902  -0.902  0.00  0.00     0.162 C 
BRANCH  22  23
ATOM     23  C   UNL d   1      20.404 -19.486   0.009  0.00  0.00    -0.040 A 
ATOM     24  C   UNL d   1      20.540 -19.470   1.409  0.00  0.00     0.009 A 
ATOM     25  C   UNL d   1      19.571 -20.075   2.225  0.00  0.00     0.001 A 
ATOM     26  C   UNL d   1      18.468 -20.713   1.659  0.00  0.00     0.000 A 
ATOM     27  C   UNL d   1      18.322 -20.735   0.281  0.00  0.00     0.001 A 
ATOM     28  C   UNL d   1      19.272 -20.120  -0.525  0.00  0.00     0.009 A 
ENDBRANCH  22  23
ENDBRANCH   6  22
TORSDOF 6
ENDMDL
MODEL 7
REMARK VINA RESULT:    -7.508      2.657      8.384
REMARK INTER + INTRA:         -11.004
REMARK INTER:                  -9.298
REMARK INTRA:                  -1.706
REMARK CONF_INDEPENDENT:        1.790
REMARK UNBOUND:                -1.706
REMARK  6 active torsions:
REMARK  status: ('A' for Active; 'I' for Inactive)
REMARK    1  A    between atoms: O_2  and  C_3 
REMARK    2  A    between atoms: C_9  and  N_10 
REMARK    3  A    between atoms: C_11  and  N_10 
REMARK    4  A    between atoms: C_11  and  C_13 
REMARK       I    between atoms: C_13  and  N_15 
REMARK       I    between atoms: N_15  and  C_16 
REMARK       I    between atoms: C_16  and  N_18 
REMARK    5  A    between atoms: N_18  and  C_19 
REMARK    6  A    between atoms: C_19  and  C_20 
ROOT
ATOM      1  C   UNL d   1      26.092 -14.936  -4.225  0.00  0.00     0.247 C 
ATOM      2  O   UNL d   1      25.618 -15.337  -5.291  0.00  0.00    -0.271 OA
ATOM      3  N   UNL d   1      27.463 -14.861  -4.012  0.00  0.00    -0.278 N 
ATOM      4  C   UNL d   1      28.333 -15.192  -5.042  0.00  0.00     0.323 C 
ATOM      5  O   UNL d   1      27.991 -15.575  -6.149  0.00  0.00    -0.247 OA
ATOM      6  N   UNL d   1      29.683 -15.120  -4.737  0.00  0.00    -0.339 N 
ATOM      7  H   UNL d   1      27.817 -14.546  -3.127  0.00  0.00     0.173 HD
ATOM      8  H   UNL d   1      30.004 -14.995  -3.793  0.00  0.00     0.164 HD
ENDROOT
BRANCH   1   9
ATOM      9  C   UNL d   1      25.114 -14.441  -3.109  0.00  0.00     0.170 C 
ATOM     10  C   UNL d   1      24.013 -13.700  -3.891  0.00  0.00     0.042 C 
BRANCH   9  11
ATOM     11  N   UNL d   1      24.596 -15.552  -2.258  0.00  0.00    -0.375 N 
ATOM     12  H   UNL d   1      23.634 -15.845  -2.413  0.00  0.00     0.160 HD
BRANCH  11  13
ATOM     13  C   UNL d   1      25.311 -16.468  -1.474  0.00  0.00     0.063 A 
ATOM     14  C   UNL d   1      26.707 -16.487  -1.374  0.00  0.00     0.038 A 
ATOM     15  C   UNL d   1      27.468 -17.278  -0.510  0.00  0.00    -0.060 A 
ATOM     16  C   UNL d   1      26.801 -18.171   0.298  0.00  0.00     0.009 A 
ATOM     17  C   UNL d   1      28.956 -17.074  -0.521  0.00  0.00     0.048 C 
ATOM     18  C   UNL d   1      25.404 -18.232   0.234  0.00  0.00     0.039 A 
ATOM     19  C   UNL d   1      24.659 -17.375  -0.612  0.00  0.00     0.094 A 
BRANCH  19  20
ATOM     20  O   UNL d   1      23.282 -17.443  -0.689  0.00  0.00    -0.354 OA
ATOM     21  C   UNL d   1      22.767 -18.774  -0.759  0.00  0.00     0.210 C 
ENDBRANCH  19  20
ENDBRANCH  11  13
ENDBRANCH   9  11
ENDBRANCH   1   9
BRANCH   6  22
ATOM     22  C   UNL d   1      30.639 -15.716  -5.691  0.00  0.00     0.162 C 
BRANCH  22  23
ATOM     23  C   UNL d   1      30.583 -17.236  -5.760  0.00  0.00    -0.040 A 
ATOM     24  C   UNL d   1      30.397 -18.018  -4.606  0.00  0.00     0.009 A 
ATOM     25  C   UNL d   1      30.416 -19.420  -4.686  0.00  0.00     0.001 A 
ATOM     26  C   UNL d   1      30.633 -20.056  -5.908  0.00  0.00     0.000 A 
ATOM     27  C   UNL d   1      30.816 -19.297  -7.053  0.00  0.00     0.001 A 
ATOM     28  C   UNL d   1      30.778 -17.909  -6.975  0.00  0.00     0.009 A 
ENDBRANCH  22  23
ENDBRANCH   6  22
TORSDOF 6
ENDMDL
MODEL 8
REMARK VINA RESULT:    -7.483      3.041      9.126
REMARK INTER + INTRA:         -11.102
REMARK INTER:                  -9.273
REMARK INTRA:                  -1.830
REMARK CONF_INDEPENDENT:        1.790
REMARK UNBOUND:                -1.830
REMARK  6 active torsions:
REMARK  status: ('A' for Active; 'I' for Inactive)
REMARK    1  A    between atoms: O_2  and  C_3 
REMARK    2  A    between atoms: C_9  and  N_10 
REMARK    3  A    between atoms: C_11  and  N_10 
REMARK    4  A    between atoms: C_11  and  C_13 
REMARK       I    between atoms: C_13  and  N_15 
REMARK       I    between atoms: N_15  and  C_16 
REMARK       I    between atoms: C_16  and  N_18 
REMARK    5  A    between atoms: N_18  and  C_19 
REMARK    6  A    between atoms: C_19  and  C_20 
ROOT
ATOM      1  C   UNL d   1      27.011 -15.200  -4.639  0.00  0.00     0.247 C 
ATOM      2  O   UNL d   1      26.688 -15.200  -5.830  0.00  0.00    -0.271 OA
ATOM      3  N   UNL d   1      28.322 -15.418  -4.233  0.00  0.00    -0.278 N 
ATOM      4  C   UNL d   1      29.314 -15.585  -5.189  0.00  0.00     0.323 C 
ATOM      5  O   UNL d   1      29.130 -15.579  -6.396  0.00  0.00    -0.247 OA
ATOM      6  N   UNL d   1      30.587 -15.828  -4.700  0.00  0.00    -0.339 N 
ATOM      7  H   UNL d   1      28.549 -15.428  -3.256  0.00  0.00     0.173 HD
ATOM      8  H   UNL d   1      30.750 -16.029  -3.728  0.00  0.00     0.164 HD
ENDROOT
BRANCH   1   9
ATOM      9  C   UNL d   1      25.918 -14.883  -3.567  0.00  0.00     0.170 C 
ATOM     10  C   UNL d   1      25.043 -13.810  -4.243  0.00  0.00     0.042 C 
BRANCH   9  11
ATOM     11  N   UNL d   1      25.155 -16.093  -3.141  0.00  0.00    -0.375 N 
ATOM     12  H   UNL d   1      24.781 -16.689  -3.877  0.00  0.00     0.160 HD
BRANCH  11  13
ATOM     13  C   UNL d   1      25.118 -16.714  -1.885  0.00  0.00     0.063 A 
ATOM     14  C   UNL d   1      23.962 -17.266  -1.321  0.00  0.00     0.038 A 
ATOM     15  C   UNL d   1      23.886 -18.014  -0.145  0.00  0.00    -0.060 A 
ATOM     16  C   UNL d   1      25.045 -18.200   0.575  0.00  0.00     0.009 A 
ATOM     17  C   UNL d   1      22.544 -18.576   0.230  0.00  0.00     0.048 C 
ATOM     18  C   UNL d   1      26.240 -17.652   0.090  0.00  0.00     0.039 A 
ATOM     19  C   UNL d   1      26.291 -16.947  -1.137  0.00  0.00     0.094 A 
BRANCH  19  20
ATOM     20  O   UNL d   1      27.464 -16.393  -1.610  0.00  0.00    -0.354 OA
ATOM     21  C   UNL d   1      28.620 -16.728  -0.840  0.00  0.00     0.210 C 
ENDBRANCH  19  20
ENDBRANCH  11  13
ENDBRANCH   9  11
ENDBRANCH   1   9
BRANCH   6  22
ATOM     22  C   UNL d   1      31.619 -16.282  -5.653  0.00  0.00     0.162 C 
BRANCH  22  23
ATOM     23  C   UNL d   1      31.319 -17.628  -6.300  0.00  0.00    -0.040 A 
ATOM     24  C   UNL d   1      31.523 -17.844  -7.675  0.00  0.00     0.009 A 
ATOM     25  C   UNL d   1      31.175 -19.072  -8.261  0.00  0.00     0.001 A 
ATOM     26  C   UNL d   1      30.610 -20.088  -7.491  0.00  0.00     0.000 A 
ATOM     27  C   UNL d   1      30.406 -19.888  -6.136  0.00  0.00     0.001 A 
ATOM     28  C   UNL d   1      30.768 -18.679  -5.553  0.00  0.00     0.009 A 
ENDBRANCH  22  23
ENDBRANCH   6  22
TORSDOF 6
ENDMDL
MODEL 9
REMARK VINA RESULT:    -7.385      7.382      9.892
REMARK INTER + INTRA:         -10.874
REMARK INTER:                  -9.175
REMARK INTRA:                  -1.699
REMARK CONF_INDEPENDENT:        1.790
REMARK UNBOUND:                -1.699
REMARK  6 active torsions:
REMARK  status: ('A' for Active; 'I' for Inactive)
REMARK    1  A    between atoms: O_2  and  C_3 
REMARK    2  A    between atoms: C_9  and  N_10 
REMARK    3  A    between atoms: C_11  and  N_10 
REMARK    4  A    between atoms: C_11  and  C_13 
REMARK       I    between atoms: C_13  and  N_15 
REMARK       I    between atoms: N_15  and  C_16 
REMARK       I    between atoms: C_16  and  N_18 
REMARK    5  A    between atoms: N_18  and  C_19 
REMARK    6  A    between atoms: C_19  and  C_20 
ROOT
ATOM      1  C   UNL d   1      27.902 -14.133   4.314  0.00  0.00     0.247 C 
ATOM      2  O   UNL d   1      27.037 -13.256   4.239  0.00  0.00    -0.271 OA
ATOM      3  N   UNL d   1      28.314 -14.856   3.202  0.00  0.00    -0.278 N 
ATOM      4  C   UNL d   1      27.785 -14.552   1.956  0.00  0.00     0.323 C 
ATOM      5  O   UNL d   1      26.946 -13.692   1.744  0.00  0.00    -0.247 OA
ATOM      6  N   UNL d   1      28.227 -15.341   0.905  0.00  0.00    -0.339 N 
ATOM      7  H   UNL d   1      29.008 -15.575   3.300  0.00  0.00     0.173 HD
ATOM      8  H   UNL d   1      28.766 -16.174   1.061  0.00  0.00     0.164 HD
ENDROOT
BRANCH   1   9
ATOM      9  C   UNL d   1      28.592 -14.388   5.695  0.00  0.00     0.170 C 
ATOM     10  C   UNL d   1      30.028 -14.797   5.315  0.00  0.00     0.042 C 
BRANCH   9  11
ATOM     11  N   UNL d   1      28.528 -13.205   6.602  0.00  0.00    -0.375 N 
ATOM     12  H   UNL d   1      28.003 -12.397   6.275  0.00  0.00     0.160 HD
BRANCH  11  13
ATOM     13  C   UNL d   1      28.826 -13.127   7.969  0.00  0.00     0.063 A 
ATOM     14  C   UNL d   1      29.185 -14.228   8.755  0.00  0.00     0.038 A 
ATOM     15  C   UNL d   1      29.624 -14.197  10.080  0.00  0.00    -0.060 A 
ATOM     16  C   UNL d   1      29.671 -12.975  10.713  0.00  0.00     0.009 A 
ATOM     17  C   UNL d   1      30.031 -15.503  10.702  0.00  0.00     0.048 C 
ATOM     18  C   UNL d   1      29.299 -11.828  10.001  0.00  0.00     0.039 A 
ATOM     19  C   UNL d   1      28.912 -11.888   8.640  0.00  0.00     0.094 A 
BRANCH  19  20
ATOM     20  O   UNL d   1      28.530 -10.761   7.941  0.00  0.00    -0.354 OA
ATOM     21  C   UNL d   1      29.598 -10.116   7.245  0.00  0.00     0.210 C 
ENDBRANCH  19  20
ENDBRANCH  11  13
ENDBRANCH   9  11
ENDBRANCH   1   9
BRANCH   6  22
ATOM     22  C   UNL d   1      27.504 -15.249  -0.379  0.00  0.00     0.162 C 
BRANCH  22  23
ATOM     23  C   UNL d   1      26.299 -16.174  -0.482  0.00  0.00    -0.040 A 
ATOM     24  C   UNL d   1      25.168 -15.827  -1.243  0.00  0.00     0.009 A 
ATOM     25  C   UNL d   1      24.043 -16.666  -1.269  0.00  0.00     0.001 A 
ATOM     26  C   UNL d   1      24.025 -17.848  -0.530  0.00  0.00     0.000 A 
ATOM     27  C   UNL d   1      25.133 -18.203   0.223  0.00  0.00     0.001 A 
ATOM     28  C   UNL d   1      26.254 -17.381   0.232  0.00  0.00     0.009 A 
ENDBRANCH  22  23
ENDBRANCH   6  22
TORSDOF 6
ENDMDL
