MODEL 1
REMARK VINA RESULT:    -7.639      0.000      0.000
REMARK INTER + INTRA:         -12.962
REMARK INTER:                  -9.727
REMARK INTRA:                  -3.235
REMARK CONF_INDEPENDENT:        2.088
REMARK UNBOUND:                -3.235
REMARK  7 active torsions:
REMARK  status: ('A' for Active; 'I' for Inactive)
REMARK    1  A    between atoms: C_2  and  C_3 
REMARK       I    between atoms: C_2  and  N_15 
REMARK    2  A    between atoms: C_3  and  O_4 
REMARK    3  A    between atoms: O_4  and  C_5 
REMARK    4  A    between atoms: N_15  and  N_16 
REMARK    5  A    between atoms: N_16  and  S_17 
REMARK    6  A    between atoms: S_17  and  C_20 
REMARK    7  A    between atoms: C_25  and  N_26 
ROOT
ATOM      1  O   UNL d   1      29.240 -14.715  -2.200  0.00  0.00    -0.270 OA
ATOM      2  C   UNL d   1      28.019 -14.680  -2.046  0.00  0.00     0.256 C 
ATOM      3  N   UNL d   1      27.210 -15.239  -3.001  0.00  0.00    -0.276 N 
ATOM      4  H   UNL d   1      27.676 -15.623  -3.827  0.00  0.00     0.184 HD
ENDROOT
BRANCH   3   5
ATOM      5  N   UNL d   1      25.712 -15.188  -3.044  0.00  0.00    -0.123 NA
ATOM      6  H   UNL d   1      25.328 -14.673  -2.244  0.00  0.00     0.166 HD
BRANCH   5   7
ATOM      7  S   UNL d   1      25.199 -14.431  -4.512  0.00  0.00     0.261 S 
ATOM      8  O   UNL d   1      25.380 -15.544  -5.418  0.00  0.00    -0.204 OA
ATOM      9  O   UNL d   1      23.920 -13.818  -4.246  0.00  0.00    -0.204 OA
BRANCH   7  10
ATOM     10  C   UNL d   1      26.347 -13.122  -4.855  0.00  0.00     0.109 A 
ATOM     11  C   UNL d   1      25.858 -11.793  -4.847  0.00  0.00     0.027 A 
ATOM     12  C   UNL d   1      26.649 -10.730  -5.308  0.00  0.00     0.002 A 
ATOM     13  C   UNL d   1      27.957 -10.957  -5.715  0.00  0.00     0.003 A 
ATOM     14  C   UNL d   1      28.458 -12.256  -5.708  0.00  0.00     0.038 A 
ATOM     15  C   UNL d   1      27.666 -13.353  -5.293  0.00  0.00     0.125 A 
BRANCH  15  16
ATOM     16  N   UNL d   1      28.320 -14.673  -5.404  0.00  0.00    -0.114 N 
ATOM     17  O   UNL d   1      29.431 -14.796  -4.869  0.00  0.00    -0.532 OA
ATOM     18  O   UNL d   1      27.783 -15.575  -6.039  0.00  0.00    -0.532 OA
ENDBRANCH  15  16
ENDBRANCH   7  10
ENDBRANCH   5   7
ENDBRANCH   3   5
BRANCH   2  19
ATOM     19  C   UNL d   1      27.337 -14.090  -0.818  0.00  0.00     0.279 C 
BRANCH  19  20
ATOM     20  O   UNL d   1      26.091 -14.749  -0.591  0.00  0.00    -0.341 OA
BRANCH  20  21
ATOM     21  C   UNL d   1      26.134 -16.102  -0.355  0.00  0.00     0.080 A 
ATOM     22  C   UNL d   1      27.304 -16.747   0.057  0.00  0.00     0.037 A 
ATOM     23  C   UNL d   1      27.297 -18.109   0.338  0.00  0.00     0.004 A 
ATOM     24  C   UNL d   1      26.117 -18.839   0.230  0.00  0.00     0.012 A 
ATOM     25  C   UNL d   1      24.920 -18.213  -0.138  0.00  0.00    -0.023 A 
ATOM     26  C   UNL d   1      23.728 -18.957  -0.193  0.00  0.00     0.012 A 
ATOM     27  C   UNL d   1      24.914 -16.828  -0.442  0.00  0.00     0.007 A 
ATOM     28  C   UNL d   1      22.526 -18.355  -0.555  0.00  0.00     0.001 A 
ATOM     29  C   UNL d   1      22.501 -17.001  -0.868  0.00  0.00     0.001 A 
ATOM     30  C   UNL d   1      23.679 -16.246  -0.813  0.00  0.00     0.015 A 
ENDBRANCH  20  21
ENDBRANCH  19  20
ENDBRANCH   2  19
TORSDOF 7
ENDMDL
MODEL 2
REMARK VINA RESULT:    -7.582      2.167      2.877
REMARK INTER + INTRA:         -12.902
REMARK INTER:                  -9.670
REMARK INTRA:                  -3.232
REMARK CONF_INDEPENDENT:        2.088
REMARK UNBOUND:                -3.232
REMARK  7 active torsions:
REMARK  status: ('A' for Active; 'I' for Inactive)
REMARK    1  A    between atoms: C_2  and  C_3 
REMARK       I    between atoms: C_2  and  N_15 
REMARK    2  A    between atoms: C_3  and  O_4 
REMARK    3  A    between atoms: O_4  and  C_5 
REMARK    4  A    between atoms: N_15  and  N_16 
REMARK    5  A    between atoms: N_16  and  S_17 
REMARK    6  A    between atoms: S_17  and  C_20 
REMARK    7  A    between atoms: C_25  and  N_26 
ROOT
ATOM      1  O   UNL d   1      23.624 -14.075  -4.068  0.00  0.00    -0.270 OA
ATOM      2  C   UNL d   1      24.836 -13.873  -3.994  0.00  0.00     0.256 C 
ATOM      3  N   UNL d   1      25.340 -12.674  -4.427  0.00  0.00    -0.276 N 
ATOM      4  H   UNL d   1      24.669 -12.018  -4.837  0.00  0.00     0.184 HD
ENDROOT
BRANCH   3   5
ATOM      5  N   UNL d   1      26.788 -12.297  -4.527  0.00  0.00    -0.123 NA
ATOM      6  H   UNL d   1      27.383 -13.118  -4.678  0.00  0.00     0.166 HD
BRANCH   5   7
ATOM      7  S   UNL d   1      27.009 -11.181  -5.830  0.00  0.00     0.261 S 
ATOM      8  O   UNL d   1      25.763 -11.400  -6.532  0.00  0.00    -0.204 OA
ATOM      9  O   UNL d   1      27.384  -9.917  -5.244  0.00  0.00    -0.204 OA
BRANCH   7  10
ATOM     10  C   UNL d   1      28.397 -11.752  -6.777  0.00  0.00     0.109 A 
ATOM     11  C   UNL d   1      28.948 -10.873  -7.740  0.00  0.00     0.027 A 
ATOM     12  C   UNL d   1      29.904 -11.323  -8.665  0.00  0.00     0.002 A 
ATOM     13  C   UNL d   1      30.379 -12.626  -8.601  0.00  0.00     0.003 A 
ATOM     14  C   UNL d   1      29.862 -13.496  -7.645  0.00  0.00     0.038 A 
ATOM     15  C   UNL d   1      28.862 -13.081  -6.732  0.00  0.00     0.125 A 
BRANCH  15  16
ATOM     16  N   UNL d   1      28.371 -14.138  -5.823  0.00  0.00    -0.114 N 
ATOM     17  O   UNL d   1      29.000 -14.309  -4.769  0.00  0.00    -0.532 OA
ATOM     18  O   UNL d   1      27.406 -14.826  -6.143  0.00  0.00    -0.532 OA
ENDBRANCH  15  16
ENDBRANCH   7  10
ENDBRANCH   5   7
ENDBRANCH   3   5
BRANCH   2  19
ATOM     19  C   UNL d   1      25.825 -14.865  -3.397  0.00  0.00     0.279 C 
BRANCH  19  20
ATOM     20  O   UNL d   1      25.771 -14.807  -1.972  0.00  0.00    -0.341 OA
BRANCH  20  21
ATOM     21  C   UNL d   1      25.935 -15.990  -1.292  0.00  0.00     0.080 A 
ATOM     22  C   UNL d   1      27.193 -16.440  -0.877  0.00  0.00     0.037 A 
ATOM     23  C   UNL d   1      27.315 -17.617  -0.145  0.00  0.00     0.004 A 
ATOM     24  C   UNL d   1      26.180 -18.347   0.197  0.00  0.00     0.012 A 
ATOM     25  C   UNL d   1      24.905 -17.900  -0.166  0.00  0.00    -0.023 A 
ATOM     26  C   UNL d   1      23.768 -18.625   0.232  0.00  0.00     0.012 A 
ATOM     27  C   UNL d   1      24.765 -16.710  -0.925  0.00  0.00     0.007 A 
ATOM     28  C   UNL d   1      22.489 -18.198  -0.116  0.00  0.00     0.001 A 
ATOM     29  C   UNL d   1      22.332 -17.040  -0.870  0.00  0.00     0.001 A 
ATOM     30  C   UNL d   1      23.454 -16.305  -1.270  0.00  0.00     0.015 A 
ENDBRANCH  20  21
ENDBRANCH  19  20
ENDBRANCH   2  19
TORSDOF 7
ENDMDL
MODEL 3
REMARK VINA RESULT:    -7.442      2.008      3.250
REMARK INTER + INTRA:         -13.059
REMARK INTER:                  -9.530
REMARK INTRA:                  -3.529
REMARK CONF_INDEPENDENT:        2.088
REMARK UNBOUND:                -3.529
REMARK  7 active torsions:
REMARK  status: ('A' for Active; 'I' for Inactive)
REMARK    1  A    between atoms: C_2  and  C_3 
REMARK       I    between atoms: C_2  and  N_15 
REMARK    2  A    between atoms: C_3  and  O_4 
REMARK    3  A    between atoms: O_4  and  C_5 
REMARK    4  A    between atoms: N_15  and  N_16 
REMARK    5  A    between atoms: N_16  and  S_17 
REMARK    6  A    between atoms: S_17  and  C_20 
REMARK    7  A    between atoms: C_25  and  N_26 
ROOT
ATOM      1  O   UNL d   1      23.743 -14.247  -3.202  0.00  0.00    -0.270 OA
ATOM      2  C   UNL d   1      24.920 -13.994  -3.463  0.00  0.00     0.256 C 
ATOM      3  N   UNL d   1      25.241 -13.541  -4.717  0.00  0.00    -0.276 N 
ATOM      4  H   UNL d   1      24.473 -13.479  -5.391  0.00  0.00     0.184 HD
ENDROOT
BRANCH   3   5
ATOM      5  N   UNL d   1      26.620 -13.297  -5.252  0.00  0.00    -0.123 NA
ATOM      6  H   UNL d   1      27.178 -12.722  -4.611  0.00  0.00     0.166 HD
BRANCH   5   7
ATOM      7  S   UNL d   1      27.420 -14.809  -5.507  0.00  0.00     0.261 S 
ATOM      8  O   UNL d   1      26.289 -15.696  -5.343  0.00  0.00    -0.204 OA
ATOM      9  O   UNL d   1      28.168 -14.689  -6.736  0.00  0.00    -0.204 OA
BRANCH   7  10
ATOM     10  C   UNL d   1      28.596 -15.007  -4.194  0.00  0.00     0.109 A 
ATOM     11  C   UNL d   1      28.944 -16.325  -3.809  0.00  0.00     0.027 A 
ATOM     12  C   UNL d   1      29.702 -16.562  -2.651  0.00  0.00     0.002 A 
ATOM     13  C   UNL d   1      30.184 -15.498  -1.901  0.00  0.00     0.003 A 
ATOM     14  C   UNL d   1      29.869 -14.197  -2.280  0.00  0.00     0.038 A 
ATOM     15  C   UNL d   1      29.067 -13.931  -3.416  0.00  0.00     0.125 A 
BRANCH  15  16
ATOM     16  N   UNL d   1      28.768 -12.502  -3.648  0.00  0.00    -0.114 N 
ATOM     17  O   UNL d   1      29.228 -11.992  -4.679  0.00  0.00    -0.532 OA
ATOM     18  O   UNL d   1      28.125 -11.865  -2.819  0.00  0.00    -0.532 OA
ENDBRANCH  15  16
ENDBRANCH   7  10
ENDBRANCH   5   7
ENDBRANCH   3   5
BRANCH   2  19
ATOM     19  C   UNL d   1      26.055 -14.106  -2.455  0.00  0.00     0.279 C 
BRANCH  19  20
ATOM     20  O   UNL d   1      25.544 -14.542  -1.195  0.00  0.00    -0.341 OA
BRANCH  20  21
ATOM     21  C   UNL d   1      25.793 -15.846  -0.839  0.00  0.00     0.080 A 
ATOM     22  C   UNL d   1      27.075 -16.292  -0.501  0.00  0.00     0.037 A 
ATOM     23  C   UNL d   1      27.280 -17.607  -0.094  0.00  0.00     0.004 A 
ATOM     24  C   UNL d   1      26.204 -18.485  -0.002  0.00  0.00     0.012 A 
ATOM     25  C   UNL d   1      24.904 -18.057  -0.291  0.00  0.00    -0.023 A 
ATOM     26  C   UNL d   1      23.824 -18.945  -0.143  0.00  0.00     0.012 A 
ATOM     27  C   UNL d   1      24.680 -16.724  -0.721  0.00  0.00     0.007 A 
ATOM     28  C   UNL d   1      22.521 -18.541  -0.424  0.00  0.00     0.001 A 
ATOM     29  C   UNL d   1      22.283 -17.242  -0.858  0.00  0.00     0.001 A 
ATOM     30  C   UNL d   1      23.348 -16.344  -1.005  0.00  0.00     0.015 A 
ENDBRANCH  20  21
ENDBRANCH  19  20
ENDBRANCH   2  19
TORSDOF 7
ENDMDL
MODEL 4
REMARK VINA RESULT:    -7.337      1.015      2.069
REMARK INTER + INTRA:         -13.121
REMARK INTER:                  -9.425
REMARK INTRA:                  -3.696
REMARK CONF_INDEPENDENT:        2.088
REMARK UNBOUND:                -3.696
REMARK  7 active torsions:
REMARK  status: ('A' for Active; 'I' for Inactive)
REMARK    1  A    between atoms: C_2  and  C_3 
REMARK       I    between atoms: C_2  and  N_15 
REMARK    2  A    between atoms: C_3  and  O_4 
REMARK    3  A    between atoms: O_4  and  C_5 
REMARK    4  A    between atoms: N_15  and  N_16 
REMARK    5  A    between atoms: N_16  and  S_17 
REMARK    6  A    between atoms: S_17  and  C_20 
REMARK    7  A    between atoms: C_25  and  N_26 
ROOT
ATOM      1  O   UNL d   1      29.831 -13.829  -1.538  0.00  0.00    -0.270 OA
ATOM      2  C   UNL d   1      28.700 -14.221  -1.827  0.00  0.00     0.256 C 
ATOM      3  N   UNL d   1      28.525 -14.968  -2.964  0.00  0.00    -0.276 N 
ATOM      4  H   UNL d   1      29.355 -15.123  -3.542  0.00  0.00     0.184 HD
ENDROOT
BRANCH   3   5
ATOM      5  N   UNL d   1      27.218 -15.429  -3.537  0.00  0.00    -0.123 NA
ATOM      6  H   UNL d   1      26.426 -14.920  -3.129  0.00  0.00     0.166 HD
BRANCH   5   7
ATOM      7  S   UNL d   1      27.223 -15.200  -5.251  0.00  0.00     0.261 S 
ATOM      8  O   UNL d   1      28.593 -15.573  -5.528  0.00  0.00    -0.204 OA
ATOM      9  O   UNL d   1      26.081 -15.910  -5.775  0.00  0.00    -0.204 OA
BRANCH   7  10
ATOM     10  C   UNL d   1      26.948 -13.472  -5.549  0.00  0.00     0.109 A 
ATOM     11  C   UNL d   1      27.770 -12.825  -6.504  0.00  0.00     0.027 A 
ATOM     12  C   UNL d   1      27.754 -11.428  -6.642  0.00  0.00     0.002 A 
ATOM     13  C   UNL d   1      26.874 -10.662  -5.890  0.00  0.00     0.003 A 
ATOM     14  C   UNL d   1      26.045 -11.286  -4.963  0.00  0.00     0.038 A 
ATOM     15  C   UNL d   1      26.075 -12.688  -4.769  0.00  0.00     0.125 A 
BRANCH  15  16
ATOM     16  N   UNL d   1      25.182 -13.191  -3.704  0.00  0.00    -0.114 N 
ATOM     17  O   UNL d   1      25.182 -12.570  -2.632  0.00  0.00    -0.532 OA
ATOM     18  O   UNL d   1      24.513 -14.203  -3.889  0.00  0.00    -0.532 OA
ENDBRANCH  15  16
ENDBRANCH   7  10
ENDBRANCH   5   7
ENDBRANCH   3   5
BRANCH   2  19
ATOM     19  C   UNL d   1      27.470 -13.971  -0.966  0.00  0.00     0.279 C 
BRANCH  19  20
ATOM     20  O   UNL d   1      26.406 -14.829  -1.377  0.00  0.00    -0.341 OA
BRANCH  20  21
ATOM     21  C   UNL d   1      26.358 -16.080  -0.810  0.00  0.00     0.080 A 
ATOM     22  C   UNL d   1      27.501 -16.712  -0.310  0.00  0.00     0.037 A 
ATOM     23  C   UNL d   1      27.407 -17.956   0.305  0.00  0.00     0.004 A 
ATOM     24  C   UNL d   1      26.168 -18.575   0.444  0.00  0.00     0.012 A 
ATOM     25  C   UNL d   1      25.000 -17.948  -0.008  0.00  0.00    -0.023 A 
ATOM     26  C   UNL d   1      23.753 -18.566   0.187  0.00  0.00     0.012 A 
ATOM     27  C   UNL d   1      25.082 -16.686  -0.649  0.00  0.00     0.007 A 
ATOM     28  C   UNL d   1      22.578 -17.960  -0.253  0.00  0.00     0.001 A 
ATOM     29  C   UNL d   1      22.638 -16.729  -0.895  0.00  0.00     0.001 A 
ATOM     30  C   UNL d   1      23.873 -16.099  -1.091  0.00  0.00     0.015 A 
ENDBRANCH  20  21
ENDBRANCH  19  20
ENDBRANCH   2  19
TORSDOF 7
ENDMDL
MODEL 5
REMARK VINA RESULT:    -7.228      2.665      3.914
REMARK INTER + INTRA:         -12.909
REMARK INTER:                  -9.316
REMARK INTRA:                  -3.593
REMARK CONF_INDEPENDENT:        2.088
REMARK UNBOUND:                -3.593
REMARK  7 active torsions:
REMARK  status: ('A' for Active; 'I' for Inactive)
REMARK    1  A    between atoms: C_2  and  C_3 
REMARK       I    between atoms: C_2  and  N_15 
REMARK    2  A    between atoms: C_3  and  O_4 
REMARK    3  A    between atoms: O_4  and  C_5 
REMARK    4  A    between atoms: N_15  and  N_16 
REMARK    5  A    between atoms: N_16  and  S_17 
REMARK    6  A    between atoms: S_17  and  C_20 
REMARK    7  A    between atoms: C_25  and  N_26 
ROOT
ATOM      1  O   UNL d   1      24.821 -14.839  -3.527  0.00  0.00    -0.270 OA
ATOM      2  C   UNL d   1      26.008 -14.547  -3.374  0.00  0.00     0.256 C 
ATOM      3  N   UNL d   1      26.843 -14.564  -4.461  0.00  0.00    -0.276 N 
ATOM      4  H   UNL d   1      26.433 -14.868  -5.348  0.00  0.00     0.184 HD
ENDROOT
BRANCH   3   5
ATOM      5  N   UNL d   1      28.328 -14.356  -4.449  0.00  0.00    -0.123 NA
ATOM      6  H   UNL d   1      28.773 -14.850  -3.667  0.00  0.00     0.166 HD
BRANCH   5   7
ATOM      7  S   UNL d   1      29.005 -14.915  -5.939  0.00  0.00     0.261 S 
ATOM      8  O   UNL d   1      27.780 -15.200  -6.654  0.00  0.00    -0.204 OA
ATOM      9  O   UNL d   1      29.966 -13.925  -6.363  0.00  0.00    -0.204 OA
BRANCH   7  10
ATOM     10  C   UNL d   1      29.907 -16.400  -5.579  0.00  0.00     0.109 A 
ATOM     11  C   UNL d   1      30.490 -17.100  -6.664  0.00  0.00     0.027 A 
ATOM     12  C   UNL d   1      31.036 -18.381  -6.486  0.00  0.00     0.002 A 
ATOM     13  C   UNL d   1      31.077 -18.954  -5.222  0.00  0.00     0.003 A 
ATOM     14  C   UNL d   1      30.526 -18.269  -4.143  0.00  0.00     0.038 A 
ATOM     15  C   UNL d   1      29.927 -16.996  -4.303  0.00  0.00     0.125 A 
BRANCH  15  16
ATOM     16  N   UNL d   1      29.331 -16.428  -3.075  0.00  0.00    -0.114 N 
ATOM     17  O   UNL d   1      30.064 -15.717  -2.373  0.00  0.00    -0.532 OA
ATOM     18  O   UNL d   1      28.174 -16.700  -2.770  0.00  0.00    -0.532 OA
ENDBRANCH  15  16
ENDBRANCH   7  10
ENDBRANCH   5   7
ENDBRANCH   3   5
BRANCH   2  19
ATOM     19  C   UNL d   1      26.608 -14.111  -2.044  0.00  0.00     0.279 C 
BRANCH  19  20
ATOM     20  O   UNL d   1      25.810 -14.601  -0.967  0.00  0.00    -0.341 OA
BRANCH  20  21
ATOM     21  C   UNL d   1      25.987 -15.916  -0.607  0.00  0.00     0.080 A 
ATOM     22  C   UNL d   1      27.224 -16.410  -0.182  0.00  0.00     0.037 A 
ATOM     23  C   UNL d   1      27.353 -17.734   0.225  0.00  0.00     0.004 A 
ATOM     24  C   UNL d   1      26.244 -18.574   0.230  0.00  0.00     0.012 A 
ATOM     25  C   UNL d   1      24.983 -18.098  -0.149  0.00  0.00    -0.023 A 
ATOM     26  C   UNL d   1      23.865 -18.948  -0.089  0.00  0.00     0.012 A 
ATOM     27  C   UNL d   1      24.838 -16.754  -0.579  0.00  0.00     0.007 A 
ATOM     28  C   UNL d   1      22.601 -18.496  -0.459  0.00  0.00     0.001 A 
ATOM     29  C   UNL d   1      22.441 -17.185  -0.895  0.00  0.00     0.001 A 
ATOM     30  C   UNL d   1      23.544 -16.325  -0.956  0.00  0.00     0.015 A 
ENDBRANCH  20  21
ENDBRANCH  19  20
ENDBRANCH   2  19
TORSDOF 7
ENDMDL
MODEL 6
REMARK VINA RESULT:    -7.134      2.921      3.760
REMARK INTER + INTRA:         -12.412
REMARK INTER:                  -9.222
REMARK INTRA:                  -3.190
REMARK CONF_INDEPENDENT:        2.088
REMARK UNBOUND:                -3.190
REMARK  7 active torsions:
REMARK  status: ('A' for Active; 'I' for Inactive)
REMARK    1  A    between atoms: C_2  and  C_3 
REMARK       I    between atoms: C_2  and  N_15 
REMARK    2  A    between atoms: C_3  and  O_4 
REMARK    3  A    between atoms: O_4  and  C_5 
REMARK    4  A    between atoms: N_15  and  N_16 
REMARK    5  A    between atoms: N_16  and  S_17 
REMARK    6  A    between atoms: S_17  and  C_20 
REMARK    7  A    between atoms: C_25  and  N_26 
ROOT
ATOM      1  O   UNL d   1      23.958 -14.075  -4.267  0.00  0.00    -0.270 OA
ATOM      2  C   UNL d   1      25.086 -13.597  -4.132  0.00  0.00     0.256 C 
ATOM      3  N   UNL d   1      25.411 -12.454  -4.815  0.00  0.00    -0.276 N 
ATOM      4  H   UNL d   1      24.697 -12.080  -5.446  0.00  0.00     0.184 HD
ENDROOT
BRANCH   3   5
ATOM      5  N   UNL d   1      26.759 -11.799  -4.870  0.00  0.00    -0.123 NA
ATOM      6  H   UNL d   1      26.975 -11.459  -5.813  0.00  0.00     0.166 HD
BRANCH   5   7
ATOM      7  S   UNL d   1      26.807 -10.475  -3.758  0.00  0.00     0.261 S 
ATOM      8  O   UNL d   1      25.982 -11.029  -2.707  0.00  0.00    -0.204 OA
ATOM      9  O   UNL d   1      28.196 -10.123  -3.582  0.00  0.00    -0.204 OA
BRANCH   7  10
ATOM     10  C   UNL d   1      26.013  -9.099  -4.548  0.00  0.00     0.109 A 
ATOM     11  C   UNL d   1      25.591  -8.020  -3.734  0.00  0.00     0.027 A 
ATOM     12  C   UNL d   1      24.778  -7.000  -4.252  0.00  0.00     0.002 A 
ATOM     13  C   UNL d   1      24.432  -6.996  -5.596  0.00  0.00     0.003 A 
ATOM     14  C   UNL d   1      24.858  -8.039  -6.414  0.00  0.00     0.038 A 
ATOM     15  C   UNL d   1      25.639  -9.105  -5.906  0.00  0.00     0.125 A 
BRANCH  15  16
ATOM     16  N   UNL d   1      25.956 -10.167  -6.885  0.00  0.00    -0.114 N 
ATOM     17  O   UNL d   1      27.027 -10.063  -7.499  0.00  0.00    -0.532 OA
ATOM     18  O   UNL d   1      25.156 -11.075  -7.088  0.00  0.00    -0.532 OA
ENDBRANCH  15  16
ENDBRANCH   7  10
ENDBRANCH   5   7
ENDBRANCH   3   5
BRANCH   2  19
ATOM     19  C   UNL d   1      26.144 -14.174  -3.201  0.00  0.00     0.279 C 
BRANCH  19  20
ATOM     20  O   UNL d   1      25.575 -14.429  -1.917  0.00  0.00    -0.341 OA
BRANCH  20  21
ATOM     21  C   UNL d   1      25.890 -15.628  -1.323  0.00  0.00     0.080 A 
ATOM     22  C   UNL d   1      27.202 -15.963  -0.976  0.00  0.00     0.037 A 
ATOM     23  C   UNL d   1      27.476 -17.163  -0.327  0.00  0.00     0.004 A 
ATOM     24  C   UNL d   1      26.440 -18.033  -0.001  0.00  0.00     0.012 A 
ATOM     25  C   UNL d   1      25.112 -17.707  -0.297  0.00  0.00    -0.023 A 
ATOM     26  C   UNL d   1      24.074 -18.575   0.085  0.00  0.00     0.012 A 
ATOM     27  C   UNL d   1      24.817 -16.493  -0.971  0.00  0.00     0.007 A 
ATOM     28  C   UNL d   1      22.745 -18.270  -0.197  0.00  0.00     0.001 A 
ATOM     29  C   UNL d   1      22.438 -17.091  -0.867  0.00  0.00     0.001 A 
ATOM     30  C   UNL d   1      23.459 -16.214  -1.250  0.00  0.00     0.015 A 
ENDBRANCH  20  21
ENDBRANCH  19  20
ENDBRANCH   2  19
TORSDOF 7
ENDMDL
MODEL 7
REMARK VINA RESULT:    -6.690      2.531      3.539
REMARK INTER + INTRA:         -12.218
REMARK INTER:                  -8.779
REMARK INTRA:                  -3.439
REMARK CONF_INDEPENDENT:        2.088
REMARK UNBOUND:                -3.439
REMARK  7 active torsions:
REMARK  status: ('A' for Active; 'I' for Inactive)
REMARK    1  A    between atoms: C_2  and  C_3 
REMARK       I    between atoms: C_2  and  N_15 
REMARK    2  A    between atoms: C_3  and  O_4 
REMARK    3  A    between atoms: O_4  and  C_5 
REMARK    4  A    between atoms: N_15  and  N_16 
REMARK    5  A    between atoms: N_16  and  S_17 
REMARK    6  A    between atoms: S_17  and  C_20 
REMARK    7  A    between atoms: C_25  and  N_26 
ROOT
ATOM      1  O   UNL d   1      25.090 -14.827  -4.576  0.00  0.00    -0.270 OA
ATOM      2  C   UNL d   1      26.136 -14.310  -4.182  0.00  0.00     0.256 C 
ATOM      3  N   UNL d   1      27.132 -14.050  -5.088  0.00  0.00    -0.276 N 
ATOM      4  H   UNL d   1      26.962 -14.347  -6.053  0.00  0.00     0.184 HD
ENDROOT
BRANCH   3   5
ATOM      5  N   UNL d   1      28.508 -13.540  -4.780  0.00  0.00    -0.123 NA
ATOM      6  H   UNL d   1      29.149 -14.304  -4.540  0.00  0.00     0.166 HD
BRANCH   5   7
ATOM      7  S   UNL d   1      29.128 -12.680  -6.147  0.00  0.00     0.261 S 
ATOM      8  O   UNL d   1      27.942 -12.682  -6.975  0.00  0.00    -0.204 OA
ATOM      9  O   UNL d   1      29.749 -11.478  -5.642  0.00  0.00    -0.204 OA
BRANCH   7  10
ATOM     10  C   UNL d   1      30.415 -13.678  -6.852  0.00  0.00     0.109 A 
ATOM     11  C   UNL d   1      31.239 -13.092  -7.843  0.00  0.00     0.027 A 
ATOM     12  C   UNL d   1      32.135 -13.872  -8.591  0.00  0.00     0.002 A 
ATOM     13  C   UNL d   1      32.278 -15.226  -8.319  0.00  0.00     0.003 A 
ATOM     14  C   UNL d   1      31.490 -15.812  -7.332  0.00  0.00     0.038 A 
ATOM     15  C   UNL d   1      30.544 -15.057  -6.596  0.00  0.00     0.125 A 
BRANCH  15  16
ATOM     16  N   UNL d   1      29.740 -15.836  -5.631  0.00  0.00    -0.114 N 
ATOM     17  O   UNL d   1      28.530 -15.950  -5.872  0.00  0.00    -0.532 OA
ATOM     18  O   UNL d   1      30.266 -16.300  -4.625  0.00  0.00    -0.532 OA
ENDBRANCH  15  16
ENDBRANCH   7  10
ENDBRANCH   5   7
ENDBRANCH   3   5
BRANCH   2  19
ATOM     19  C   UNL d   1      26.383 -13.888  -2.740  0.00  0.00     0.279 C 
BRANCH  19  20
ATOM     20  O   UNL d   1      25.420 -14.502  -1.883  0.00  0.00    -0.341 OA
BRANCH  20  21
ATOM     21  C   UNL d   1      25.751 -15.724  -1.348  0.00  0.00     0.080 A 
ATOM     22  C   UNL d   1      27.071 -16.066  -1.039  0.00  0.00     0.037 A 
ATOM     23  C   UNL d   1      27.362 -17.293  -0.449  0.00  0.00     0.004 A 
ATOM     24  C   UNL d   1      26.336 -18.181  -0.143  0.00  0.00     0.012 A 
ATOM     25  C   UNL d   1      25.001 -17.850  -0.400  0.00  0.00    -0.023 A 
ATOM     26  C   UNL d   1      23.975 -18.739  -0.038  0.00  0.00     0.012 A 
ATOM     27  C   UNL d   1      24.689 -16.609  -1.014  0.00  0.00     0.007 A 
ATOM     28  C   UNL d   1      22.639 -18.429  -0.283  0.00  0.00     0.001 A 
ATOM     29  C   UNL d   1      22.315 -17.224  -0.894  0.00  0.00     0.001 A 
ATOM     30  C   UNL d   1      23.325 -16.326  -1.256  0.00  0.00     0.015 A 
ENDBRANCH  20  21
ENDBRANCH  19  20
ENDBRANCH   2  19
TORSDOF 7
ENDMDL
MODEL 8
REMARK VINA RESULT:    -6.565      2.563      3.658
REMARK INTER + INTRA:         -12.290
REMARK INTER:                  -8.653
REMARK INTRA:                  -3.636
REMARK CONF_INDEPENDENT:        2.088
REMARK UNBOUND:                -3.636
REMARK  7 active torsions:
REMARK  status: ('A' for Active; 'I' for Inactive)
REMARK    1  A    between atoms: C_2  and  C_3 
REMARK       I    between atoms: C_2  and  N_15 
REMARK    2  A    between atoms: C_3  and  O_4 
REMARK    3  A    between atoms: O_4  and  C_5 
REMARK    4  A    between atoms: N_15  and  N_16 
REMARK    5  A    between atoms: N_16  and  S_17 
REMARK    6  A    between atoms: S_17  and  C_20 
REMARK    7  A    between atoms: C_25  and  N_26 
ROOT
ATOM      1  O   UNL d   1      25.711 -12.537  -4.312  0.00  0.00    -0.270 OA
ATOM      2  C   UNL d   1      25.891 -13.681  -3.891  0.00  0.00     0.256 C 
ATOM      3  N   UNL d   1      27.106 -14.281  -4.095  0.00  0.00    -0.276 N 
ATOM      4  H   UNL d   1      27.794 -13.750  -4.637  0.00  0.00     0.184 HD
ENDROOT
BRANCH   3   5
ATOM      5  N   UNL d   1      27.469 -15.698  -3.764  0.00  0.00    -0.123 NA
ATOM      6  H   UNL d   1      27.252 -16.335  -4.539  0.00  0.00     0.166 HD
BRANCH   5   7
ATOM      7  S   UNL d   1      29.156 -15.796  -3.398  0.00  0.00     0.261 S 
ATOM      8  O   UNL d   1      29.392 -14.415  -3.037  0.00  0.00    -0.204 OA
ATOM      9  O   UNL d   1      29.326 -16.900  -2.483  0.00  0.00    -0.204 OA
BRANCH   7  10
ATOM     10  C   UNL d   1      29.994 -16.227  -4.901  0.00  0.00     0.109 A 
ATOM     11  C   UNL d   1      31.148 -17.042  -4.807  0.00  0.00     0.027 A 
ATOM     12  C   UNL d   1      31.977 -17.252  -5.920  0.00  0.00     0.002 A 
ATOM     13  C   UNL d   1      31.637 -16.717  -7.156  0.00  0.00     0.003 A 
ATOM     14  C   UNL d   1      30.493 -15.932  -7.268  0.00  0.00     0.038 A 
ATOM     15  C   UNL d   1      29.666 -15.665  -6.151  0.00  0.00     0.125 A 
BRANCH  15  16
ATOM     16  N   UNL d   1      28.526 -14.762  -6.419  0.00  0.00    -0.114 N 
ATOM     17  O   UNL d   1      28.789 -13.563  -6.592  0.00  0.00    -0.532 OA
ATOM     18  O   UNL d   1      27.381 -15.201  -6.424  0.00  0.00    -0.532 OA
ENDBRANCH  15  16
ENDBRANCH   7  10
ENDBRANCH   5   7
ENDBRANCH   3   5
BRANCH   2  19
ATOM     19  C   UNL d   1      24.853 -14.466  -3.101  0.00  0.00     0.279 C 
BRANCH  19  20
ATOM     20  O   UNL d   1      25.225 -14.514  -1.724  0.00  0.00    -0.341 OA
BRANCH  20  21
ATOM     21  C   UNL d   1      25.573 -15.742  -1.214  0.00  0.00     0.080 A 
ATOM     22  C   UNL d   1      26.893 -16.060  -0.879  0.00  0.00     0.037 A 
ATOM     23  C   UNL d   1      27.199 -17.295  -0.315  0.00  0.00     0.004 A 
ATOM     24  C   UNL d   1      26.189 -18.217  -0.062  0.00  0.00     0.012 A 
ATOM     25  C   UNL d   1      24.853 -17.911  -0.345  0.00  0.00    -0.023 A 
ATOM     26  C   UNL d   1      23.840 -18.836  -0.036  0.00  0.00     0.012 A 
ATOM     27  C   UNL d   1      24.526 -16.662  -0.933  0.00  0.00     0.007 A 
ATOM     28  C   UNL d   1      22.504 -18.552  -0.307  0.00  0.00     0.001 A 
ATOM     29  C   UNL d   1      22.165 -17.338  -0.894  0.00  0.00     0.001 A 
ATOM     30  C   UNL d   1      23.161 -16.405  -1.204  0.00  0.00     0.015 A 
ENDBRANCH  20  21
ENDBRANCH  19  20
ENDBRANCH   2  19
TORSDOF 7
ENDMDL
MODEL 9
REMARK VINA RESULT:    -6.563      2.088      3.521
REMARK INTER + INTRA:         -12.448
REMARK INTER:                  -8.651
REMARK INTRA:                  -3.797
REMARK CONF_INDEPENDENT:        2.088
REMARK UNBOUND:                -3.797
REMARK  7 active torsions:
REMARK  status: ('A' for Active; 'I' for Inactive)
REMARK    1  A    between atoms: C_2  and  C_3 
REMARK       I    between atoms: C_2  and  N_15 
REMARK    2  A    between atoms: C_3  and  O_4 
REMARK    3  A    between atoms: O_4  and  C_5 
REMARK    4  A    between atoms: N_15  and  N_16 
REMARK    5  A    between atoms: N_16  and  S_17 
REMARK    6  A    between atoms: S_17  and  C_20 
REMARK    7  A    between atoms: C_25  and  N_26 
ROOT
ATOM      1  O   UNL d   1      25.155 -15.160  -5.021  0.00  0.00    -0.270 OA
ATOM      2  C   UNL d   1      25.379 -14.476  -4.022  0.00  0.00     0.256 C 
ATOM      3  N   UNL d   1      26.473 -13.649  -4.013  0.00  0.00    -0.276 N 
ATOM      4  H   UNL d   1      27.078 -13.682  -4.838  0.00  0.00     0.184 HD
ENDROOT
BRANCH   3   5
ATOM      5  N   UNL d   1      26.970 -12.839  -2.853  0.00  0.00    -0.123 NA
ATOM      6  H   UNL d   1      26.602 -13.189  -1.962  0.00  0.00     0.166 HD
BRANCH   5   7
ATOM      7  S   UNL d   1      28.699 -12.881  -2.815  0.00  0.00     0.261 S 
ATOM      8  O   UNL d   1      28.972 -12.191  -4.057  0.00  0.00    -0.204 OA
ATOM      9  O   UNL d   1      29.104 -12.386  -1.521  0.00  0.00    -0.204 OA
BRANCH   7  10
ATOM     10  C   UNL d   1      29.183 -14.586  -2.899  0.00  0.00     0.109 A 
ATOM     11  C   UNL d   1      29.840 -15.144  -1.775  0.00  0.00     0.027 A 
ATOM     12  C   UNL d   1      30.434 -16.415  -1.844  0.00  0.00     0.002 A 
ATOM     13  C   UNL d   1      30.323 -17.176  -2.999  0.00  0.00     0.003 A 
ATOM     14  C   UNL d   1      29.662 -16.648  -4.105  0.00  0.00     0.038 A 
ATOM     15  C   UNL d   1      29.095 -15.351  -4.078  0.00  0.00     0.125 A 
BRANCH  15  16
ATOM     16  N   UNL d   1      28.485 -14.911  -5.350  0.00  0.00    -0.114 N 
ATOM     17  O   UNL d   1      27.528 -15.575  -5.773  0.00  0.00    -0.532 OA
ATOM     18  O   UNL d   1      28.952 -13.953  -5.958  0.00  0.00    -0.532 OA
ENDBRANCH  15  16
ENDBRANCH   7  10
ENDBRANCH   5   7
ENDBRANCH   3   5
BRANCH   2  19
ATOM     19  C   UNL d   1      24.480 -14.449  -2.794  0.00  0.00     0.279 C 
BRANCH  19  20
ATOM     20  O   UNL d   1      25.272 -14.533  -1.609  0.00  0.00    -0.341 OA
BRANCH  20  21
ATOM     21  C   UNL d   1      25.600 -15.792  -1.166  0.00  0.00     0.080 A 
ATOM     22  C   UNL d   1      26.927 -16.189  -0.975  0.00  0.00     0.037 A 
ATOM     23  C   UNL d   1      27.220 -17.454  -0.475  0.00  0.00     0.004 A 
ATOM     24  C   UNL d   1      26.190 -18.329  -0.143  0.00  0.00     0.012 A 
ATOM     25  C   UNL d   1      24.851 -17.945  -0.282  0.00  0.00    -0.023 A 
ATOM     26  C   UNL d   1      23.825 -18.824   0.106  0.00  0.00     0.012 A 
ATOM     27  C   UNL d   1      24.537 -16.664  -0.804  0.00  0.00     0.007 A 
ATOM     28  C   UNL d   1      22.486 -18.463  -0.021  0.00  0.00     0.001 A 
ATOM     29  C   UNL d   1      22.158 -17.216  -0.542  0.00  0.00     0.001 A 
ATOM     30  C   UNL d   1      23.169 -16.328  -0.928  0.00  0.00     0.015 A 
ENDBRANCH  20  21
ENDBRANCH  19  20
ENDBRANCH   2  19
TORSDOF 7
ENDMDL
