MODEL 1
REMARK VINA RESULT:    -7.839      0.000      0.000
REMARK INTER + INTRA:         -10.055
REMARK INTER:                  -9.629
REMARK INTRA:                  -0.426
REMARK CONF_INDEPENDENT:        1.790
REMARK UNBOUND:                -0.426
REMARK  6 active torsions:
REMARK  status: ('A' for Active; 'I' for Inactive)
REMARK    1  A    between atoms: C_9  and  O_10 
REMARK    2  A    between atoms: C_12  and  O_13 
REMARK    3  A    between atoms: C_16  and  C_17 
REMARK    4  A    between atoms: N_18  and  N_19 
REMARK       I    between atoms: N_19  and  C_20 
REMARK       I    between atoms: C_20  and  N_21 
REMARK    5  A    between atoms: C_23  and  O_24 
REMARK    6  A    between atoms: C_27  and  C_28 
ROOT
ATOM      1  C   UNL d   1      25.905 -14.847   0.230  0.00  0.00     0.019 C 
ATOM      2  C   UNL d   1      27.470 -14.586  -0.120  0.00  0.00    -0.005 C 
ATOM      3  C   UNL d   1      27.574 -13.112  -0.402  0.00  0.00     0.013 C 
ATOM      4  C   UNL d   1      26.978 -12.387   0.735  0.00  0.00     0.007 C 
ATOM      5  C   UNL d   1      27.858 -12.685   1.944  0.00  0.00     0.009 C 
ATOM      6  C   UNL d   1      27.739 -14.287   2.371  0.00  0.00     0.026 C 
ATOM      7  C   UNL d   1      28.667 -14.450   3.631  0.00  0.00     0.011 C 
ATOM      8  C   UNL d   1      28.194 -13.688   4.847  0.00  0.00     0.039 C 
ATOM      9  C   UNL d   1      28.148 -12.210   4.659  0.00  0.00     0.073 C 
ATOM     10  C   UNL d   1      29.367 -11.329   4.919  0.00  0.00     0.070 C 
ATOM     11  C   UNL d   1      28.839  -9.791   4.869  0.00  0.00     0.121 C 
ATOM     12  C   UNL d   1      28.768  -9.892   3.461  0.00  0.00     0.033 C 
ATOM     13  C   UNL d   1      27.030 -10.678   3.747  0.00  0.00     0.021 C 
ATOM     14  C   UNL d   1      27.385 -11.827   3.052  0.00  0.00     0.031 C 
ATOM     15  C   UNL d   1      28.110 -15.258   1.095  0.00  0.00     0.070 C 
ATOM     16  C   UNL d   1      27.638 -16.789   0.341  0.00  0.00     0.040 C 
ATOM     17  C   UNL d   1      28.595 -16.741  -0.831  0.00  0.00     0.013 C 
ATOM     18  C   UNL d   1      28.246 -15.303  -1.314  0.00  0.00     0.028 C 
ENDROOT
BRANCH  14  19
ATOM     19  C   UNL d   1      27.018 -10.239   2.127  0.00  0.00     0.124 C 
ATOM     20  N   UNL d   1      26.091  -9.378   2.424  0.00  0.00    -0.186 NA
BRANCH  20  21
ATOM     21  N   UNL d   1      25.746  -8.648   1.306  0.00  0.00    -0.230 N 
ATOM     22  C   UNL d   1      25.937  -7.337   1.448  0.00  0.00     0.334 C 
ATOM     23  N   UNL d   1      26.499  -7.011   2.612  0.00  0.00    -0.351 N 
ATOM     24  O   UNL d   1      25.618  -6.485   0.530  0.00  0.00    -0.246 OA
ATOM     25  H   UNL d   1      26.644  -7.811   3.237  0.00  0.00     0.160 HD
ATOM     26  H   UNL d   1      26.812  -6.088   2.835  0.00  0.00     0.160 HD
ATOM     27  H   UNL d   1      25.152  -9.009   0.551  0.00  0.00     0.194 HD
ENDBRANCH  20  21
ENDBRANCH  14  19
BRANCH   9  28
ATOM     28  O   UNL d   1      27.405 -11.883   5.936  0.00  0.00    -0.389 OA
ATOM     29  H   UNL d   1      27.181 -10.936   5.982  0.00  0.00     0.210 HD
ENDBRANCH   9  28
BRANCH  11  30
ATOM     30  O   UNL d   1      29.167  -8.808   5.760  0.00  0.00    -0.395 OA
ATOM     31  H   UNL d   1      28.392  -8.682   6.315  0.00  0.00     0.210 HD
ENDBRANCH  11  30
BRANCH  15  32
ATOM     32  O   UNL d   1      29.549 -15.176   1.066  0.00  0.00    -0.389 OA
ATOM     33  H   UNL d   1      29.917 -15.777   1.734  0.00  0.00     0.210 HD
ENDBRANCH  15  32
BRANCH  18  34
ATOM     34  C   UNL d   1      27.381 -15.194  -2.532  0.00  0.00    -0.045 A 
ATOM     35  C   UNL d   1      27.802 -14.968  -3.774  0.00  0.00     0.087 A 
ATOM     36  C   UNL d   1      26.703 -15.238  -4.687  0.00  0.00     0.283 A 
ATOM     37  O   UNL d   1      26.804 -15.200  -5.877  0.00  0.00    -0.260 OA
ATOM     38  O   UNL d   1      25.605 -15.557  -3.941  0.00  0.00    -0.314 OA
ATOM     39  C   UNL d   1      25.953 -15.572  -2.551  0.00  0.00     0.213 A 
ENDBRANCH  18  34
TORSDOF 6
ENDMDL
MODEL 2
REMARK VINA RESULT:    -7.309      3.433      8.221
REMARK INTER + INTRA:          -9.649
REMARK INTER:                  -9.099
REMARK INTRA:                  -0.550
REMARK CONF_INDEPENDENT:        1.790
REMARK UNBOUND:                -0.550
REMARK  6 active torsions:
REMARK  status: ('A' for Active; 'I' for Inactive)
REMARK    1  A    between atoms: C_9  and  O_10 
REMARK    2  A    between atoms: C_12  and  O_13 
REMARK    3  A    between atoms: C_16  and  C_17 
REMARK    4  A    between atoms: N_18  and  N_19 
REMARK       I    between atoms: N_19  and  C_20 
REMARK       I    between atoms: C_20  and  N_21 
REMARK    5  A    between atoms: C_23  and  O_24 
REMARK    6  A    between atoms: C_27  and  C_28 
ROOT
ATOM      1  C   UNL d   1      26.657 -12.089   2.246  0.00  0.00     0.019 C 
ATOM      2  C   UNL d   1      28.113 -12.617   1.754  0.00  0.00    -0.005 C 
ATOM      3  C   UNL d   1      27.929 -14.082   1.469  0.00  0.00     0.013 C 
ATOM      4  C   UNL d   1      26.783 -14.229   0.553  0.00  0.00     0.007 C 
ATOM      5  C   UNL d   1      27.187 -13.554  -0.754  0.00  0.00     0.009 C 
ATOM      6  C   UNL d   1      27.337 -11.914  -0.542  0.00  0.00     0.026 C 
ATOM      7  C   UNL d   1      27.730 -11.347  -1.956  0.00  0.00     0.011 C 
ATOM      8  C   UNL d   1      26.654 -11.506  -3.004  0.00  0.00     0.039 C 
ATOM      9  C   UNL d   1      26.300 -12.924  -3.302  0.00  0.00     0.073 C 
ATOM     10  C   UNL d   1      27.057 -13.738  -4.347  0.00  0.00     0.070 C 
ATOM     11  C   UNL d   1      26.207 -15.108  -4.565  0.00  0.00     0.121 C 
ATOM     12  C   UNL d   1      26.700 -15.576  -3.324  0.00  0.00     0.033 C 
ATOM     13  C   UNL d   1      25.251 -14.578  -2.533  0.00  0.00     0.021 C 
ATOM     14  C   UNL d   1      26.127 -13.845  -1.743  0.00  0.00     0.031 C 
ATOM     15  C   UNL d   1      28.400 -11.578   0.670  0.00  0.00     0.070 C 
ATOM     16  C   UNL d   1      28.661 -10.441   2.002  0.00  0.00     0.040 C 
ATOM     17  C   UNL d   1      29.941 -11.048   2.537  0.00  0.00     0.013 C 
ATOM     18  C   UNL d   1      29.439 -12.519   2.634  0.00  0.00     0.028 C 
ENDROOT
BRANCH  14  19
ATOM     19  C   UNL d   1      25.736 -15.628  -1.317  0.00  0.00     0.124 C 
ATOM     20  N   UNL d   1      24.573 -16.200  -1.413  0.00  0.00    -0.186 NA
BRANCH  20  21
ATOM     21  N   UNL d   1      24.505 -17.283  -0.562  0.00  0.00    -0.230 N 
ATOM     22  C   UNL d   1      23.259 -17.624  -0.236  0.00  0.00     0.334 C 
ATOM     23  N   UNL d   1      22.334 -16.899  -0.866  0.00  0.00    -0.351 N 
ATOM     24  O   UNL d   1      22.994 -18.577   0.596  0.00  0.00    -0.246 OA
ATOM     25  H   UNL d   1      22.724 -16.157  -1.456  0.00  0.00     0.160 HD
ATOM     26  H   UNL d   1      21.355 -17.095  -0.822  0.00  0.00     0.160 HD
ATOM     27  H   UNL d   1      25.300 -17.625  -0.010  0.00  0.00     0.194 HD
ENDBRANCH  20  21
ENDBRANCH  14  19
BRANCH   9  28
ATOM     28  O   UNL d   1      25.074 -12.637  -4.141  0.00  0.00    -0.389 OA
ATOM     29  H   UNL d   1      24.780 -11.715  -4.033  0.00  0.00     0.210 HD
ENDBRANCH   9  28
BRANCH  11  30
ATOM     30  O   UNL d   1      25.908 -15.676  -5.770  0.00  0.00    -0.395 OA
ATOM     31  H   UNL d   1      25.249 -16.353  -5.589  0.00  0.00     0.210 HD
ENDBRANCH  11  30
BRANCH  15  32
ATOM     32  O   UNL d   1      29.669 -11.802   0.024  0.00  0.00    -0.389 OA
ATOM     33  H   UNL d   1      29.811 -11.114  -0.647  0.00  0.00     0.210 HD
ENDBRANCH  15  32
BRANCH  18  34
ATOM     34  C   UNL d   1      29.100 -13.025   4.002  0.00  0.00    -0.045 A 
ATOM     35  C   UNL d   1      28.726 -12.283   5.042  0.00  0.00     0.087 A 
ATOM     36  C   UNL d   1      28.202 -13.166   6.071  0.00  0.00     0.283 A 
ATOM     37  O   UNL d   1      27.714 -12.781   7.091  0.00  0.00    -0.260 OA
ATOM     38  O   UNL d   1      28.348 -14.452   5.636  0.00  0.00    -0.314 OA
ATOM     39  C   UNL d   1      28.897 -14.455   4.312  0.00  0.00     0.213 A 
ENDBRANCH  18  34
TORSDOF 6
ENDMDL
MODEL 3
REMARK VINA RESULT:    -7.057      1.324      1.640
REMARK INTER + INTRA:          -9.618
REMARK INTER:                  -8.847
REMARK INTRA:                  -0.771
REMARK CONF_INDEPENDENT:        1.790
REMARK UNBOUND:                -0.771
REMARK  6 active torsions:
REMARK  status: ('A' for Active; 'I' for Inactive)
REMARK    1  A    between atoms: C_9  and  O_10 
REMARK    2  A    between atoms: C_12  and  O_13 
REMARK    3  A    between atoms: C_16  and  C_17 
REMARK    4  A    between atoms: N_18  and  N_19 
REMARK       I    between atoms: N_19  and  C_20 
REMARK       I    between atoms: C_20  and  N_21 
REMARK    5  A    between atoms: C_23  and  O_24 
REMARK    6  A    between atoms: C_27  and  C_28 
ROOT
ATOM      1  C   UNL d   1      25.988 -14.003   0.808  0.00  0.00     0.019 C 
ATOM      2  C   UNL d   1      27.580 -13.897   0.502  0.00  0.00    -0.005 C 
ATOM      3  C   UNL d   1      27.890 -12.425   0.522  0.00  0.00     0.013 C 
ATOM      4  C   UNL d   1      27.380 -11.868   1.787  0.00  0.00     0.007 C 
ATOM      5  C   UNL d   1      28.189 -12.522   2.903  0.00  0.00     0.009 C 
ATOM      6  C   UNL d   1      27.843 -14.144   2.999  0.00  0.00     0.026 C 
ATOM      7  C   UNL d   1      28.717 -14.684   4.191  0.00  0.00     0.011 C 
ATOM      8  C   UNL d   1      28.331 -14.124   5.540  0.00  0.00     0.039 C 
ATOM      9  C   UNL d   1      28.493 -12.647   5.654  0.00  0.00     0.073 C 
ATOM     10  C   UNL d   1      29.816 -12.013   6.073  0.00  0.00     0.070 C 
ATOM     11  C   UNL d   1      29.507 -10.438   6.340  0.00  0.00     0.121 C 
ATOM     12  C   UNL d   1      29.447 -10.243   4.941  0.00  0.00     0.033 C 
ATOM     13  C   UNL d   1      27.613 -10.823   5.081  0.00  0.00     0.021 C 
ATOM     14  C   UNL d   1      27.819 -11.847   4.165  0.00  0.00     0.031 C 
ATOM     15  C   UNL d   1      28.099 -14.881   1.549  0.00  0.00     0.070 C 
ATOM     16  C   UNL d   1      27.435 -16.149   0.508  0.00  0.00     0.040 C 
ATOM     17  C   UNL d   1      28.410 -15.999  -0.640  0.00  0.00     0.013 C 
ATOM     18  C   UNL d   1      28.271 -14.459  -0.820  0.00  0.00     0.028 C 
ENDROOT
BRANCH  14  19
ATOM     19  C   UNL d   1      27.690 -10.070   3.583  0.00  0.00     0.124 C 
ATOM     20  N   UNL d   1      26.736  -9.237   3.875  0.00  0.00    -0.186 NA
BRANCH  20  21
ATOM     21  N   UNL d   1      26.656  -8.253   2.912  0.00  0.00    -0.230 N 
ATOM     22  C   UNL d   1      25.713  -8.481   1.997  0.00  0.00     0.334 C 
ATOM     23  N   UNL d   1      24.989  -9.573   2.251  0.00  0.00    -0.351 N 
ATOM     24  O   UNL d   1      25.524  -7.702   0.984  0.00  0.00    -0.246 OA
ATOM     25  H   UNL d   1      25.307 -10.095   3.074  0.00  0.00     0.160 HD
ATOM     26  H   UNL d   1      24.175  -9.828   1.730  0.00  0.00     0.160 HD
ATOM     27  H   UNL d   1      27.397  -7.566   2.735  0.00  0.00     0.194 HD
ENDBRANCH  20  21
ENDBRANCH  14  19
BRANCH   9  28
ATOM     28  O   UNL d   1      27.779 -12.483   6.979  0.00  0.00    -0.389 OA
ATOM     29  H   UNL d   1      28.394 -12.199   7.678  0.00  0.00     0.210 HD
ENDBRANCH   9  28
BRANCH  11  30
ATOM     30  O   UNL d   1      29.950  -9.709   7.407  0.00  0.00    -0.395 OA
ATOM     31  H   UNL d   1      30.257  -8.872   7.048  0.00  0.00     0.210 HD
ENDBRANCH  11  30
BRANCH  15  32
ATOM     32  O   UNL d   1      29.536 -14.995   1.523  0.00  0.00    -0.389 OA
ATOM     33  H   UNL d   1      29.788 -15.910   1.730  0.00  0.00     0.210 HD
ENDBRANCH  15  32
BRANCH  18  34
ATOM     34  C   UNL d   1      27.451 -13.989  -1.982  0.00  0.00    -0.045 A 
ATOM     35  C   UNL d   1      26.493 -14.679  -2.596  0.00  0.00     0.087 A 
ATOM     36  C   UNL d   1      25.750 -13.770  -3.453  0.00  0.00     0.283 A 
ATOM     37  O   UNL d   1      24.776 -14.087  -4.070  0.00  0.00    -0.260 OA
ATOM     38  O   UNL d   1      26.345 -12.543  -3.381  0.00  0.00    -0.314 OA
ATOM     39  C   UNL d   1      27.431 -12.587  -2.448  0.00  0.00     0.213 A 
ENDBRANCH  18  34
TORSDOF 6
ENDMDL
MODEL 4
REMARK VINA RESULT:    -6.844      2.659      4.838
REMARK INTER + INTRA:          -9.115
REMARK INTER:                  -8.634
REMARK INTRA:                  -0.482
REMARK CONF_INDEPENDENT:        1.790
REMARK UNBOUND:                -0.482
REMARK  6 active torsions:
REMARK  status: ('A' for Active; 'I' for Inactive)
REMARK    1  A    between atoms: C_9  and  O_10 
REMARK    2  A    between atoms: C_12  and  O_13 
REMARK    3  A    between atoms: C_16  and  C_17 
REMARK    4  A    between atoms: N_18  and  N_19 
REMARK       I    between atoms: N_19  and  C_20 
REMARK       I    between atoms: C_20  and  N_21 
REMARK    5  A    between atoms: C_23  and  O_24 
REMARK    6  A    between atoms: C_27  and  C_28 
ROOT
ATOM      1  C   UNL d   1      28.294 -14.997  -0.755  0.00  0.00     0.019 C 
ATOM      2  C   UNL d   1      26.722 -14.593  -0.833  0.00  0.00    -0.005 C 
ATOM      3  C   UNL d   1      26.277 -14.447   0.596  0.00  0.00     0.013 C 
ATOM      4  C   UNL d   1      27.206 -13.524   1.272  0.00  0.00     0.007 C 
ATOM      5  C   UNL d   1      27.032 -12.167   0.596  0.00  0.00     0.009 C 
ATOM      6  C   UNL d   1      27.576 -12.223  -0.972  0.00  0.00     0.026 C 
ATOM      7  C   UNL d   1      27.362 -10.769  -1.537  0.00  0.00     0.011 C 
ATOM      8  C   UNL d   1      28.214  -9.717  -0.867  0.00  0.00     0.039 C 
ATOM      9  C   UNL d   1      27.942  -9.550   0.589  0.00  0.00     0.073 C 
ATOM     10  C   UNL d   1      26.857  -8.607   1.100  0.00  0.00     0.070 C 
ATOM     11  C   UNL d   1      27.062  -8.504   2.711  0.00  0.00     0.121 C 
ATOM     12  C   UNL d   1      26.498  -9.795   2.836  0.00  0.00     0.033 C 
ATOM     13  C   UNL d   1      28.272 -10.452   2.462  0.00  0.00     0.021 C 
ATOM     14  C   UNL d   1      27.820 -11.187   1.374  0.00  0.00     0.031 C 
ATOM     15  C   UNL d   1      26.817 -13.421  -1.810  0.00  0.00     0.070 C 
ATOM     16  C   UNL d   1      27.122 -14.642  -3.054  0.00  0.00     0.040 C 
ATOM     17  C   UNL d   1      25.741 -15.262  -3.070  0.00  0.00     0.013 C 
ATOM     18  C   UNL d   1      25.607 -15.490  -1.536  0.00  0.00     0.028 C 
ENDROOT
BRANCH  14  19
ATOM     19  C   UNL d   1      27.478 -11.774   3.120  0.00  0.00     0.124 C 
ATOM     20  N   UNL d   1      28.369 -12.122   4.000  0.00  0.00    -0.186 NA
BRANCH  20  21
ATOM     21  N   UNL d   1      27.811 -12.970   4.933  0.00  0.00    -0.230 N 
ATOM     22  C   UNL d   1      28.127 -14.251   4.743  0.00  0.00     0.334 C 
ATOM     23  N   UNL d   1      28.985 -14.436   3.738  0.00  0.00    -0.351 N 
ATOM     24  O   UNL d   1      27.654 -15.200   5.480  0.00  0.00    -0.246 OA
ATOM     25  H   UNL d   1      29.222 -13.575   3.235  0.00  0.00     0.160 HD
ATOM     26  H   UNL d   1      29.410 -15.317   3.532  0.00  0.00     0.160 HD
ATOM     27  H   UNL d   1      27.022 -12.712   5.537  0.00  0.00     0.194 HD
ENDBRANCH  20  21
ENDBRANCH  14  19
BRANCH   9  28
ATOM     28  O   UNL d   1      29.126  -8.659   0.898  0.00  0.00    -0.389 OA
ATOM     29  H   UNL d   1      28.910  -8.016   1.597  0.00  0.00     0.210 HD
ENDBRANCH   9  28
BRANCH  11  30
ATOM     30  O   UNL d   1      27.030  -7.353   3.446  0.00  0.00    -0.395 OA
ATOM     31  H   UNL d   1      27.638  -7.487   4.179  0.00  0.00     0.210 HD
ENDBRANCH  11  30
BRANCH  15  32
ATOM     32  O   UNL d   1      25.530 -12.829  -2.076  0.00  0.00    -0.389 OA
ATOM     33  H   UNL d   1      25.530 -12.453  -2.971  0.00  0.00     0.210 HD
ENDBRANCH  15  32
BRANCH  18  34
ATOM     34  C   UNL d   1      25.793 -16.893  -1.046  0.00  0.00    -0.045 A 
ATOM     35  C   UNL d   1      26.905 -17.397  -0.517  0.00  0.00     0.087 A 
ATOM     36  C   UNL d   1      26.582 -18.672   0.101  0.00  0.00     0.283 A 
ATOM     37  O   UNL d   1      27.364 -19.323   0.728  0.00  0.00    -0.260 OA
ATOM     38  O   UNL d   1      25.265 -18.938  -0.145  0.00  0.00    -0.314 OA
ATOM     39  C   UNL d   1      24.677 -17.843  -0.857  0.00  0.00     0.213 A 
ENDBRANCH  18  34
TORSDOF 6
ENDMDL
MODEL 5
REMARK VINA RESULT:    -6.717      2.429      7.341
REMARK INTER + INTRA:          -9.035
REMARK INTER:                  -8.506
REMARK INTRA:                  -0.528
REMARK CONF_INDEPENDENT:        1.790
REMARK UNBOUND:                -0.528
REMARK  6 active torsions:
REMARK  status: ('A' for Active; 'I' for Inactive)
REMARK    1  A    between atoms: C_9  and  O_10 
REMARK    2  A    between atoms: C_12  and  O_13 
REMARK    3  A    between atoms: C_16  and  C_17 
REMARK    4  A    between atoms: N_18  and  N_19 
REMARK       I    between atoms: N_19  and  C_20 
REMARK       I    between atoms: C_20  and  N_21 
REMARK    5  A    between atoms: C_23  and  O_24 
REMARK    6  A    between atoms: C_27  and  C_28 
ROOT
ATOM      1  C   UNL d   1      29.729 -12.085   1.775  0.00  0.00     0.019 C 
ATOM      2  C   UNL d   1      28.312 -12.673   2.312  0.00  0.00    -0.005 C 
ATOM      3  C   UNL d   1      27.256 -11.933   1.536  0.00  0.00     0.013 C 
ATOM      4  C   UNL d   1      27.570 -12.060   0.102  0.00  0.00     0.007 C 
ATOM      5  C   UNL d   1      27.437 -13.540  -0.239  0.00  0.00     0.009 C 
ATOM      6  C   UNL d   1      28.622 -14.423   0.521  0.00  0.00     0.026 C 
ATOM      7  C   UNL d   1      28.384 -15.911   0.069  0.00  0.00     0.011 C 
ATOM      8  C   UNL d   1      28.607 -16.150  -1.406  0.00  0.00     0.039 C 
ATOM      9  C   UNL d   1      27.685 -15.384  -2.292  0.00  0.00     0.073 C 
ATOM     10  C   UNL d   1      26.316 -15.928  -2.689  0.00  0.00     0.070 C 
ATOM     11  C   UNL d   1      25.753 -14.944  -3.857  0.00  0.00     0.121 C 
ATOM     12  C   UNL d   1      25.476 -13.974  -2.865  0.00  0.00     0.033 C 
ATOM     13  C   UNL d   1      27.324 -13.457  -3.057  0.00  0.00     0.021 C 
ATOM     14  C   UNL d   1      27.570 -13.665  -1.706  0.00  0.00     0.031 C 
ATOM     15  C   UNL d   1      28.586 -14.167   2.147  0.00  0.00     0.070 C 
ATOM     16  C   UNL d   1      29.662 -13.999   3.542  0.00  0.00     0.040 C 
ATOM     17  C   UNL d   1      28.597 -13.745   4.588  0.00  0.00     0.013 C 
ATOM     18  C   UNL d   1      27.843 -12.611   3.834  0.00  0.00     0.028 C 
ENDROOT
BRANCH  14  19
ATOM     19  C   UNL d   1      26.615 -12.155  -2.271  0.00  0.00     0.124 C 
ATOM     20  N   UNL d   1      27.068 -11.204  -3.033  0.00  0.00    -0.186 NA
BRANCH  20  21
ATOM     21  N   UNL d   1      26.347 -10.047  -2.825  0.00  0.00    -0.230 N 
ATOM     22  C   UNL d   1      25.536  -9.738  -3.838  0.00  0.00     0.334 C 
ATOM     23  N   UNL d   1      25.529 -10.658  -4.804  0.00  0.00    -0.351 N 
ATOM     24  O   UNL d   1      24.823  -8.661  -3.853  0.00  0.00    -0.246 OA
ATOM     25  H   UNL d   1      26.189 -11.426  -4.645  0.00  0.00     0.160 HD
ATOM     26  H   UNL d   1      24.898 -10.638  -5.579  0.00  0.00     0.160 HD
ATOM     27  H   UNL d   1      26.590  -9.343  -2.120  0.00  0.00     0.194 HD
ENDBRANCH  20  21
ENDBRANCH  14  19
BRANCH   9  28
ATOM     28  O   UNL d   1      28.390 -15.683  -3.597  0.00  0.00    -0.389 OA
ATOM     29  H   UNL d   1      29.328 -15.902  -3.450  0.00  0.00     0.210 HD
ENDBRANCH   9  28
BRANCH  11  30
ATOM     30  O   UNL d   1      25.157 -15.346  -5.018  0.00  0.00    -0.395 OA
ATOM     31  H   UNL d   1      24.551 -14.642  -5.265  0.00  0.00     0.210 HD
ENDBRANCH  11  30
BRANCH  15  32
ATOM     32  O   UNL d   1      27.461 -14.974   2.551  0.00  0.00    -0.389 OA
ATOM     33  H   UNL d   1      27.782 -15.832   2.872  0.00  0.00     0.210 HD
ENDBRANCH  15  32
BRANCH  18  34
ATOM     34  C   UNL d   1      28.079 -11.211   4.314  0.00  0.00    -0.045 A 
ATOM     35  C   UNL d   1      27.541 -10.107   3.804  0.00  0.00     0.087 A 
ATOM     36  C   UNL d   1      27.777  -9.012   4.730  0.00  0.00     0.283 A 
ATOM     37  O   UNL d   1      27.338  -7.910   4.580  0.00  0.00    -0.260 OA
ATOM     38  O   UNL d   1      28.533  -9.488   5.762  0.00  0.00    -0.314 OA
ATOM     39  C   UNL d   1      28.758 -10.892   5.587  0.00  0.00     0.213 A 
ENDBRANCH  18  34
TORSDOF 6
ENDMDL
MODEL 6
REMARK VINA RESULT:    -6.653      6.722     10.092
REMARK INTER + INTRA:          -9.116
REMARK INTER:                  -8.443
REMARK INTRA:                  -0.674
REMARK CONF_INDEPENDENT:        1.790
REMARK UNBOUND:                -0.674
REMARK  6 active torsions:
REMARK  status: ('A' for Active; 'I' for Inactive)
REMARK    1  A    between atoms: C_9  and  O_10 
REMARK    2  A    between atoms: C_12  and  O_13 
REMARK    3  A    between atoms: C_16  and  C_17 
REMARK    4  A    between atoms: N_18  and  N_19 
REMARK       I    between atoms: N_19  and  C_20 
REMARK       I    between atoms: C_20  and  N_21 
REMARK    5  A    between atoms: C_23  and  O_24 
REMARK    6  A    between atoms: C_27  and  C_28 
ROOT
ATOM      1  C   UNL d   1      26.226 -15.575  -5.061  0.00  0.00     0.019 C 
ATOM      2  C   UNL d   1      27.040 -14.775  -3.905  0.00  0.00    -0.005 C 
ATOM      3  C   UNL d   1      28.221 -15.647  -3.575  0.00  0.00     0.013 C 
ATOM      4  C   UNL d   1      28.919 -15.964  -4.833  0.00  0.00     0.007 C 
ATOM      5  C   UNL d   1      29.460 -14.642  -5.370  0.00  0.00     0.009 C 
ATOM      6  C   UNL d   1      28.213 -13.647  -5.832  0.00  0.00     0.026 C 
ATOM      7  C   UNL d   1      28.904 -12.344  -6.382  0.00  0.00     0.011 C 
ATOM      8  C   UNL d   1      29.714 -12.561  -7.638  0.00  0.00     0.039 C 
ATOM      9  C   UNL d   1      30.861 -13.498  -7.469  0.00  0.00     0.073 C 
ATOM     10  C   UNL d   1      32.229 -13.015  -6.996  0.00  0.00     0.070 C 
ATOM     11  C   UNL d   1      33.253 -14.263  -7.205  0.00  0.00     0.121 C 
ATOM     12  C   UNL d   1      32.682 -14.883  -6.069  0.00  0.00     0.033 C 
ATOM     13  C   UNL d   1      31.333 -15.540  -7.280  0.00  0.00     0.021 C 
ATOM     14  C   UNL d   1      30.316 -14.960  -6.534  0.00  0.00     0.031 C 
ATOM     15  C   UNL d   1      27.162 -13.413  -4.586  0.00  0.00     0.070 C 
ATOM     16  C   UNL d   1      25.434 -13.228  -4.254  0.00  0.00     0.040 C 
ATOM     17  C   UNL d   1      25.530 -13.102  -2.748  0.00  0.00     0.013 C 
ATOM     18  C   UNL d   1      26.411 -14.361  -2.499  0.00  0.00     0.028 C 
ENDROOT
BRANCH  14  19
ATOM     19  C   UNL d   1      31.170 -16.511  -5.922  0.00  0.00     0.124 C 
ATOM     20  N   UNL d   1      31.273 -17.634  -6.568  0.00  0.00    -0.186 NA
BRANCH  20  21
ATOM     21  N   UNL d   1      31.464 -18.675  -5.684  0.00  0.00    -0.230 N 
ATOM     22  C   UNL d   1      30.733 -19.753  -5.967  0.00  0.00     0.334 C 
ATOM     23  N   UNL d   1      30.030 -19.629  -7.094  0.00  0.00    -0.351 N 
ATOM     24  O   UNL d   1      30.732 -20.808  -5.222  0.00  0.00    -0.246 OA
ATOM     25  H   UNL d   1      30.118 -18.708  -7.535  0.00  0.00     0.160 HD
ATOM     26  H   UNL d   1      29.518 -20.380  -7.510  0.00  0.00     0.160 HD
ATOM     27  H   UNL d   1      31.892 -18.565  -4.758  0.00  0.00     0.194 HD
ENDBRANCH  20  21
ENDBRANCH  14  19
BRANCH   9  28
ATOM     28  O   UNL d   1      31.208 -13.635  -8.936  0.00  0.00    -0.389 OA
ATOM     29  H   UNL d   1      30.405 -13.700  -9.484  0.00  0.00     0.210 HD
ENDBRANCH   9  28
BRANCH  11  30
ATOM     30  O   UNL d   1      34.505 -14.184  -7.745  0.00  0.00    -0.395 OA
ATOM     31  H   UNL d   1      34.742 -13.252  -7.734  0.00  0.00     0.210 HD
ENDBRANCH  11  30
BRANCH  15  32
ATOM     32  O   UNL d   1      27.874 -12.460  -3.772  0.00  0.00    -0.389 OA
ATOM     33  H   UNL d   1      27.891 -11.601  -4.226  0.00  0.00     0.210 HD
ENDBRANCH  15  32
BRANCH  18  34
ATOM     34  C   UNL d   1      25.717 -15.570  -1.952  0.00  0.00    -0.045 A 
ATOM     35  C   UNL d   1      26.258 -16.494  -1.161  0.00  0.00     0.087 A 
ATOM     36  C   UNL d   1      25.189 -17.314  -0.615  0.00  0.00     0.283 A 
ATOM     37  O   UNL d   1      25.361 -18.177   0.194  0.00  0.00    -0.260 OA
ATOM     38  O   UNL d   1      24.012 -16.893  -1.166  0.00  0.00    -0.314 OA
ATOM     39  C   UNL d   1      24.254 -15.768  -2.019  0.00  0.00     0.213 A 
ENDBRANCH  18  34
TORSDOF 6
ENDMDL
MODEL 7
REMARK VINA RESULT:    -6.515      4.139      8.734
REMARK INTER + INTRA:          -9.091
REMARK INTER:                  -8.304
REMARK INTRA:                  -0.787
REMARK CONF_INDEPENDENT:        1.790
REMARK UNBOUND:                -0.787
REMARK  6 active torsions:
REMARK  status: ('A' for Active; 'I' for Inactive)
REMARK    1  A    between atoms: C_9  and  O_10 
REMARK    2  A    between atoms: C_12  and  O_13 
REMARK    3  A    between atoms: C_16  and  C_17 
REMARK    4  A    between atoms: N_18  and  N_19 
REMARK       I    between atoms: N_19  and  C_20 
REMARK       I    between atoms: C_20  and  N_21 
REMARK    5  A    between atoms: C_23  and  O_24 
REMARK    6  A    between atoms: C_27  and  C_28 
ROOT
ATOM      1  C   UNL d   1      27.157 -15.273   1.001  0.00  0.00     0.019 C 
ATOM      2  C   UNL d   1      27.962 -13.888   0.731  0.00  0.00    -0.005 C 
ATOM      3  C   UNL d   1      29.323 -14.308   0.246  0.00  0.00     0.013 C 
ATOM      4  C   UNL d   1      29.139 -15.244  -0.877  0.00  0.00     0.007 C 
ATOM      5  C   UNL d   1      28.479 -14.447  -1.998  0.00  0.00     0.009 C 
ATOM      6  C   UNL d   1      26.935 -14.008  -1.571  0.00  0.00     0.026 C 
ATOM      7  C   UNL d   1      26.369 -13.222  -2.811  0.00  0.00     0.011 C 
ATOM      8  C   UNL d   1      26.204 -14.066  -4.052  0.00  0.00     0.039 C 
ATOM      9  C   UNL d   1      27.478 -14.635  -4.575  0.00  0.00     0.073 C 
ATOM     10  C   UNL d   1      28.363 -13.863  -5.548  0.00  0.00     0.070 C 
ATOM     11  C   UNL d   1      29.486 -14.914  -6.080  0.00  0.00     0.121 C 
ATOM     12  C   UNL d   1      30.143 -14.797  -4.833  0.00  0.00     0.033 C 
ATOM     13  C   UNL d   1      28.905 -16.140  -4.214  0.00  0.00     0.021 C 
ATOM     14  C   UNL d   1      28.449 -15.315  -3.194  0.00  0.00     0.031 C 
ATOM     15  C   UNL d   1      26.938 -13.174  -0.151  0.00  0.00     0.070 C 
ATOM     16  C   UNL d   1      25.991 -12.966   1.330  0.00  0.00     0.040 C 
ATOM     17  C   UNL d   1      26.909 -11.979   2.019  0.00  0.00     0.013 C 
ATOM     18  C   UNL d   1      28.231 -12.783   1.848  0.00  0.00     0.028 C 
ENDROOT
BRANCH  14  19
ATOM     19  C   UNL d   1      30.124 -16.146  -3.061  0.00  0.00     0.124 C 
ATOM     20  N   UNL d   1      30.338 -17.422  -2.945  0.00  0.00    -0.186 NA
BRANCH  20  21
ATOM     21  N   UNL d   1      31.565 -17.646  -2.357  0.00  0.00    -0.230 N 
ATOM     22  C   UNL d   1      31.481 -18.021  -1.080  0.00  0.00     0.334 C 
ATOM     23  N   UNL d   1      30.224 -18.180  -0.662  0.00  0.00    -0.351 N 
ATOM     24  O   UNL d   1      32.523 -18.221  -0.344  0.00  0.00    -0.246 OA
ATOM     25  H   UNL d   1      29.522 -17.936  -1.367  0.00  0.00     0.160 HD
ATOM     26  H   UNL d   1      29.984 -18.563   0.230  0.00  0.00     0.160 HD
ATOM     27  H   UNL d   1      32.453 -17.305  -2.742  0.00  0.00     0.194 HD
ENDBRANCH  20  21
ENDBRANCH  14  19
BRANCH   9  28
ATOM     28  O   UNL d   1      26.861 -15.575  -5.588  0.00  0.00    -0.389 OA
ATOM     29  H   UNL d   1      26.087 -15.170  -6.019  0.00  0.00     0.210 HD
ENDBRANCH   9  28
BRANCH  11  30
ATOM     30  O   UNL d   1      29.882 -15.067  -7.378  0.00  0.00    -0.395 OA
ATOM     31  H   UNL d   1      29.159 -14.735  -7.918  0.00  0.00     0.210 HD
ENDBRANCH  11  30
BRANCH  15  32
ATOM     32  O   UNL d   1      27.394 -11.873  -0.571  0.00  0.00    -0.389 OA
ATOM     33  H   UNL d   1      28.366 -11.858  -0.566  0.00  0.00     0.210 HD
ENDBRANCH  15  32
BRANCH  18  34
ATOM     34  C   UNL d   1      28.747 -13.495   3.060  0.00  0.00    -0.045 A 
ATOM     35  C   UNL d   1      28.015 -13.947   4.075  0.00  0.00     0.087 A 
ATOM     36  C   UNL d   1      28.841 -14.831   4.880  0.00  0.00     0.283 A 
ATOM     37  O   UNL d   1      28.433 -15.452   5.816  0.00  0.00    -0.260 OA
ATOM     38  O   UNL d   1      30.100 -14.827   4.351  0.00  0.00    -0.314 OA
ATOM     39  C   UNL d   1      30.127 -14.014   3.173  0.00  0.00     0.213 A 
ENDBRANCH  18  34
TORSDOF 6
ENDMDL
MODEL 8
REMARK VINA RESULT:    -6.491      4.995      6.418
REMARK INTER + INTRA:          -8.902
REMARK INTER:                  -8.281
REMARK INTRA:                  -0.621
REMARK CONF_INDEPENDENT:        1.790
REMARK UNBOUND:                -0.621
REMARK  6 active torsions:
REMARK  status: ('A' for Active; 'I' for Inactive)
REMARK    1  A    between atoms: C_9  and  O_10 
REMARK    2  A    between atoms: C_12  and  O_13 
REMARK    3  A    between atoms: C_16  and  C_17 
REMARK    4  A    between atoms: N_18  and  N_19 
REMARK       I    between atoms: N_19  and  C_20 
REMARK       I    between atoms: C_20  and  N_21 
REMARK    5  A    between atoms: C_23  and  O_24 
REMARK    6  A    between atoms: C_27  and  C_28 
ROOT
ATOM      1  C   UNL d   1      25.643 -15.273   0.092  0.00  0.00     0.019 C 
ATOM      2  C   UNL d   1      26.220 -16.390  -0.938  0.00  0.00    -0.005 C 
ATOM      3  C   UNL d   1      25.899 -15.868  -2.312  0.00  0.00     0.013 C 
ATOM      4  C   UNL d   1      26.415 -14.491  -2.408  0.00  0.00     0.007 C 
ATOM      5  C   UNL d   1      27.933 -14.591  -2.299  0.00  0.00     0.009 C 
ATOM      6  C   UNL d   1      28.376 -15.090  -0.778  0.00  0.00     0.026 C 
ATOM      7  C   UNL d   1      29.950 -15.127  -0.796  0.00  0.00     0.011 C 
ATOM      8  C   UNL d   1      30.596 -13.773  -0.964  0.00  0.00     0.039 C 
ATOM      9  C   UNL d   1      30.266 -13.097  -2.251  0.00  0.00     0.073 C 
ATOM     10  C   UNL d   1      31.081 -13.340  -3.518  0.00  0.00     0.070 C 
ATOM     11  C   UNL d   1      30.585 -12.233  -4.602  0.00  0.00     0.121 C 
ATOM     12  C   UNL d   1      29.404 -12.989  -4.789  0.00  0.00     0.033 C 
ATOM     13  C   UNL d   1      28.730 -12.054  -3.242  0.00  0.00     0.021 C 
ATOM     14  C   UNL d   1      28.482 -13.246  -2.574  0.00  0.00     0.031 C 
ATOM     15  C   UNL d   1      27.644 -16.514  -0.395  0.00  0.00     0.070 C 
ATOM     16  C   UNL d   1      26.916 -17.368   0.974  0.00  0.00     0.040 C 
ATOM     17  C   UNL d   1      26.498 -18.620   0.231  0.00  0.00     0.013 C 
ATOM     18  C   UNL d   1      25.759 -17.916  -0.944  0.00  0.00     0.028 C 
ENDROOT
BRANCH  14  19
ATOM     19  C   UNL d   1      27.357 -12.690  -3.965  0.00  0.00     0.124 C 
ATOM     20  N   UNL d   1      26.595 -11.637  -3.960  0.00  0.00    -0.186 NA
BRANCH  20  21
ATOM     21  N   UNL d   1      25.553 -11.800  -4.849  0.00  0.00    -0.230 N 
ATOM     22  C   UNL d   1      25.695 -11.089  -5.968  0.00  0.00     0.334 C 
ATOM     23  N   UNL d   1      26.854 -10.432  -6.029  0.00  0.00    -0.351 N 
ATOM     24  O   UNL d   1      24.796 -11.066  -6.895  0.00  0.00    -0.246 OA
ATOM     25  H   UNL d   1      27.428 -10.530  -5.186  0.00  0.00     0.160 HD
ATOM     26  H   UNL d   1      27.168  -9.942  -6.842  0.00  0.00     0.160 HD
ATOM     27  H   UNL d   1      24.640 -12.190  -4.592  0.00  0.00     0.194 HD
ENDBRANCH  20  21
ENDBRANCH  14  19
BRANCH   9  28
ATOM     28  O   UNL d   1      30.853 -11.745  -1.908  0.00  0.00    -0.389 OA
ATOM     29  H   UNL d   1      31.685 -11.838  -1.409  0.00  0.00     0.210 HD
ENDBRANCH   9  28
BRANCH  11  30
ATOM     30  O   UNL d   1      31.398 -11.484  -5.404  0.00  0.00    -0.395 OA
ATOM     31  H   UNL d   1      31.042 -10.591  -5.384  0.00  0.00     0.210 HD
ENDBRANCH  11  30
BRANCH  15  32
ATOM     32  O   UNL d   1      28.430 -17.464  -1.142  0.00  0.00    -0.389 OA
ATOM     33  H   UNL d   1      29.290 -17.579  -0.707  0.00  0.00     0.210 HD
ENDBRANCH  15  32
BRANCH  18  34
ATOM     34  C   UNL d   1      24.262 -17.926  -0.900  0.00  0.00    -0.045 A 
ATOM     35  C   UNL d   1      23.457 -18.595  -1.723  0.00  0.00     0.087 A 
ATOM     36  C   UNL d   1      22.117 -18.586  -1.161  0.00  0.00     0.283 A 
ATOM     37  O   UNL d   1      21.194 -19.177  -1.638  0.00  0.00    -0.260 OA
ATOM     38  O   UNL d   1      22.141 -17.830  -0.024  0.00  0.00    -0.314 OA
ATOM     39  C   UNL d   1      23.479 -17.384   0.230  0.00  0.00     0.213 A 
ENDBRANCH  18  34
TORSDOF 6
ENDMDL
MODEL 9
REMARK VINA RESULT:    -5.977      5.801      8.152
REMARK INTER + INTRA:          -8.624
REMARK INTER:                  -7.767
REMARK INTRA:                  -0.857
REMARK CONF_INDEPENDENT:        1.790
REMARK UNBOUND:                -0.857
REMARK  6 active torsions:
REMARK  status: ('A' for Active; 'I' for Inactive)
REMARK    1  A    between atoms: C_9  and  O_10 
REMARK    2  A    between atoms: C_12  and  O_13 
REMARK    3  A    between atoms: C_16  and  C_17 
REMARK    4  A    between atoms: N_18  and  N_19 
REMARK       I    between atoms: N_19  and  C_20 
REMARK       I    between atoms: C_20  and  N_21 
REMARK    5  A    between atoms: C_23  and  O_24 
REMARK    6  A    between atoms: C_27  and  C_28 
ROOT
ATOM      1  C   UNL d   1      31.362 -17.510  -2.207  0.00  0.00     0.019 C 
ATOM      2  C   UNL d   1      31.266 -16.103  -1.401  0.00  0.00    -0.005 C 
ATOM      3  C   UNL d   1      31.019 -15.057  -2.454  0.00  0.00     0.013 C 
ATOM      4  C   UNL d   1      29.861 -15.485  -3.259  0.00  0.00     0.007 C 
ATOM      5  C   UNL d   1      28.659 -15.483  -2.320  0.00  0.00     0.009 C 
ATOM      6  C   UNL d   1      28.818 -16.669  -1.167  0.00  0.00     0.026 C 
ATOM      7  C   UNL d   1      27.515 -16.572  -0.290  0.00  0.00     0.011 C 
ATOM      8  C   UNL d   1      26.246 -16.920  -1.032  0.00  0.00     0.039 C 
ATOM      9  C   UNL d   1      25.943 -16.015  -2.177  0.00  0.00     0.073 C 
ATOM     10  C   UNL d   1      25.156 -14.721  -1.991  0.00  0.00     0.070 C 
ATOM     11  C   UNL d   1      24.807 -14.178  -3.485  0.00  0.00     0.121 C 
ATOM     12  C   UNL d   1      26.152 -13.760  -3.614  0.00  0.00     0.033 C 
ATOM     13  C   UNL d   1      26.517 -15.575  -4.153  0.00  0.00     0.021 C 
ATOM     14  C   UNL d   1      27.458 -15.734  -3.145  0.00  0.00     0.031 C 
ATOM     15  C   UNL d   1      30.234 -16.494  -0.344  0.00  0.00     0.070 C 
ATOM     16  C   UNL d   1      31.530 -17.449   0.392  0.00  0.00     0.040 C 
ATOM     17  C   UNL d   1      32.390 -16.294   0.861  0.00  0.00     0.013 C 
ATOM     18  C   UNL d   1      32.436 -15.519  -0.488  0.00  0.00     0.028 C 
ENDROOT
BRANCH  14  19
ATOM     19  C   UNL d   1      27.865 -14.719  -4.666  0.00  0.00     0.124 C 
ATOM     20  N   UNL d   1      27.857 -15.143  -5.895  0.00  0.00    -0.186 NA
BRANCH  20  21
ATOM     21  N   UNL d   1      28.679 -14.357  -6.674  0.00  0.00    -0.230 N 
ATOM     22  C   UNL d   1      29.877 -14.898  -6.895  0.00  0.00     0.334 C 
ATOM     23  N   UNL d   1      30.002 -16.124  -6.385  0.00  0.00    -0.351 N 
ATOM     24  O   UNL d   1      30.804 -14.287  -7.555  0.00  0.00    -0.246 OA
ATOM     25  H   UNL d   1      29.180 -16.435  -5.856  0.00  0.00     0.160 HD
ATOM     26  H   UNL d   1      30.790 -16.714  -6.553  0.00  0.00     0.160 HD
ATOM     27  H   UNL d   1      28.520 -13.357  -6.841  0.00  0.00     0.194 HD
ENDBRANCH  20  21
ENDBRANCH  14  19
BRANCH   9  28
ATOM     28  O   UNL d   1      24.818 -16.835  -2.770  0.00  0.00    -0.389 OA
ATOM     29  H   UNL d   1      23.953 -16.420  -2.603  0.00  0.00     0.210 HD
ENDBRANCH   9  28
BRANCH  11  30
ATOM     30  O   UNL d   1      23.596 -13.700  -3.895  0.00  0.00    -0.395 OA
ATOM     31  H   UNL d   1      23.519 -13.932  -4.825  0.00  0.00     0.210 HD
ENDBRANCH  11  30
BRANCH  15  32
ATOM     32  O   UNL d   1      29.928 -15.403   0.547  0.00  0.00    -0.389 OA
ATOM     33  H   UNL d   1      29.710 -15.758   1.425  0.00  0.00     0.210 HD
ENDBRANCH  15  32
BRANCH  18  34
ATOM     34  C   UNL d   1      33.704 -15.618  -1.278  0.00  0.00    -0.045 A 
ATOM     35  C   UNL d   1      34.391 -16.732  -1.523  0.00  0.00     0.087 A 
ATOM     36  C   UNL d   1      35.368 -16.450  -2.561  0.00  0.00     0.283 A 
ATOM     37  O   UNL d   1      36.077 -17.280  -3.048  0.00  0.00    -0.260 OA
ATOM     38  O   UNL d   1      35.287 -15.122  -2.866  0.00  0.00    -0.314 OA
ATOM     39  C   UNL d   1      34.234 -14.515  -2.107  0.00  0.00     0.213 A 
ENDBRANCH  18  34
TORSDOF 6
ENDMDL
