MODEL 1
REMARK VINA RESULT:    -8.204      0.000      0.000
REMARK INTER + INTRA:         -11.647
REMARK INTER:                 -10.889
REMARK INTRA:                  -0.758
REMARK CONF_INDEPENDENT:        2.685
REMARK UNBOUND:                -0.758
REMARK  9 active torsions:
REMARK  status: ('A' for Active; 'I' for Inactive)
REMARK    1  A    between atoms: C_2  and  C_3 
REMARK       I    between atoms: C_2  and  N_14 
REMARK    2  A    between atoms: C_3  and  C_4 
REMARK    3  A    between atoms: C_7  and  O_8 
REMARK    4  A    between atoms: O_8  and  C_9 
REMARK    5  A    between atoms: N_14  and  N_15 
REMARK       I    between atoms: N_15  and  C_16 
REMARK       I    between atoms: C_16  and  N_18 
REMARK    6  A    between atoms: N_18  and  C_19 
REMARK    7  A    between atoms: C_19  and  C_20 
REMARK    8  A    between atoms: C_20  and  C_21 
REMARK    9  A    between atoms: C_21  and  N_22 
ROOT
ATOM      1  O   UNL d   1      26.581 -15.758  -2.029  0.00  0.00    -0.272 OA
ATOM      2  C   UNL d   1      26.870 -16.050  -0.868  0.00  0.00     0.240 C 
ATOM      3  N   UNL d   1      27.769 -15.256  -0.182  0.00  0.00    -0.266 N 
ATOM      4  H   UNL d   1      28.144 -14.452  -0.690  0.00  0.00     0.190 HD
ENDROOT
BRANCH   3   5
ATOM      5  N   UNL d   1      28.229 -15.433   1.144  0.00  0.00    -0.249 N 
ATOM      6  C   UNL d   1      27.863 -14.496   2.101  0.00  0.00     0.334 C 
ATOM      7  O   UNL d   1      27.157 -13.520   1.854  0.00  0.00    -0.246 OA
ATOM      8  N   UNL d   1      28.357 -14.754   3.367  0.00  0.00    -0.342 N 
ATOM      9  H   UNL d   1      28.942 -15.566   3.506  0.00  0.00     0.164 HD
ATOM     10  H   UNL d   1      28.815 -16.227   1.357  0.00  0.00     0.192 HD
BRANCH   8  11
ATOM     11  C   UNL d   1      28.062 -13.860   4.487  0.00  0.00     0.126 C 
BRANCH  11  12
ATOM     12  C   UNL d   1      28.300 -14.494   5.862  0.00  0.00     0.040 C 
BRANCH  12  13
ATOM     13  C   UNL d   1      29.450 -13.826   6.621  0.00  0.00     0.130 C 
BRANCH  13  14
ATOM     14  N   UNL d   1      29.001 -13.308   7.929  0.00  0.00    -0.352 N 
ATOM     15  C   UNL d   1      28.993 -14.014   9.129  0.00  0.00     0.108 A 
ATOM     16  C   UNL d   1      28.506 -13.169  10.086  0.00  0.00     0.106 A 
ATOM     17  N   UNL d   1      28.244 -11.979   9.451  0.00  0.00    -0.361 N 
ATOM     18  C   UNL d   1      28.554 -12.060   8.153  0.00  0.00     0.182 A 
ATOM     19  H   UNL d   1      27.872 -11.144   9.899  0.00  0.00     0.166 HD
ENDBRANCH  13  14
ENDBRANCH  12  13
ENDBRANCH  11  12
ENDBRANCH   8  11
ENDBRANCH   3   5
BRANCH   2  20
ATOM     20  C   UNL d   1      26.286 -17.256  -0.153  0.00  0.00     0.143 C 
BRANCH  20  21
ATOM     21  C   UNL d   1      24.799 -17.466  -0.363  0.00  0.00    -0.049 A 
ATOM     22  C   UNL d   1      24.219 -18.740  -0.305  0.00  0.00     0.010 A 
ATOM     23  C   UNL d   1      22.859 -18.917  -0.599  0.00  0.00     0.037 A 
ATOM     24  C   UNL d   1      22.037 -17.817  -0.860  0.00  0.00     0.074 A 
ATOM     25  C   UNL d   1      22.606 -16.544  -0.884  0.00  0.00     0.037 A 
ATOM     26  C   UNL d   1      23.971 -16.371  -0.639  0.00  0.00     0.010 A 
BRANCH  24  27
ATOM     27  O   UNL d   1      20.713 -18.098  -1.064  0.00  0.00    -0.290 OA
BRANCH  27  28
ATOM     28  C   UNL d   1      20.246 -19.325  -0.516  0.00  0.00     0.505 C 
ATOM     29  F   UNL d   1      20.282 -19.246   0.839  0.00  0.00    -0.184 F 
ATOM     30  F   UNL d   1      18.939 -19.462  -0.858  0.00  0.00    -0.184 F 
ENDBRANCH  27  28
ENDBRANCH  24  27
ENDBRANCH  20  21
ENDBRANCH   2  20
TORSDOF 9
ENDMDL
MODEL 2
REMARK VINA RESULT:    -8.025      0.668      1.175
REMARK INTER + INTRA:         -11.472
REMARK INTER:                 -10.709
REMARK INTRA:                  -0.763
REMARK CONF_INDEPENDENT:        2.685
REMARK UNBOUND:                -0.763
REMARK  9 active torsions:
REMARK  status: ('A' for Active; 'I' for Inactive)
REMARK    1  A    between atoms: C_2  and  C_3 
REMARK       I    between atoms: C_2  and  N_14 
REMARK    2  A    between atoms: C_3  and  C_4 
REMARK    3  A    between atoms: C_7  and  O_8 
REMARK    4  A    between atoms: O_8  and  C_9 
REMARK    5  A    between atoms: N_14  and  N_15 
REMARK       I    between atoms: N_15  and  C_16 
REMARK       I    between atoms: C_16  and  N_18 
REMARK    6  A    between atoms: N_18  and  C_19 
REMARK    7  A    between atoms: C_19  and  C_20 
REMARK    8  A    between atoms: C_20  and  C_21 
REMARK    9  A    between atoms: C_21  and  N_22 
ROOT
ATOM      1  O   UNL d   1      26.455 -14.871  -1.430  0.00  0.00    -0.272 OA
ATOM      2  C   UNL d   1      26.824 -15.414  -0.389  0.00  0.00     0.240 C 
ATOM      3  N   UNL d   1      27.600 -14.697   0.502  0.00  0.00    -0.266 N 
ATOM      4  H   UNL d   1      27.820 -13.735   0.239  0.00  0.00     0.190 HD
ENDROOT
BRANCH   3   5
ATOM      5  N   UNL d   1      28.124 -15.148   1.736  0.00  0.00    -0.249 N 
ATOM      6  C   UNL d   1      27.772 -14.464   2.892  0.00  0.00     0.334 C 
ATOM      7  O   UNL d   1      27.026 -13.487   2.898  0.00  0.00    -0.246 OA
ATOM      8  N   UNL d   1      28.329 -14.979   4.049  0.00  0.00    -0.342 N 
ATOM      9  H   UNL d   1      28.944 -15.777   3.981  0.00  0.00     0.164 HD
ATOM     10  H   UNL d   1      28.742 -15.946   1.744  0.00  0.00     0.192 HD
BRANCH   8  11
ATOM     11  C   UNL d   1      28.057 -14.370   5.351  0.00  0.00     0.126 C 
BRANCH  11  12
ATOM     12  C   UNL d   1      29.220 -13.533   5.896  0.00  0.00     0.040 C 
BRANCH  12  13
ATOM     13  C   UNL d   1      29.754 -14.074   7.226  0.00  0.00     0.130 C 
BRANCH  13  14
ATOM     14  N   UNL d   1      29.324 -13.231   8.360  0.00  0.00    -0.352 N 
ATOM     15  C   UNL d   1      28.748 -13.683   9.544  0.00  0.00     0.108 A 
ATOM     16  C   UNL d   1      28.506 -12.583  10.316  0.00  0.00     0.106 A 
ATOM     17  N   UNL d   1      28.949 -11.501   9.593  0.00  0.00    -0.361 N 
ATOM     18  C   UNL d   1      29.452 -11.894   8.419  0.00  0.00     0.182 A 
ATOM     19  H   UNL d   1      28.909 -10.532   9.903  0.00  0.00     0.166 HD
ENDBRANCH  13  14
ENDBRANCH  12  13
ENDBRANCH  11  12
ENDBRANCH   8  11
ENDBRANCH   3   5
BRANCH   2  20
ATOM     20  C   UNL d   1      26.470 -16.850  -0.039  0.00  0.00     0.143 C 
BRANCH  20  21
ATOM     21  C   UNL d   1      25.026 -17.234  -0.298  0.00  0.00    -0.049 A 
ATOM     22  C   UNL d   1      24.057 -16.277  -0.626  0.00  0.00     0.010 A 
ATOM     23  C   UNL d   1      22.710 -16.646  -0.765  0.00  0.00     0.037 A 
ATOM     24  C   UNL d   1      22.326 -17.987  -0.674  0.00  0.00     0.074 A 
ATOM     25  C   UNL d   1      23.296 -18.945  -0.381  0.00  0.00     0.037 A 
ATOM     26  C   UNL d   1      24.630 -18.572  -0.195  0.00  0.00     0.010 A 
BRANCH  24  27
ATOM     27  O   UNL d   1      21.000 -18.242  -0.895  0.00  0.00    -0.290 OA
BRANCH  27  28
ATOM     28  C   UNL d   1      20.469 -19.387  -0.239  0.00  0.00     0.505 C 
ATOM     29  F   UNL d   1      20.701 -19.280   1.095  0.00  0.00    -0.184 F 
ATOM     30  F   UNL d   1      19.120 -19.368  -0.396  0.00  0.00    -0.184 F 
ENDBRANCH  27  28
ENDBRANCH  24  27
ENDBRANCH  20  21
ENDBRANCH   2  20
TORSDOF 9
ENDMDL
MODEL 3
REMARK VINA RESULT:    -7.774      0.856      1.231
REMARK INTER + INTRA:         -11.259
REMARK INTER:                 -10.459
REMARK INTRA:                  -0.800
REMARK CONF_INDEPENDENT:        2.685
REMARK UNBOUND:                -0.800
REMARK  9 active torsions:
REMARK  status: ('A' for Active; 'I' for Inactive)
REMARK    1  A    between atoms: C_2  and  C_3 
REMARK       I    between atoms: C_2  and  N_14 
REMARK    2  A    between atoms: C_3  and  C_4 
REMARK    3  A    between atoms: C_7  and  O_8 
REMARK    4  A    between atoms: O_8  and  C_9 
REMARK    5  A    between atoms: N_14  and  N_15 
REMARK       I    between atoms: N_15  and  C_16 
REMARK       I    between atoms: C_16  and  N_18 
REMARK    6  A    between atoms: N_18  and  C_19 
REMARK    7  A    between atoms: C_19  and  C_20 
REMARK    8  A    between atoms: C_20  and  C_21 
REMARK    9  A    between atoms: C_21  and  N_22 
ROOT
ATOM      1  O   UNL d   1      26.770 -16.314  -2.168  0.00  0.00    -0.272 OA
ATOM      2  C   UNL d   1      27.082 -16.384  -0.979  0.00  0.00     0.240 C 
ATOM      3  N   UNL d   1      28.118 -15.598  -0.510  0.00  0.00    -0.266 N 
ATOM      4  H   UNL d   1      28.568 -14.988  -1.194  0.00  0.00     0.190 HD
ENDROOT
BRANCH   3   5
ATOM      5  N   UNL d   1      28.624 -15.547   0.810  0.00  0.00    -0.249 N 
ATOM      6  C   UNL d   1      28.253 -14.480   1.617  0.00  0.00     0.334 C 
ATOM      7  O   UNL d   1      27.506 -13.577   1.244  0.00  0.00    -0.246 OA
ATOM      8  N   UNL d   1      28.794 -14.516   2.890  0.00  0.00    -0.342 N 
ATOM      9  H   UNL d   1      29.411 -15.277   3.136  0.00  0.00     0.164 HD
ATOM     10  H   UNL d   1      29.243 -16.279   1.126  0.00  0.00     0.192 HD
BRANCH   8  11
ATOM     11  C   UNL d   1      28.502 -13.463   3.863  0.00  0.00     0.126 C 
BRANCH  11  12
ATOM     12  C   UNL d   1      27.741 -13.958   5.099  0.00  0.00     0.040 C 
BRANCH  12  13
ATOM     13  C   UNL d   1      28.647 -14.083   6.328  0.00  0.00     0.130 C 
BRANCH  13  14
ATOM     14  N   UNL d   1      28.789 -12.788   7.024  0.00  0.00    -0.352 N 
ATOM     15  C   UNL d   1      29.561 -11.710   6.598  0.00  0.00     0.108 A 
ATOM     16  C   UNL d   1      29.412 -10.720   7.527  0.00  0.00     0.106 A 
ATOM     17  N   UNL d   1      28.551 -11.213   8.479  0.00  0.00    -0.361 N 
ATOM     18  C   UNL d   1      28.167 -12.455   8.169  0.00  0.00     0.182 A 
ATOM     19  H   UNL d   1      28.239 -10.708   9.306  0.00  0.00     0.166 HD
ENDBRANCH  13  14
ENDBRANCH  12  13
ENDBRANCH  11  12
ENDBRANCH   8  11
ENDBRANCH   3   5
BRANCH   2  20
ATOM     20  C   UNL d   1      26.381 -17.308   0.003  0.00  0.00     0.143 C 
BRANCH  20  21
ATOM     21  C   UNL d   1      24.885 -17.445  -0.205  0.00  0.00    -0.049 A 
ATOM     22  C   UNL d   1      24.233 -18.678  -0.071  0.00  0.00     0.010 A 
ATOM     23  C   UNL d   1      22.866 -18.796  -0.364  0.00  0.00     0.037 A 
ATOM     24  C   UNL d   1      22.110 -17.670  -0.701  0.00  0.00     0.074 A 
ATOM     25  C   UNL d   1      22.751 -16.436  -0.802  0.00  0.00     0.037 A 
ATOM     26  C   UNL d   1      24.122 -16.325  -0.557  0.00  0.00     0.010 A 
BRANCH  24  27
ATOM     27  O   UNL d   1      20.773 -17.888  -0.898  0.00  0.00    -0.290 OA
BRANCH  27  28
ATOM     28  C   UNL d   1      20.344 -19.241  -0.810  0.00  0.00     0.505 C 
ATOM     29  F   UNL d   1      19.149 -19.285  -0.167  0.00  0.00    -0.184 F 
ATOM     30  F   UNL d   1      20.117 -19.688  -2.072  0.00  0.00    -0.184 F 
ENDBRANCH  27  28
ENDBRANCH  24  27
ENDBRANCH  20  21
ENDBRANCH   2  20
TORSDOF 9
ENDMDL
MODEL 4
REMARK VINA RESULT:    -7.289      1.319      1.556
REMARK INTER + INTRA:         -10.857
REMARK INTER:                  -9.974
REMARK INTRA:                  -0.883
REMARK CONF_INDEPENDENT:        2.685
REMARK UNBOUND:                -0.883
REMARK  9 active torsions:
REMARK  status: ('A' for Active; 'I' for Inactive)
REMARK    1  A    between atoms: C_2  and  C_3 
REMARK       I    between atoms: C_2  and  N_14 
REMARK    2  A    between atoms: C_3  and  C_4 
REMARK    3  A    between atoms: C_7  and  O_8 
REMARK    4  A    between atoms: O_8  and  C_9 
REMARK    5  A    between atoms: N_14  and  N_15 
REMARK       I    between atoms: N_15  and  C_16 
REMARK       I    between atoms: C_16  and  N_18 
REMARK    6  A    between atoms: N_18  and  C_19 
REMARK    7  A    between atoms: C_19  and  C_20 
REMARK    8  A    between atoms: C_20  and  C_21 
REMARK    9  A    between atoms: C_21  and  N_22 
ROOT
ATOM      1  O   UNL d   1      26.375 -13.854  -0.736  0.00  0.00    -0.272 OA
ATOM      2  C   UNL d   1      26.927 -14.619   0.054  0.00  0.00     0.240 C 
ATOM      3  N   UNL d   1      27.380 -14.123   1.262  0.00  0.00    -0.266 N 
ATOM      4  H   UNL d   1      27.218 -13.129   1.432  0.00  0.00     0.190 HD
ENDROOT
BRANCH   3   5
ATOM      5  N   UNL d   1      28.042 -14.839   2.287  0.00  0.00    -0.249 N 
ATOM      6  C   UNL d   1      27.898 -14.401   3.597  0.00  0.00     0.334 C 
ATOM      7  O   UNL d   1      27.222 -13.423   3.912  0.00  0.00    -0.246 OA
ATOM      8  N   UNL d   1      28.579 -15.164   4.529  0.00  0.00    -0.342 N 
ATOM      9  H   UNL d   1      29.127 -15.949   4.209  0.00  0.00     0.164 HD
ATOM     10  H   UNL d   1      28.604 -15.639   2.040  0.00  0.00     0.192 HD
BRANCH   8  11
ATOM     11  C   UNL d   1      28.530 -14.833   5.953  0.00  0.00     0.126 C 
BRANCH  11  12
ATOM     12  C   UNL d   1      29.622 -13.852   6.396  0.00  0.00     0.040 C 
BRANCH  12  13
ATOM     13  C   UNL d   1      29.043 -12.562   6.983  0.00  0.00     0.130 C 
BRANCH  13  14
ATOM     14  N   UNL d   1      28.788 -12.697   8.431  0.00  0.00    -0.352 N 
ATOM     15  C   UNL d   1      28.786 -13.887   9.154  0.00  0.00     0.108 A 
ATOM     16  C   UNL d   1      28.508 -13.565  10.452  0.00  0.00     0.106 A 
ATOM     17  N   UNL d   1      28.361 -12.199  10.487  0.00  0.00    -0.361 N 
ATOM     18  C   UNL d   1      28.542 -11.675   9.270  0.00  0.00     0.182 A 
ATOM     19  H   UNL d   1      28.151 -11.652  11.319  0.00  0.00     0.166 HD
ENDBRANCH  13  14
ENDBRANCH  12  13
ENDBRANCH  11  12
ENDBRANCH   8  11
ENDBRANCH   3   5
BRANCH   2  20
ATOM     20  C   UNL d   1      27.144 -16.093  -0.243  0.00  0.00     0.143 C 
BRANCH  20  21
ATOM     21  C   UNL d   1      25.875 -16.902  -0.429  0.00  0.00    -0.049 A 
ATOM     22  C   UNL d   1      25.729 -18.181   0.123  0.00  0.00     0.010 A 
ATOM     23  C   UNL d   1      24.584 -18.946  -0.146  0.00  0.00     0.037 A 
ATOM     24  C   UNL d   1      23.528 -18.411  -0.888  0.00  0.00     0.074 A 
ATOM     25  C   UNL d   1      23.657 -17.124  -1.410  0.00  0.00     0.037 A 
ATOM     26  C   UNL d   1      24.818 -16.379  -1.183  0.00  0.00     0.010 A 
BRANCH  24  27
ATOM     27  O   UNL d   1      22.431 -19.218  -1.030  0.00  0.00    -0.290 OA
BRANCH  27  28
ATOM     28  C   UNL d   1      21.187 -18.652  -0.636  0.00  0.00     0.505 C 
ATOM     29  F   UNL d   1      21.037 -17.447  -1.243  0.00  0.00    -0.184 F 
ATOM     30  F   UNL d   1      20.198 -19.449  -1.116  0.00  0.00    -0.184 F 
ENDBRANCH  27  28
ENDBRANCH  24  27
ENDBRANCH  20  21
ENDBRANCH   2  20
TORSDOF 9
ENDMDL
MODEL 5
REMARK VINA RESULT:    -7.235      1.061      1.289
REMARK INTER + INTRA:         -10.813
REMARK INTER:                  -9.920
REMARK INTRA:                  -0.893
REMARK CONF_INDEPENDENT:        2.685
REMARK UNBOUND:                -0.893
REMARK  9 active torsions:
REMARK  status: ('A' for Active; 'I' for Inactive)
REMARK    1  A    between atoms: C_2  and  C_3 
REMARK       I    between atoms: C_2  and  N_14 
REMARK    2  A    between atoms: C_3  and  C_4 
REMARK    3  A    between atoms: C_7  and  O_8 
REMARK    4  A    between atoms: O_8  and  C_9 
REMARK    5  A    between atoms: N_14  and  N_15 
REMARK       I    between atoms: N_15  and  C_16 
REMARK       I    between atoms: C_16  and  N_18 
REMARK    6  A    between atoms: N_18  and  C_19 
REMARK    7  A    between atoms: C_19  and  C_20 
REMARK    8  A    between atoms: C_20  and  C_21 
REMARK    9  A    between atoms: C_21  and  N_22 
ROOT
ATOM      1  O   UNL d   1      28.243 -14.864  -2.079  0.00  0.00    -0.272 OA
ATOM      2  C   UNL d   1      28.258 -15.371  -0.957  0.00  0.00     0.240 C 
ATOM      3  N   UNL d   1      28.703 -14.617   0.113  0.00  0.00    -0.266 N 
ATOM      4  H   UNL d   1      28.993 -13.660  -0.098  0.00  0.00     0.190 HD
ENDROOT
BRANCH   3   5
ATOM      5  N   UNL d   1      28.802 -15.023   1.464  0.00  0.00    -0.249 N 
ATOM      6  C   UNL d   1      28.002 -14.388   2.404  0.00  0.00     0.334 C 
ATOM      7  O   UNL d   1      27.210 -13.491   2.122  0.00  0.00    -0.246 OA
ATOM      8  N   UNL d   1      28.166 -14.854   3.697  0.00  0.00    -0.342 N 
ATOM      9  H   UNL d   1      28.841 -15.585   3.869  0.00  0.00     0.164 HD
ATOM     10  H   UNL d   1      29.454 -15.754   1.709  0.00  0.00     0.192 HD
BRANCH   8  11
ATOM     11  C   UNL d   1      27.397 -14.287   4.805  0.00  0.00     0.126 C 
BRANCH  11  12
ATOM     12  C   UNL d   1      28.123 -13.158   5.546  0.00  0.00     0.040 C 
BRANCH  12  13
ATOM     13  C   UNL d   1      29.111 -13.689   6.590  0.00  0.00     0.130 C 
BRANCH  13  14
ATOM     14  N   UNL d   1      28.937 -13.008   7.889  0.00  0.00    -0.352 N 
ATOM     15  C   UNL d   1      28.584 -13.616   9.090  0.00  0.00     0.108 A 
ATOM     16  C   UNL d   1      28.533 -12.631  10.036  0.00  0.00     0.106 A 
ATOM     17  N   UNL d   1      28.865 -11.463   9.393  0.00  0.00    -0.361 N 
ATOM     18  C   UNL d   1      29.119 -11.693   8.100  0.00  0.00     0.182 A 
ATOM     19  H   UNL d   1      28.918 -10.546   9.832  0.00  0.00     0.166 HD
ENDBRANCH  13  14
ENDBRANCH  12  13
ENDBRANCH  11  12
ENDBRANCH   8  11
ENDBRANCH   3   5
BRANCH   2  20
ATOM     20  C   UNL d   1      27.815 -16.800  -0.693  0.00  0.00     0.143 C 
BRANCH  20  21
ATOM     21  C   UNL d   1      26.315 -16.995  -0.588  0.00  0.00    -0.049 A 
ATOM     22  C   UNL d   1      25.757 -17.992   0.223  0.00  0.00     0.010 A 
ATOM     23  C   UNL d   1      24.372 -18.214   0.226  0.00  0.00     0.037 A 
ATOM     24  C   UNL d   1      23.515 -17.385  -0.503  0.00  0.00     0.074 A 
ATOM     25  C   UNL d   1      24.067 -16.371  -1.285  0.00  0.00     0.037 A 
ATOM     26  C   UNL d   1      25.450 -16.179  -1.327  0.00  0.00     0.010 A 
BRANCH  24  27
ATOM     27  O   UNL d   1      22.178 -17.648  -0.373  0.00  0.00    -0.290 OA
BRANCH  27  28
ATOM     28  C   UNL d   1      21.801 -19.016  -0.467  0.00  0.00     0.505 C 
ATOM     29  F   UNL d   1      21.062 -19.348   0.622  0.00  0.00    -0.184 F 
ATOM     30  F   UNL d   1      20.981 -19.149  -1.541  0.00  0.00    -0.184 F 
ENDBRANCH  27  28
ENDBRANCH  24  27
ENDBRANCH  20  21
ENDBRANCH   2  20
TORSDOF 9
ENDMDL
MODEL 6
REMARK VINA RESULT:    -6.453      5.542      6.944
REMARK INTER + INTRA:         -10.162
REMARK INTER:                  -9.137
REMARK INTRA:                  -1.024
REMARK CONF_INDEPENDENT:        2.685
REMARK UNBOUND:                -1.024
REMARK  9 active torsions:
REMARK  status: ('A' for Active; 'I' for Inactive)
REMARK    1  A    between atoms: C_2  and  C_3 
REMARK       I    between atoms: C_2  and  N_14 
REMARK    2  A    between atoms: C_3  and  C_4 
REMARK    3  A    between atoms: C_7  and  O_8 
REMARK    4  A    between atoms: O_8  and  C_9 
REMARK    5  A    between atoms: N_14  and  N_15 
REMARK       I    between atoms: N_15  and  C_16 
REMARK       I    between atoms: C_16  and  N_18 
REMARK    6  A    between atoms: N_18  and  C_19 
REMARK    7  A    between atoms: C_19  and  C_20 
REMARK    8  A    between atoms: C_20  and  C_21 
REMARK    9  A    between atoms: C_21  and  N_22 
ROOT
ATOM      1  O   UNL d   1      26.403 -15.936  -2.161  0.00  0.00    -0.272 OA
ATOM      2  C   UNL d   1      26.995 -16.646  -1.348  0.00  0.00     0.240 C 
ATOM      3  N   UNL d   1      28.355 -16.846  -1.499  0.00  0.00    -0.266 N 
ATOM      4  H   UNL d   1      28.796 -16.376  -2.291  0.00  0.00     0.190 HD
ENDROOT
BRANCH   3   5
ATOM      5  N   UNL d   1      29.200 -17.630  -0.679  0.00  0.00    -0.249 N 
ATOM      6  C   UNL d   1      30.396 -18.090  -1.213  0.00  0.00     0.334 C 
ATOM      7  O   UNL d   1      30.759 -17.849  -2.363  0.00  0.00    -0.246 OA
ATOM      8  N   UNL d   1      31.156 -18.845  -0.338  0.00  0.00    -0.342 N 
ATOM      9  H   UNL d   1      30.800 -19.020   0.591  0.00  0.00     0.164 HD
ATOM     10  H   UNL d   1      28.909 -17.840   0.265  0.00  0.00     0.192 HD
BRANCH   8  11
ATOM     11  C   UNL d   1      32.444 -19.405  -0.748  0.00  0.00     0.126 C 
BRANCH  11  12
ATOM     12  C   UNL d   1      32.356 -20.315  -1.979  0.00  0.00     0.040 C 
BRANCH  12  13
ATOM     13  C   UNL d   1      32.109 -21.779  -1.603  0.00  0.00     0.130 C 
BRANCH  13  14
ATOM     14  N   UNL d   1      31.743 -21.914  -0.178  0.00  0.00    -0.352 N 
ATOM     15  C   UNL d   1      30.473 -21.731   0.360  0.00  0.00     0.108 A 
ATOM     16  C   UNL d   1      30.574 -21.950   1.705  0.00  0.00     0.106 A 
ATOM     17  N   UNL d   1      31.889 -22.268   1.945  0.00  0.00    -0.361 N 
ATOM     18  C   UNL d   1      32.591 -22.258   0.807  0.00  0.00     0.182 A 
ATOM     19  H   UNL d   1      32.283 -22.489   2.857  0.00  0.00     0.166 HD
ENDBRANCH  13  14
ENDBRANCH  12  13
ENDBRANCH  11  12
ENDBRANCH   8  11
ENDBRANCH   3   5
BRANCH   2  20
ATOM     20  C   UNL d   1      26.294 -17.324  -0.183  0.00  0.00     0.143 C 
BRANCH  20  21
ATOM     21  C   UNL d   1      24.793 -17.474  -0.339  0.00  0.00    -0.049 A 
ATOM     22  C   UNL d   1      24.170 -18.727  -0.291  0.00  0.00     0.010 A 
ATOM     23  C   UNL d   1      22.793 -18.847  -0.535  0.00  0.00     0.037 A 
ATOM     24  C   UNL d   1      22.004 -17.711  -0.736  0.00  0.00     0.074 A 
ATOM     25  C   UNL d   1      22.618 -16.460  -0.751  0.00  0.00     0.037 A 
ATOM     26  C   UNL d   1      23.997 -16.343  -0.555  0.00  0.00     0.010 A 
BRANCH  24  27
ATOM     27  O   UNL d   1      20.663 -17.939  -0.895  0.00  0.00    -0.290 OA
BRANCH  27  28
ATOM     28  C   UNL d   1      20.260 -19.303  -0.900  0.00  0.00     0.505 C 
ATOM     29  F   UNL d   1      19.017 -19.399  -0.363  0.00  0.00    -0.184 F 
ATOM     30  F   UNL d   1      20.151 -19.700  -2.194  0.00  0.00    -0.184 F 
ENDBRANCH  27  28
ENDBRANCH  24  27
ENDBRANCH  20  21
ENDBRANCH   2  20
TORSDOF 9
ENDMDL
MODEL 7
REMARK VINA RESULT:    -6.450      4.996      6.416
REMARK INTER + INTRA:         -10.213
REMARK INTER:                  -9.135
REMARK INTRA:                  -1.079
REMARK CONF_INDEPENDENT:        2.685
REMARK UNBOUND:                -1.079
REMARK  9 active torsions:
REMARK  status: ('A' for Active; 'I' for Inactive)
REMARK    1  A    between atoms: C_2  and  C_3 
REMARK       I    between atoms: C_2  and  N_14 
REMARK    2  A    between atoms: C_3  and  C_4 
REMARK    3  A    between atoms: C_7  and  O_8 
REMARK    4  A    between atoms: O_8  and  C_9 
REMARK    5  A    between atoms: N_14  and  N_15 
REMARK       I    between atoms: N_15  and  C_16 
REMARK       I    between atoms: C_16  and  N_18 
REMARK    6  A    between atoms: N_18  and  C_19 
REMARK    7  A    between atoms: C_19  and  C_20 
REMARK    8  A    between atoms: C_20  and  C_21 
REMARK    9  A    between atoms: C_21  and  N_22 
ROOT
ATOM      1  O   UNL d   1      26.299 -18.574   0.926  0.00  0.00    -0.272 OA
ATOM      2  C   UNL d   1      26.702 -17.663   0.203  0.00  0.00     0.240 C 
ATOM      3  N   UNL d   1      28.063 -17.456   0.080  0.00  0.00    -0.266 N 
ATOM      4  H   UNL d   1      28.666 -18.090   0.605  0.00  0.00     0.190 HD
ENDROOT
BRANCH   3   5
ATOM      5  N   UNL d   1      28.711 -16.462  -0.690  0.00  0.00    -0.249 N 
ATOM      6  C   UNL d   1      28.520 -15.131  -0.345  0.00  0.00     0.334 C 
ATOM      7  O   UNL d   1      27.817 -14.771   0.598  0.00  0.00    -0.246 OA
ATOM      8  N   UNL d   1      29.195 -14.232  -1.152  0.00  0.00    -0.342 N 
ATOM      9  H   UNL d   1      29.747 -14.586  -1.920  0.00  0.00     0.164 HD
ATOM     10  H   UNL d   1      29.285 -16.744  -1.470  0.00  0.00     0.192 HD
BRANCH   8  11
ATOM     11  C   UNL d   1      29.096 -12.791  -0.921  0.00  0.00     0.126 C 
BRANCH  11  12
ATOM     12  C   UNL d   1      27.654 -12.279  -0.819  0.00  0.00     0.040 C 
BRANCH  12  13
ATOM     13  C   UNL d   1      27.139 -11.721  -2.149  0.00  0.00     0.130 C 
BRANCH  13  14
ATOM     14  N   UNL d   1      26.222 -12.671  -2.811  0.00  0.00    -0.352 N 
ATOM     15  C   UNL d   1      25.915 -13.955  -2.369  0.00  0.00     0.108 A 
ATOM     16  C   UNL d   1      25.034 -14.486  -3.267  0.00  0.00     0.106 A 
ATOM     17  N   UNL d   1      24.821 -13.516  -4.217  0.00  0.00    -0.361 N 
ATOM     18  C   UNL d   1      25.529 -12.417  -3.935  0.00  0.00     0.182 A 
ATOM     19  H   UNL d   1      24.207 -13.608  -5.024  0.00  0.00     0.166 HD
ENDBRANCH  13  14
ENDBRANCH  12  13
ENDBRANCH  11  12
ENDBRANCH   8  11
ENDBRANCH   3   5
BRANCH   2  20
ATOM     20  C   UNL d   1      25.763 -16.744  -0.561  0.00  0.00     0.143 C 
BRANCH  20  21
ATOM     21  C   UNL d   1      24.337 -17.244  -0.684  0.00  0.00    -0.049 A 
ATOM     22  C   UNL d   1      23.264 -16.366  -0.882  0.00  0.00     0.010 A 
ATOM     23  C   UNL d   1      21.945 -16.846  -0.895  0.00  0.00     0.037 A 
ATOM     24  C   UNL d   1      21.684 -18.216  -0.805  0.00  0.00     0.074 A 
ATOM     25  C   UNL d   1      22.755 -19.094  -0.641  0.00  0.00     0.037 A 
ATOM     26  C   UNL d   1      24.065 -18.613  -0.581  0.00  0.00     0.010 A 
BRANCH  24  27
ATOM     27  O   UNL d   1      20.368 -18.578  -0.898  0.00  0.00    -0.290 OA
BRANCH  27  28
ATOM     28  C   UNL d   1      19.976 -19.702  -0.120  0.00  0.00     0.505 C 
ATOM     29  F   UNL d   1      20.253 -19.455   1.186  0.00  0.00    -0.184 F 
ATOM     30  F   UNL d   1      18.626 -19.820  -0.210  0.00  0.00    -0.184 F 
ENDBRANCH  27  28
ENDBRANCH  24  27
ENDBRANCH  20  21
ENDBRANCH   2  20
TORSDOF 9
ENDMDL
MODEL 8
REMARK VINA RESULT:    -6.401      5.528      8.038
REMARK INTER + INTRA:         -10.154
REMARK INTER:                  -9.086
REMARK INTRA:                  -1.068
REMARK CONF_INDEPENDENT:        2.685
REMARK UNBOUND:                -1.068
REMARK  9 active torsions:
REMARK  status: ('A' for Active; 'I' for Inactive)
REMARK    1  A    between atoms: C_2  and  C_3 
REMARK       I    between atoms: C_2  and  N_14 
REMARK    2  A    between atoms: C_3  and  C_4 
REMARK    3  A    between atoms: C_7  and  O_8 
REMARK    4  A    between atoms: O_8  and  C_9 
REMARK    5  A    between atoms: N_14  and  N_15 
REMARK       I    between atoms: N_15  and  C_16 
REMARK       I    between atoms: C_16  and  N_18 
REMARK    6  A    between atoms: N_18  and  C_19 
REMARK    7  A    between atoms: C_19  and  C_20 
REMARK    8  A    between atoms: C_20  and  C_21 
REMARK    9  A    between atoms: C_21  and  N_22 
ROOT
ATOM      1  O   UNL d   1      26.417 -15.937  -2.017  0.00  0.00    -0.272 OA
ATOM      2  C   UNL d   1      27.003 -16.697  -1.246  0.00  0.00     0.240 C 
ATOM      3  N   UNL d   1      28.362 -16.896  -1.404  0.00  0.00    -0.266 N 
ATOM      4  H   UNL d   1      28.809 -16.383  -2.166  0.00  0.00     0.190 HD
ENDROOT
BRANCH   3   5
ATOM      5  N   UNL d   1      29.200 -17.732  -0.629  0.00  0.00    -0.249 N 
ATOM      6  C   UNL d   1      30.534 -17.849  -0.993  0.00  0.00     0.334 C 
ATOM      7  O   UNL d   1      31.026 -17.261  -1.955  0.00  0.00    -0.246 OA
ATOM      8  N   UNL d   1      31.275 -18.684  -0.177  0.00  0.00    -0.342 N 
ATOM      9  H   UNL d   1      30.814 -19.149   0.591  0.00  0.00     0.164 HD
ATOM     10  H   UNL d   1      28.806 -18.225   0.159  0.00  0.00     0.192 HD
BRANCH   8  11
ATOM     11  C   UNL d   1      32.698 -18.915  -0.428  0.00  0.00     0.126 C 
BRANCH  11  12
ATOM     12  C   UNL d   1      33.030 -19.176  -1.902  0.00  0.00     0.040 C 
BRANCH  12  13
ATOM     13  C   UNL d   1      33.014 -20.668  -2.247  0.00  0.00     0.130 C 
BRANCH  13  14
ATOM     14  N   UNL d   1      31.975 -20.977  -3.249  0.00  0.00    -0.352 N 
ATOM     15  C   UNL d   1      31.673 -20.216  -4.376  0.00  0.00     0.108 A 
ATOM     16  C   UNL d   1      30.656 -20.854  -5.028  0.00  0.00     0.106 A 
ATOM     17  N   UNL d   1      30.377 -21.982  -4.294  0.00  0.00    -0.361 N 
ATOM     18  C   UNL d   1      31.180 -22.061  -3.228  0.00  0.00     0.182 A 
ATOM     19  H   UNL d   1      29.663 -22.670  -4.524  0.00  0.00     0.166 HD
ENDBRANCH  13  14
ENDBRANCH  12  13
ENDBRANCH  11  12
ENDBRANCH   8  11
ENDBRANCH   3   5
BRANCH   2  20
ATOM     20  C   UNL d   1      26.294 -17.438  -0.124  0.00  0.00     0.143 C 
BRANCH  20  21
ATOM     21  C   UNL d   1      24.794 -17.575  -0.296  0.00  0.00    -0.049 A 
ATOM     22  C   UNL d   1      24.158 -18.823  -0.247  0.00  0.00     0.010 A 
ATOM     23  C   UNL d   1      22.784 -18.931  -0.506  0.00  0.00     0.037 A 
ATOM     24  C   UNL d   1      22.007 -17.790  -0.723  0.00  0.00     0.074 A 
ATOM     25  C   UNL d   1      22.633 -16.545  -0.739  0.00  0.00     0.037 A 
ATOM     26  C   UNL d   1      24.010 -16.439  -0.529  0.00  0.00     0.010 A 
BRANCH  24  27
ATOM     27  O   UNL d   1      20.666 -18.007  -0.896  0.00  0.00    -0.290 OA
BRANCH  27  28
ATOM     28  C   UNL d   1      20.224 -19.346  -0.713  0.00  0.00     0.505 C 
ATOM     29  F   UNL d   1      20.055 -19.579   0.614  0.00  0.00    -0.184 F 
ATOM     30  F   UNL d   1      18.996 -19.460  -1.281  0.00  0.00    -0.184 F 
ENDBRANCH  27  28
ENDBRANCH  24  27
ENDBRANCH  20  21
ENDBRANCH   2  20
TORSDOF 9
ENDMDL
MODEL 9
REMARK VINA RESULT:    -6.378      2.172      3.094
REMARK INTER + INTRA:         -10.124
REMARK INTER:                  -9.063
REMARK INTRA:                  -1.062
REMARK CONF_INDEPENDENT:        2.685
REMARK UNBOUND:                -1.062
REMARK  9 active torsions:
REMARK  status: ('A' for Active; 'I' for Inactive)
REMARK    1  A    between atoms: C_2  and  C_3 
REMARK       I    between atoms: C_2  and  N_14 
REMARK    2  A    between atoms: C_3  and  C_4 
REMARK    3  A    between atoms: C_7  and  O_8 
REMARK    4  A    between atoms: O_8  and  C_9 
REMARK    5  A    between atoms: N_14  and  N_15 
REMARK       I    between atoms: N_15  and  C_16 
REMARK       I    between atoms: C_16  and  N_18 
REMARK    6  A    between atoms: N_18  and  C_19 
REMARK    7  A    between atoms: C_19  and  C_20 
REMARK    8  A    between atoms: C_20  and  C_21 
REMARK    9  A    between atoms: C_21  and  N_22 
ROOT
ATOM      1  O   UNL d   1      26.623 -16.281  -2.234  0.00  0.00    -0.272 OA
ATOM      2  C   UNL d   1      26.880 -16.417  -1.038  0.00  0.00     0.240 C 
ATOM      3  N   UNL d   1      27.812 -15.580  -0.453  0.00  0.00    -0.266 N 
ATOM      4  H   UNL d   1      28.236 -14.879  -1.063  0.00  0.00     0.190 HD
ENDROOT
BRANCH   3   5
ATOM      5  N   UNL d   1      28.243 -15.589   0.894  0.00  0.00    -0.249 N 
ATOM      6  C   UNL d   1      27.607 -14.746   1.796  0.00  0.00     0.334 C 
ATOM      7  O   UNL d   1      26.686 -13.994   1.484  0.00  0.00    -0.246 OA
ATOM      8  N   UNL d   1      28.095 -14.826   3.089  0.00  0.00    -0.342 N 
ATOM      9  H   UNL d   1      28.862 -15.454   3.282  0.00  0.00     0.164 HD
ATOM     10  H   UNL d   1      29.003 -16.197   1.161  0.00  0.00     0.192 HD
BRANCH   8  11
ATOM     11  C   UNL d   1      27.532 -14.001   4.158  0.00  0.00     0.126 C 
BRANCH  11  12
ATOM     12  C   UNL d   1      28.581 -13.458   5.136  0.00  0.00     0.040 C 
BRANCH  12  13
ATOM     13  C   UNL d   1      29.134 -12.098   4.700  0.00  0.00     0.130 C 
BRANCH  13  14
ATOM     14  N   UNL d   1      30.135 -12.244   3.624  0.00  0.00    -0.352 N 
ATOM     15  C   UNL d   1      31.072 -13.268   3.513  0.00  0.00     0.108 A 
ATOM     16  C   UNL d   1      31.796 -13.024   2.380  0.00  0.00     0.106 A 
ATOM     17  N   UNL d   1      31.277 -11.876   1.832  0.00  0.00    -0.361 N 
ATOM     18  C   UNL d   1      30.268 -11.413   2.576  0.00  0.00     0.182 A 
ATOM     19  H   UNL d   1      31.605 -11.435   0.975  0.00  0.00     0.166 HD
ENDBRANCH  13  14
ENDBRANCH  12  13
ENDBRANCH  11  12
ENDBRANCH   8  11
ENDBRANCH   3   5
BRANCH   2  20
ATOM     20  C   UNL d   1      26.221 -17.476  -0.169  0.00  0.00     0.143 C 
BRANCH  20  21
ATOM     21  C   UNL d   1      24.717 -17.589  -0.329  0.00  0.00    -0.049 A 
ATOM     22  C   UNL d   1      24.062 -18.826  -0.277  0.00  0.00     0.010 A 
ATOM     23  C   UNL d   1      22.684 -18.912  -0.524  0.00  0.00     0.037 A 
ATOM     24  C   UNL d   1      21.924 -17.758  -0.731  0.00  0.00     0.074 A 
ATOM     25  C   UNL d   1      22.569 -16.522  -0.750  0.00  0.00     0.037 A 
ATOM     26  C   UNL d   1      23.950 -16.439  -0.551  0.00  0.00     0.010 A 
BRANCH  24  27
ATOM     27  O   UNL d   1      20.578 -17.953  -0.893  0.00  0.00    -0.290 OA
BRANCH  27  28
ATOM     28  C   UNL d   1      20.152 -19.306  -0.985  0.00  0.00     0.505 C 
ATOM     29  F   UNL d   1      18.823 -19.371  -0.715  0.00  0.00    -0.184 F 
ATOM     30  F   UNL d   1      20.301 -19.703  -2.275  0.00  0.00    -0.184 F 
ENDBRANCH  27  28
ENDBRANCH  24  27
ENDBRANCH  20  21
ENDBRANCH   2  20
TORSDOF 9
ENDMDL
