MODEL 1
REMARK VINA RESULT:    -7.785      0.000      0.000
REMARK INTER + INTRA:         -11.133
REMARK INTER:                  -9.575
REMARK INTRA:                  -1.558
REMARK CONF_INDEPENDENT:        1.790
REMARK UNBOUND:                -1.558
REMARK  6 active torsions:
REMARK  status: ('A' for Active; 'I' for Inactive)
REMARK    1  A    between atoms: C_2  and  C_3 
REMARK       I    between atoms: C_2  and  N_11 
REMARK    2  A    between atoms: C_4  and  O_5 
REMARK    3  A    between atoms: C_9  and  O_10 
REMARK    4  A    between atoms: C_14  and  C_15 
REMARK    5  A    between atoms: C_17  and  C_18 
REMARK    6  A    between atoms: C_18  and  C_19 
ROOT
ATOM      1  O   UNL d   1      28.597 -10.820   7.516  0.00  0.00    -0.267 OA
ATOM      2  C   UNL d   1      28.702 -12.034   7.308  0.00  0.00     0.259 C 
ATOM      3  N   UNL d   1      28.575 -12.620   6.057  0.00  0.00    -0.348 N 
ATOM      4  C   UNL d   1      27.794 -13.838   5.853  0.00  0.00     0.127 C 
ATOM      5  C   UNL d   1      28.585 -14.905   5.094  0.00  0.00     0.030 C 
ATOM      6  C   UNL d   1      29.249 -14.360   3.810  0.00  0.00     0.040 C 
ATOM      7  C   UNL d   1      30.012 -13.044   4.104  0.00  0.00     0.030 C 
ATOM      8  C   UNL d   1      29.181 -12.005   4.882  0.00  0.00     0.127 C 
ENDROOT
BRANCH   6   9
ATOM      9  C   UNL d   1      28.203 -14.163   2.758  0.00  0.00     0.034 A 
ATOM     10  C   UNL d   1      28.117 -14.755   1.531  0.00  0.00     0.056 A 
ATOM     11  C   UNL d   1      27.025 -14.205   0.860  0.00  0.00     0.060 A 
ATOM     12  N   UNL d   1      26.426 -13.288   1.638  0.00  0.00    -0.179 NA
ATOM     13  N   UNL d   1      27.157 -13.283   2.782  0.00  0.00    -0.282 N 
ATOM     14  H   UNL d   1      26.891 -12.640   3.521  0.00  0.00     0.189 HD
BRANCH  11  15
ATOM     15  C   UNL d   1      26.564 -14.559  -0.523  0.00  0.00     0.099 C 
BRANCH  15  16
ATOM     16  C   UNL d   1      25.779 -15.872  -0.480  0.00  0.00    -0.052 A 
ATOM     17  C   UNL d   1      24.518 -15.977  -1.086  0.00  0.00     0.007 A 
ATOM     18  C   UNL d   1      23.765 -17.152  -0.963  0.00  0.00     0.001 A 
ATOM     19  C   UNL d   1      24.303 -18.273  -0.331  0.00  0.00     0.000 A 
ATOM     20  C   UNL d   1      25.573 -18.207   0.230  0.00  0.00     0.001 A 
ATOM     21  C   UNL d   1      26.282 -17.005   0.195  0.00  0.00     0.007 A 
ENDBRANCH  15  16
ENDBRANCH  11  15
ENDBRANCH   6   9
BRANCH   2  22
ATOM     22  C   UNL d   1      29.033 -12.929   8.447  0.00  0.00     0.098 A 
ATOM     23  C   UNL d   1      28.410 -12.799   9.692  0.00  0.00     0.084 A 
ATOM     24  C   UNL d   1      28.711 -13.693  10.725  0.00  0.00     0.038 A 
ATOM     25  C   UNL d   1      29.649 -14.709  10.528  0.00  0.00     0.005 A 
ATOM     26  C   UNL d   1      30.317 -14.812   9.312  0.00  0.00     0.038 A 
ATOM     27  C   UNL d   1      30.030 -13.908   8.293  0.00  0.00     0.084 A 
BRANCH  23  28
ATOM     28  O   UNL d   1      27.494 -11.825   9.982  0.00  0.00    -0.360 OA
ATOM     29  H   UNL d   1      27.770 -11.001   9.530  0.00  0.00     0.217 HD
ENDBRANCH  23  28
BRANCH  27  30
ATOM     30  O   UNL d   1      30.782 -13.957   7.150  0.00  0.00    -0.360 OA
ATOM     31  H   UNL d   1      31.701 -13.724   7.349  0.00  0.00     0.217 HD
ENDBRANCH  27  30
ENDBRANCH   2  22
TORSDOF 6
ENDMDL
MODEL 2
REMARK VINA RESULT:    -7.654      0.202      1.593
REMARK INTER + INTRA:         -10.950
REMARK INTER:                  -9.443
REMARK INTRA:                  -1.507
REMARK CONF_INDEPENDENT:        1.790
REMARK UNBOUND:                -1.507
REMARK  6 active torsions:
REMARK  status: ('A' for Active; 'I' for Inactive)
REMARK    1  A    between atoms: C_2  and  C_3 
REMARK       I    between atoms: C_2  and  N_11 
REMARK    2  A    between atoms: C_4  and  O_5 
REMARK    3  A    between atoms: C_9  and  O_10 
REMARK    4  A    between atoms: C_14  and  C_15 
REMARK    5  A    between atoms: C_17  and  C_18 
REMARK    6  A    between atoms: C_18  and  C_19 
ROOT
ATOM      1  O   UNL d   1      28.748 -10.859   7.626  0.00  0.00    -0.267 OA
ATOM      2  C   UNL d   1      28.873 -12.066   7.398  0.00  0.00     0.259 C 
ATOM      3  N   UNL d   1      28.735 -12.638   6.141  0.00  0.00    -0.348 N 
ATOM      4  C   UNL d   1      27.974 -13.868   5.934  0.00  0.00     0.127 C 
ATOM      5  C   UNL d   1      28.772 -14.908   5.146  0.00  0.00     0.030 C 
ATOM      6  C   UNL d   1      29.402 -14.333   3.858  0.00  0.00     0.040 C 
ATOM      7  C   UNL d   1      30.144 -13.006   4.158  0.00  0.00     0.030 C 
ATOM      8  C   UNL d   1      29.307 -11.994   4.965  0.00  0.00     0.127 C 
ENDROOT
BRANCH   6   9
ATOM      9  C   UNL d   1      28.334 -14.142   2.827  0.00  0.00     0.034 A 
ATOM     10  C   UNL d   1      28.247 -14.705   1.587  0.00  0.00     0.056 A 
ATOM     11  C   UNL d   1      27.128 -14.172   0.948  0.00  0.00     0.060 A 
ATOM     12  N   UNL d   1      26.513 -13.294   1.758  0.00  0.00    -0.179 NA
ATOM     13  N   UNL d   1      27.262 -13.295   2.890  0.00  0.00    -0.282 N 
ATOM     14  H   UNL d   1      26.989 -12.679   3.650  0.00  0.00     0.189 HD
BRANCH  11  15
ATOM     15  C   UNL d   1      26.655 -14.506  -0.437  0.00  0.00     0.099 C 
BRANCH  15  16
ATOM     16  C   UNL d   1      25.908 -15.842  -0.414  0.00  0.00    -0.052 A 
ATOM     17  C   UNL d   1      24.636 -15.965  -0.994  0.00  0.00     0.007 A 
ATOM     18  C   UNL d   1      23.920 -17.164  -0.889  0.00  0.00     0.001 A 
ATOM     19  C   UNL d   1      24.504 -18.287  -0.303  0.00  0.00     0.000 A 
ATOM     20  C   UNL d   1      25.785 -18.201   0.231  0.00  0.00     0.001 A 
ATOM     21  C   UNL d   1      26.459 -16.978   0.215  0.00  0.00     0.007 A 
ENDBRANCH  15  16
ENDBRANCH  11  15
ENDBRANCH   6   9
BRANCH   2  22
ATOM     22  C   UNL d   1      29.241 -12.971   8.518  0.00  0.00     0.098 A 
ATOM     23  C   UNL d   1      30.171 -14.004   8.358  0.00  0.00     0.084 A 
ATOM     24  C   UNL d   1      30.529 -14.802   9.448  0.00  0.00     0.038 A 
ATOM     25  C   UNL d   1      29.947 -14.589  10.700  0.00  0.00     0.005 A 
ATOM     26  C   UNL d   1      28.979 -13.603  10.858  0.00  0.00     0.038 A 
ATOM     27  C   UNL d   1      28.610 -12.823   9.765  0.00  0.00     0.084 A 
BRANCH  23  28
ATOM     28  O   UNL d   1      30.777 -14.298   7.167  0.00  0.00    -0.360 OA
ATOM     29  H   UNL d   1      31.609 -13.783   7.111  0.00  0.00     0.217 HD
ENDBRANCH  23  28
BRANCH  27  30
ATOM     30  O   UNL d   1      27.575 -11.940   9.917  0.00  0.00    -0.360 OA
ATOM     31  H   UNL d   1      27.840 -11.062   9.604  0.00  0.00     0.217 HD
ENDBRANCH  27  30
ENDBRANCH   2  22
TORSDOF 6
ENDMDL
MODEL 3
REMARK VINA RESULT:    -7.135      7.666     10.568
REMARK INTER + INTRA:         -10.171
REMARK INTER:                  -8.925
REMARK INTRA:                  -1.246
REMARK CONF_INDEPENDENT:        1.790
REMARK UNBOUND:                -1.246
REMARK  6 active torsions:
REMARK  status: ('A' for Active; 'I' for Inactive)
REMARK    1  A    between atoms: C_2  and  C_3 
REMARK       I    between atoms: C_2  and  N_11 
REMARK    2  A    between atoms: C_4  and  O_5 
REMARK    3  A    between atoms: C_9  and  O_10 
REMARK    4  A    between atoms: C_14  and  C_15 
REMARK    5  A    between atoms: C_17  and  C_18 
REMARK    6  A    between atoms: C_18  and  C_19 
ROOT
ATOM      1  O   UNL d   1      25.153 -10.165  -3.529  0.00  0.00    -0.267 OA
ATOM      2  C   UNL d   1      25.955 -10.871  -4.150  0.00  0.00     0.259 C 
ATOM      3  N   UNL d   1      26.177 -12.213  -3.880  0.00  0.00    -0.348 N 
ATOM      4  C   UNL d   1      27.526 -12.773  -3.818  0.00  0.00     0.127 C 
ATOM      5  C   UNL d   1      27.667 -14.023  -4.689  0.00  0.00     0.030 C 
ATOM      6  C   UNL d   1      26.544 -15.055  -4.445  0.00  0.00     0.040 C 
ATOM      7  C   UNL d   1      25.155 -14.371  -4.476  0.00  0.00     0.030 C 
ATOM      8  C   UNL d   1      25.063 -13.109  -3.595  0.00  0.00     0.127 C 
ENDROOT
BRANCH   6   9
ATOM      9  C   UNL d   1      26.784 -15.747  -3.139  0.00  0.00     0.034 A 
ATOM     10  C   UNL d   1      25.864 -16.163  -2.221  0.00  0.00     0.056 A 
ATOM     11  C   UNL d   1      26.550 -16.679  -1.123  0.00  0.00     0.060 A 
ATOM     12  N   UNL d   1      27.875 -16.598  -1.333  0.00  0.00    -0.179 NA
ATOM     13  N   UNL d   1      27.990 -16.033  -2.561  0.00  0.00    -0.282 N 
ATOM     14  H   UNL d   1      28.921 -15.857  -2.925  0.00  0.00     0.189 HD
BRANCH  11  15
ATOM     15  C   UNL d   1      25.933 -17.243   0.123  0.00  0.00     0.099 C 
BRANCH  15  16
ATOM     16  C   UNL d   1      24.470 -17.604  -0.149  0.00  0.00    -0.052 A 
ATOM     17  C   UNL d   1      24.054 -18.943  -0.186  0.00  0.00     0.007 A 
ATOM     18  C   UNL d   1      22.735 -19.269  -0.527  0.00  0.00     0.001 A 
ATOM     19  C   UNL d   1      21.788 -18.265  -0.727  0.00  0.00     0.000 A 
ATOM     20  C   UNL d   1      22.168 -16.930  -0.642  0.00  0.00     0.001 A 
ATOM     21  C   UNL d   1      23.505 -16.606  -0.402  0.00  0.00     0.007 A 
ENDBRANCH  15  16
ENDBRANCH  11  15
ENDBRANCH   6   9
BRANCH   2  22
ATOM     22  C   UNL d   1      26.700 -10.274  -5.289  0.00  0.00     0.098 A 
ATOM     23  C   UNL d   1      27.841  -9.489  -5.094  0.00  0.00     0.084 A 
ATOM     24  C   UNL d   1      28.544  -8.987  -6.194  0.00  0.00     0.038 A 
ATOM     25  C   UNL d   1      28.103  -9.248  -7.493  0.00  0.00     0.005 A 
ATOM     26  C   UNL d   1      26.937  -9.979  -7.698  0.00  0.00     0.038 A 
ATOM     27  C   UNL d   1      26.228 -10.461  -6.600  0.00  0.00     0.084 A 
BRANCH  23  28
ATOM     28  O   UNL d   1      28.336  -9.167  -3.860  0.00  0.00    -0.360 OA
ATOM     29  H   UNL d   1      27.614  -9.267  -3.205  0.00  0.00     0.217 HD
ENDBRANCH  23  28
BRANCH  27  30
ATOM     30  O   UNL d   1      25.025 -11.075  -6.822  0.00  0.00    -0.360 OA
ATOM     31  H   UNL d   1      24.676 -11.430  -5.991  0.00  0.00     0.217 HD
ENDBRANCH  27  30
ENDBRANCH   2  22
TORSDOF 6
ENDMDL
MODEL 4
REMARK VINA RESULT:    -6.970      1.971      3.042
REMARK INTER + INTRA:         -10.329
REMARK INTER:                  -8.760
REMARK INTRA:                  -1.569
REMARK CONF_INDEPENDENT:        1.790
REMARK UNBOUND:                -1.569
REMARK  6 active torsions:
REMARK  status: ('A' for Active; 'I' for Inactive)
REMARK    1  A    between atoms: C_2  and  C_3 
REMARK       I    between atoms: C_2  and  N_11 
REMARK    2  A    between atoms: C_4  and  O_5 
REMARK    3  A    between atoms: C_9  and  O_10 
REMARK    4  A    between atoms: C_14  and  C_15 
REMARK    5  A    between atoms: C_17  and  C_18 
REMARK    6  A    between atoms: C_18  and  C_19 
ROOT
ATOM      1  O   UNL d   1      30.423 -14.446   7.155  0.00  0.00    -0.267 OA
ATOM      2  C   UNL d   1      30.010 -13.505   6.468  0.00  0.00     0.259 C 
ATOM      3  N   UNL d   1      29.338 -13.659   5.265  0.00  0.00    -0.348 N 
ATOM      4  C   UNL d   1      29.656 -12.845   4.094  0.00  0.00     0.127 C 
ATOM      5  C   UNL d   1      28.407 -12.205   3.485  0.00  0.00     0.030 C 
ATOM      6  C   UNL d   1      27.265 -13.218   3.255  0.00  0.00     0.040 C 
ATOM      7  C   UNL d   1      27.027 -14.073   4.525  0.00  0.00     0.030 C 
ATOM      8  C   UNL d   1      28.314 -14.687   5.111  0.00  0.00     0.127 C 
ENDROOT
BRANCH   6   9
ATOM      9  C   UNL d   1      27.594 -14.075   2.073  0.00  0.00     0.034 A 
ATOM     10  C   UNL d   1      26.821 -14.337   0.978  0.00  0.00     0.056 A 
ATOM     11  C   UNL d   1      27.503 -15.251   0.176  0.00  0.00     0.060 A 
ATOM     12  N   UNL d   1      28.681 -15.565   0.740  0.00  0.00    -0.179 NA
ATOM     13  N   UNL d   1      28.713 -14.837   1.886  0.00  0.00    -0.282 N 
ATOM     14  H   UNL d   1      29.521 -14.931   2.494  0.00  0.00     0.189 HD
BRANCH  11  15
ATOM     15  C   UNL d   1      27.019 -15.823  -1.124  0.00  0.00     0.099 C 
BRANCH  15  16
ATOM     16  C   UNL d   1      25.708 -16.578  -0.895  0.00  0.00    -0.052 A 
ATOM     17  C   UNL d   1      24.473 -15.983  -1.195  0.00  0.00     0.007 A 
ATOM     18  C   UNL d   1      23.274 -16.644  -0.896  0.00  0.00     0.001 A 
ATOM     19  C   UNL d   1      23.290 -17.947  -0.399  0.00  0.00     0.000 A 
ATOM     20  C   UNL d   1      24.505 -18.575  -0.145  0.00  0.00     0.001 A 
ATOM     21  C   UNL d   1      25.698 -17.879  -0.348  0.00  0.00     0.007 A 
ENDBRANCH  15  16
ENDBRANCH  11  15
ENDBRANCH   6   9
BRANCH   2  22
ATOM     22  C   UNL d   1      30.194 -12.119   6.970  0.00  0.00     0.098 A 
ATOM     23  C   UNL d   1      31.407 -11.686   7.517  0.00  0.00     0.084 A 
ATOM     24  C   UNL d   1      31.557 -10.360   7.932  0.00  0.00     0.038 A 
ATOM     25  C   UNL d   1      30.493  -9.461   7.824  0.00  0.00     0.005 A 
ATOM     26  C   UNL d   1      29.265  -9.894   7.335  0.00  0.00     0.038 A 
ATOM     27  C   UNL d   1      29.113 -11.222   6.941  0.00  0.00     0.084 A 
BRANCH  23  28
ATOM     28  O   UNL d   1      32.496 -12.499   7.679  0.00  0.00    -0.360 OA
ATOM     29  H   UNL d   1      32.334 -13.330   7.186  0.00  0.00     0.217 HD
ENDBRANCH  23  28
BRANCH  27  30
ATOM     30  O   UNL d   1      27.866 -11.652   6.575  0.00  0.00    -0.360 OA
ATOM     31  H   UNL d   1      27.190 -11.075   6.961  0.00  0.00     0.217 HD
ENDBRANCH  27  30
ENDBRANCH   2  22
TORSDOF 6
ENDMDL
MODEL 5
REMARK VINA RESULT:    -6.883      5.027     10.214
REMARK INTER + INTRA:          -9.986
REMARK INTER:                  -8.673
REMARK INTRA:                  -1.314
REMARK CONF_INDEPENDENT:        1.790
REMARK UNBOUND:                -1.314
REMARK  6 active torsions:
REMARK  status: ('A' for Active; 'I' for Inactive)
REMARK    1  A    between atoms: C_2  and  C_3 
REMARK       I    between atoms: C_2  and  N_11 
REMARK    2  A    between atoms: C_4  and  O_5 
REMARK    3  A    between atoms: C_9  and  O_10 
REMARK    4  A    between atoms: C_14  and  C_15 
REMARK    5  A    between atoms: C_17  and  C_18 
REMARK    6  A    between atoms: C_18  and  C_19 
ROOT
ATOM      1  O   UNL d   1      24.780 -14.691  -3.624  0.00  0.00    -0.267 OA
ATOM      2  C   UNL d   1      25.817 -14.063  -3.387  0.00  0.00     0.259 C 
ATOM      3  N   UNL d   1      26.428 -14.015  -2.142  0.00  0.00    -0.348 N 
ATOM      4  C   UNL d   1      26.927 -12.764  -1.576  0.00  0.00     0.127 C 
ATOM      5  C   UNL d   1      28.374 -12.890  -1.097  0.00  0.00     0.030 C 
ATOM      6  C   UNL d   1      28.602 -14.124  -0.195  0.00  0.00     0.040 C 
ATOM      7  C   UNL d   1      27.999 -15.395  -0.844  0.00  0.00     0.030 C 
ATOM      8  C   UNL d   1      26.545 -15.217  -1.324  0.00  0.00     0.127 C 
ENDROOT
BRANCH   6   9
ATOM      9  C   UNL d   1      28.012 -13.865   1.156  0.00  0.00     0.034 A 
ATOM     10  C   UNL d   1      28.234 -14.544   2.319  0.00  0.00     0.056 A 
ATOM     11  C   UNL d   1      27.405 -14.003   3.301  0.00  0.00     0.060 A 
ATOM     12  N   UNL d   1      26.673 -13.003   2.781  0.00  0.00    -0.179 NA
ATOM     13  N   UNL d   1      27.061 -12.938   1.482  0.00  0.00    -0.282 N 
ATOM     14  H   UNL d   1      26.617 -12.251   0.880  0.00  0.00     0.189 HD
BRANCH  11  15
ATOM     15  C   UNL d   1      27.316 -14.449   4.731  0.00  0.00     0.099 C 
BRANCH  15  16
ATOM     16  C   UNL d   1      28.188 -13.544   5.604  0.00  0.00    -0.052 A 
ATOM     17  C   UNL d   1      29.406 -14.005   6.126  0.00  0.00     0.007 A 
ATOM     18  C   UNL d   1      30.154 -13.204   6.999  0.00  0.00     0.001 A 
ATOM     19  C   UNL d   1      29.755 -11.897   7.276  0.00  0.00     0.000 A 
ATOM     20  C   UNL d   1      28.578 -11.402   6.726  0.00  0.00     0.001 A 
ATOM     21  C   UNL d   1      27.782 -12.234   5.936  0.00  0.00     0.007 A 
ENDBRANCH  15  16
ENDBRANCH  11  15
ENDBRANCH   6   9
BRANCH   2  22
ATOM     22  C   UNL d   1      26.493 -13.350  -4.502  0.00  0.00     0.098 A 
ATOM     23  C   UNL d   1      26.405 -11.962  -4.651  0.00  0.00     0.084 A 
ATOM     24  C   UNL d   1      27.096 -11.321  -5.684  0.00  0.00     0.038 A 
ATOM     25  C   UNL d   1      27.863 -12.062  -6.586  0.00  0.00     0.005 A 
ATOM     26  C   UNL d   1      27.912 -13.448  -6.482  0.00  0.00     0.038 A 
ATOM     27  C   UNL d   1      27.206 -14.085  -5.465  0.00  0.00     0.084 A 
BRANCH  23  28
ATOM     28  O   UNL d   1      25.664 -11.158  -3.827  0.00  0.00    -0.360 OA
ATOM     29  H   UNL d   1      24.775 -11.050  -4.224  0.00  0.00     0.217 HD
ENDBRANCH  23  28
BRANCH  27  30
ATOM     30  O   UNL d   1      27.174 -15.453  -5.454  0.00  0.00    -0.360 OA
ATOM     31  H   UNL d   1      26.392 -15.763  -4.974  0.00  0.00     0.217 HD
ENDBRANCH  27  30
ENDBRANCH   2  22
TORSDOF 6
ENDMDL
MODEL 6
REMARK VINA RESULT:    -6.807      1.985      2.956
REMARK INTER + INTRA:          -9.684
REMARK INTER:                  -8.597
REMARK INTRA:                  -1.087
REMARK CONF_INDEPENDENT:        1.790
REMARK UNBOUND:                -1.087
REMARK  6 active torsions:
REMARK  status: ('A' for Active; 'I' for Inactive)
REMARK    1  A    between atoms: C_2  and  C_3 
REMARK       I    between atoms: C_2  and  N_11 
REMARK    2  A    between atoms: C_4  and  O_5 
REMARK    3  A    between atoms: C_9  and  O_10 
REMARK    4  A    between atoms: C_14  and  C_15 
REMARK    5  A    between atoms: C_17  and  C_18 
REMARK    6  A    between atoms: C_18  and  C_19 
ROOT
ATOM      1  O   UNL d   1      27.028 -13.198   6.134  0.00  0.00    -0.267 OA
ATOM      2  C   UNL d   1      28.065 -13.212   5.463  0.00  0.00     0.259 C 
ATOM      3  N   UNL d   1      28.119 -13.567   4.123  0.00  0.00    -0.348 N 
ATOM      4  C   UNL d   1      29.157 -14.455   3.602  0.00  0.00     0.127 C 
ATOM      5  C   UNL d   1      29.850 -13.864   2.373  0.00  0.00     0.030 C 
ATOM      6  C   UNL d   1      28.853 -13.365   1.304  0.00  0.00     0.040 C 
ATOM      7  C   UNL d   1      27.760 -12.475   1.947  0.00  0.00     0.030 C 
ATOM      8  C   UNL d   1      27.099 -13.104   3.190  0.00  0.00     0.127 C 
ENDROOT
BRANCH   6   9
ATOM      9  C   UNL d   1      28.256 -14.541   0.597  0.00  0.00     0.034 A 
ATOM     10  C   UNL d   1      27.417 -14.543  -0.481  0.00  0.00     0.056 A 
ATOM     11  C   UNL d   1      27.052 -15.862  -0.742  0.00  0.00     0.060 A 
ATOM     12  N   UNL d   1      27.642 -16.685   0.141  0.00  0.00    -0.179 NA
ATOM     13  N   UNL d   1      28.367 -15.860   0.939  0.00  0.00    -0.282 N 
ATOM     14  H   UNL d   1      28.893 -16.270   1.705  0.00  0.00     0.189 HD
BRANCH  11  15
ATOM     15  C   UNL d   1      26.136 -16.328  -1.836  0.00  0.00     0.099 C 
BRANCH  15  16
ATOM     16  C   UNL d   1      24.871 -16.933  -1.221  0.00  0.00    -0.052 A 
ATOM     17  C   UNL d   1      23.649 -16.245  -1.268  0.00  0.00     0.007 A 
ATOM     18  C   UNL d   1      22.518 -16.762  -0.623  0.00  0.00     0.001 A 
ATOM     19  C   UNL d   1      22.560 -18.018  -0.018  0.00  0.00     0.000 A 
ATOM     20  C   UNL d   1      23.748 -18.739  -0.008  0.00  0.00     0.001 A 
ATOM     21  C   UNL d   1      24.901 -18.181  -0.563  0.00  0.00     0.007 A 
ENDBRANCH  15  16
ENDBRANCH  11  15
ENDBRANCH   6   9
BRANCH   2  22
ATOM     22  C   UNL d   1      29.335 -12.778   6.101  0.00  0.00     0.098 A 
ATOM     23  C   UNL d   1      29.829 -13.393   7.256  0.00  0.00     0.084 A 
ATOM     24  C   UNL d   1      31.054 -12.990   7.798  0.00  0.00     0.038 A 
ATOM     25  C   UNL d   1      31.783 -11.957   7.204  0.00  0.00     0.005 A 
ATOM     26  C   UNL d   1      31.274 -11.299   6.089  0.00  0.00     0.038 A 
ATOM     27  C   UNL d   1      30.045 -11.690   5.564  0.00  0.00     0.084 A 
BRANCH  23  28
ATOM     28  O   UNL d   1      29.176 -14.399   7.915  0.00  0.00    -0.360 OA
ATOM     29  H   UNL d   1      28.894 -15.065   7.255  0.00  0.00     0.217 HD
ENDBRANCH  23  28
BRANCH  27  30
ATOM     30  O   UNL d   1      29.511 -10.952   4.541  0.00  0.00    -0.360 OA
ATOM     31  H   UNL d   1      29.572 -11.446   3.710  0.00  0.00     0.217 HD
ENDBRANCH  27  30
ENDBRANCH   2  22
TORSDOF 6
ENDMDL
MODEL 7
REMARK VINA RESULT:    -6.740      5.419     10.540
REMARK INTER + INTRA:          -9.751
REMARK INTER:                  -8.530
REMARK INTRA:                  -1.221
REMARK CONF_INDEPENDENT:        1.790
REMARK UNBOUND:                -1.221
REMARK  6 active torsions:
REMARK  status: ('A' for Active; 'I' for Inactive)
REMARK    1  A    between atoms: C_2  and  C_3 
REMARK       I    between atoms: C_2  and  N_11 
REMARK    2  A    between atoms: C_4  and  O_5 
REMARK    3  A    between atoms: C_9  and  O_10 
REMARK    4  A    between atoms: C_14  and  C_15 
REMARK    5  A    between atoms: C_17  and  C_18 
REMARK    6  A    between atoms: C_18  and  C_19 
ROOT
ATOM      1  O   UNL d   1      24.534 -14.072  -4.315  0.00  0.00    -0.267 OA
ATOM      2  C   UNL d   1      25.735 -13.865  -4.111  0.00  0.00     0.259 C 
ATOM      3  N   UNL d   1      26.384 -14.167  -2.924  0.00  0.00    -0.348 N 
ATOM      4  C   UNL d   1      27.314 -13.231  -2.294  0.00  0.00     0.127 C 
ATOM      5  C   UNL d   1      28.649 -13.895  -1.951  0.00  0.00     0.030 C 
ATOM      6  C   UNL d   1      28.479 -15.225  -1.186  0.00  0.00     0.040 C 
ATOM      7  C   UNL d   1      27.442 -16.135  -1.891  0.00  0.00     0.030 C 
ATOM      8  C   UNL d   1      26.118 -15.421  -2.228  0.00  0.00     0.127 C 
ENDROOT
BRANCH   6   9
ATOM      9  C   UNL d   1      28.082 -14.935   0.228  0.00  0.00     0.034 A 
ATOM     10  C   UNL d   1      27.659 -13.752   0.761  0.00  0.00     0.056 A 
ATOM     11  C   UNL d   1      27.482 -13.934   2.132  0.00  0.00     0.060 A 
ATOM     12  N   UNL d   1      27.782 -15.200   2.468  0.00  0.00    -0.179 NA
ATOM     13  N   UNL d   1      28.139 -15.786   1.297  0.00  0.00    -0.282 N 
ATOM     14  H   UNL d   1      28.428 -16.759   1.313  0.00  0.00     0.189 HD
BRANCH  11  15
ATOM     15  C   UNL d   1      27.031 -12.892   3.114  0.00  0.00     0.099 C 
BRANCH  15  16
ATOM     16  C   UNL d   1      27.831 -13.032   4.412  0.00  0.00    -0.052 A 
ATOM     17  C   UNL d   1      28.635 -11.981   4.878  0.00  0.00     0.007 A 
ATOM     18  C   UNL d   1      29.435 -12.149   6.016  0.00  0.00     0.001 A 
ATOM     19  C   UNL d   1      29.362 -13.324   6.764  0.00  0.00     0.000 A 
ATOM     20  C   UNL d   1      28.530 -14.358   6.348  0.00  0.00     0.001 A 
ATOM     21  C   UNL d   1      27.810 -14.228   5.160  0.00  0.00     0.007 A 
ENDBRANCH  15  16
ENDBRANCH  11  15
ENDBRANCH   6   9
BRANCH   2  22
ATOM     22  C   UNL d   1      26.560 -13.303  -5.212  0.00  0.00     0.098 A 
ATOM     23  C   UNL d   1      27.557 -14.053  -5.844  0.00  0.00     0.084 A 
ATOM     24  C   UNL d   1      28.279 -13.505  -6.910  0.00  0.00     0.038 A 
ATOM     25  C   UNL d   1      28.024 -12.200  -7.338  0.00  0.00     0.005 A 
ATOM     26  C   UNL d   1      27.075 -11.425  -6.680  0.00  0.00     0.038 A 
ATOM     27  C   UNL d   1      26.373 -11.966  -5.606  0.00  0.00     0.084 A 
BRANCH  23  28
ATOM     28  O   UNL d   1      27.888 -15.330  -5.481  0.00  0.00    -0.360 OA
ATOM     29  H   UNL d   1      27.740 -15.422  -4.517  0.00  0.00     0.217 HD
ENDBRANCH  23  28
BRANCH  27  30
ATOM     30  O   UNL d   1      25.531 -11.148  -4.902  0.00  0.00    -0.360 OA
ATOM     31  H   UNL d   1      24.804 -11.666  -4.526  0.00  0.00     0.217 HD
ENDBRANCH  27  30
ENDBRANCH   2  22
TORSDOF 6
ENDMDL
MODEL 8
REMARK VINA RESULT:    -6.643      1.533      2.118
REMARK INTER + INTRA:          -9.898
REMARK INTER:                  -8.433
REMARK INTRA:                  -1.465
REMARK CONF_INDEPENDENT:        1.790
REMARK UNBOUND:                -1.465
REMARK  6 active torsions:
REMARK  status: ('A' for Active; 'I' for Inactive)
REMARK    1  A    between atoms: C_2  and  C_3 
REMARK       I    between atoms: C_2  and  N_11 
REMARK    2  A    between atoms: C_4  and  O_5 
REMARK    3  A    between atoms: C_9  and  O_10 
REMARK    4  A    between atoms: C_14  and  C_15 
REMARK    5  A    between atoms: C_17  and  C_18 
REMARK    6  A    between atoms: C_18  and  C_19 
ROOT
ATOM      1  O   UNL d   1      29.703 -10.255   4.628  0.00  0.00    -0.267 OA
ATOM      2  C   UNL d   1      29.268 -11.387   4.861  0.00  0.00     0.259 C 
ATOM      3  N   UNL d   1      28.812 -12.260   3.885  0.00  0.00    -0.348 N 
ATOM      4  C   UNL d   1      27.575 -13.022   4.049  0.00  0.00     0.127 C 
ATOM      5  C   UNL d   1      27.782 -14.513   3.776  0.00  0.00     0.030 C 
ATOM      6  C   UNL d   1      28.516 -14.783   2.444  0.00  0.00     0.040 C 
ATOM      7  C   UNL d   1      29.784 -13.901   2.329  0.00  0.00     0.030 C 
ATOM      8  C   UNL d   1      29.531 -12.409   2.625  0.00  0.00     0.127 C 
ENDROOT
BRANCH   6   9
ATOM      9  C   UNL d   1      27.576 -14.544   1.304  0.00  0.00     0.034 A 
ATOM     10  C   UNL d   1      27.043 -15.459   0.442  0.00  0.00     0.056 A 
ATOM     11  C   UNL d   1      26.291 -14.770  -0.509  0.00  0.00     0.060 A 
ATOM     12  N   UNL d   1      26.340 -13.450  -0.263  0.00  0.00    -0.179 NA
ATOM     13  N   UNL d   1      27.122 -13.340   0.841  0.00  0.00    -0.282 N 
ATOM     14  H   UNL d   1      27.315 -12.412   1.205  0.00  0.00     0.189 HD
BRANCH  11  15
ATOM     15  C   UNL d   1      25.533 -15.381  -1.651  0.00  0.00     0.099 C 
BRANCH  15  16
ATOM     16  C   UNL d   1      24.622 -16.492  -1.125  0.00  0.00    -0.052 A 
ATOM     17  C   UNL d   1      23.230 -16.325  -1.088  0.00  0.00     0.007 A 
ATOM     18  C   UNL d   1      22.410 -17.309  -0.519  0.00  0.00     0.001 A 
ATOM     19  C   UNL d   1      22.954 -18.516  -0.081  0.00  0.00     0.000 A 
ATOM     20  C   UNL d   1      24.327 -18.723  -0.158  0.00  0.00     0.001 A 
ATOM     21  C   UNL d   1      25.154 -17.703  -0.632  0.00  0.00     0.007 A 
ENDBRANCH  15  16
ENDBRANCH  11  15
ENDBRANCH   6   9
BRANCH   2  22
ATOM     22  C   UNL d   1      29.272 -11.880   6.264  0.00  0.00     0.098 A 
ATOM     23  C   UNL d   1      28.990 -11.036   7.343  0.00  0.00     0.084 A 
ATOM     24  C   UNL d   1      28.954 -11.548   8.644  0.00  0.00     0.038 A 
ATOM     25  C   UNL d   1      29.219 -12.900   8.878  0.00  0.00     0.005 A 
ATOM     26  C   UNL d   1      29.558 -13.735   7.820  0.00  0.00     0.038 A 
ATOM     27  C   UNL d   1      29.613 -13.218   6.528  0.00  0.00     0.084 A 
BRANCH  23  28
ATOM     28  O   UNL d   1      28.736  -9.698   7.211  0.00  0.00    -0.360 OA
ATOM     29  H   UNL d   1      29.354  -9.334   6.543  0.00  0.00     0.217 HD
ENDBRANCH  23  28
BRANCH  27  30
ATOM     30  O   UNL d   1      30.061 -14.030   5.521  0.00  0.00    -0.360 OA
ATOM     31  H   UNL d   1      31.029 -14.013   5.489  0.00  0.00     0.217 HD
ENDBRANCH  27  30
ENDBRANCH   2  22
TORSDOF 6
ENDMDL
MODEL 9
REMARK VINA RESULT:    -6.510      8.195     10.981
REMARK INTER + INTRA:          -9.780
REMARK INTER:                  -8.300
REMARK INTRA:                  -1.480
REMARK CONF_INDEPENDENT:        1.790
REMARK UNBOUND:                -1.480
REMARK  6 active torsions:
REMARK  status: ('A' for Active; 'I' for Inactive)
REMARK    1  A    between atoms: C_2  and  C_3 
REMARK       I    between atoms: C_2  and  N_11 
REMARK    2  A    between atoms: C_4  and  O_5 
REMARK    3  A    between atoms: C_9  and  O_10 
REMARK    4  A    between atoms: C_14  and  C_15 
REMARK    5  A    between atoms: C_17  and  C_18 
REMARK    6  A    between atoms: C_18  and  C_19 
ROOT
ATOM      1  O   UNL d   1      31.233 -11.388  -4.628  0.00  0.00    -0.267 OA
ATOM      2  C   UNL d   1      30.808 -12.402  -5.192  0.00  0.00     0.259 C 
ATOM      3  N   UNL d   1      29.532 -12.914  -5.011  0.00  0.00    -0.348 N 
ATOM      4  C   UNL d   1      29.295 -14.343  -4.815  0.00  0.00     0.127 C 
ATOM      5  C   UNL d   1      28.221 -14.880  -5.763  0.00  0.00     0.030 C 
ATOM      6  C   UNL d   1      26.936 -14.023  -5.762  0.00  0.00     0.040 C 
ATOM      7  C   UNL d   1      27.280 -12.521  -5.923  0.00  0.00     0.030 C 
ATOM      8  C   UNL d   1      28.375 -12.027  -4.957  0.00  0.00     0.127 C 
ENDROOT
BRANCH   6   9
ATOM      9  C   UNL d   1      26.173 -14.278  -4.500  0.00  0.00     0.034 A 
ATOM     10  C   UNL d   1      26.631 -14.806  -3.328  0.00  0.00     0.056 A 
ATOM     11  C   UNL d   1      25.547 -14.936  -2.460  0.00  0.00     0.060 A 
ATOM     12  N   UNL d   1      24.426 -14.502  -3.059  0.00  0.00    -0.179 NA
ATOM     13  N   UNL d   1      24.832 -14.106  -4.292  0.00  0.00    -0.282 N 
ATOM     14  H   UNL d   1      24.135 -13.751  -4.939  0.00  0.00     0.189 HD
BRANCH  11  15
ATOM     15  C   UNL d   1      25.591 -15.480  -1.062  0.00  0.00     0.099 C 
BRANCH  15  16
ATOM     16  C   UNL d   1      24.552 -16.594  -0.913  0.00  0.00    -0.052 A 
ATOM     17  C   UNL d   1      23.180 -16.316  -1.008  0.00  0.00     0.007 A 
ATOM     18  C   UNL d   1      22.233 -17.322  -0.779  0.00  0.00     0.001 A 
ATOM     19  C   UNL d   1      22.638 -18.639  -0.563  0.00  0.00     0.000 A 
ATOM     20  C   UNL d   1      23.994 -18.946  -0.518  0.00  0.00     0.001 A 
ATOM     21  C   UNL d   1      24.938 -17.925  -0.646  0.00  0.00     0.007 A 
ENDBRANCH  15  16
ENDBRANCH  11  15
ENDBRANCH   6   9
BRANCH   2  22
ATOM     22  C   UNL d   1      31.688 -13.101  -6.164  0.00  0.00     0.098 A 
ATOM     23  C   UNL d   1      31.245 -13.447  -7.445  0.00  0.00     0.084 A 
ATOM     24  C   UNL d   1      32.118 -14.059  -8.349  0.00  0.00     0.038 A 
ATOM     25  C   UNL d   1      33.433 -14.348  -7.976  0.00  0.00     0.005 A 
ATOM     26  C   UNL d   1      33.868 -14.060  -6.686  0.00  0.00     0.038 A 
ATOM     27  C   UNL d   1      32.990 -13.469  -5.782  0.00  0.00     0.084 A 
BRANCH  23  28
ATOM     28  O   UNL d   1      29.971 -13.221  -7.891  0.00  0.00    -0.360 OA
ATOM     29  H   UNL d   1      29.642 -14.043  -8.310  0.00  0.00     0.217 HD
ENDBRANCH  23  28
BRANCH  27  30
ATOM     30  O   UNL d   1      33.404 -13.303  -4.488  0.00  0.00    -0.360 OA
ATOM     31  H   UNL d   1      32.924 -12.568  -4.078  0.00  0.00     0.217 HD
ENDBRANCH  27  30
ENDBRANCH   2  22
TORSDOF 6
ENDMDL
