MODEL 1
REMARK VINA RESULT:    -8.361      0.000      0.000
REMARK INTER + INTRA:         -14.316
REMARK INTER:                 -11.940
REMARK INTRA:                  -2.375
REMARK CONF_INDEPENDENT:        3.580
REMARK UNBOUND:                -2.375
REMARK  12 active torsions:
REMARK  status: ('A' for Active; 'I' for Inactive)
REMARK    1  A    between atoms: C_2  and  O_3 
REMARK    2  A    between atoms: O_3  and  C_4 
REMARK    3  A    between atoms: C_4  and  C_5 
REMARK    4  A    between atoms: C_5  and  O_6 
REMARK    5  A    between atoms: O_6  and  C_7 
REMARK    6  A    between atoms: C_10  and  C_11 
REMARK       I    between atoms: C_11  and  N_13 
REMARK    7  A    between atoms: N_13  and  C_14 
REMARK    8  A    between atoms: C_14  and  N_16 
REMARK    9  A    between atoms: N_16  and  N_17 
REMARK       I    between atoms: N_17  and  C_18 
REMARK   10  A    between atoms: C_18  and  C_20 
REMARK   11  A    between atoms: C_20  and  O_21 
REMARK   12  A    between atoms: O_21  and  C_22 
ROOT
ATOM      1  C   UNL d   1      29.363 -16.237  -0.582  0.00  0.00     0.193 C 
ATOM      2  S   UNL d   1      30.391 -17.076  -1.626  0.00  0.00    -0.039 SA
ENDROOT
BRANCH   1   3
ATOM      3  N   UNL d   1      27.943 -16.262  -0.631  0.00  0.00    -0.298 N 
ATOM      4  C   UNL d   1      27.106 -17.371  -0.337  0.00  0.00     0.257 C 
ATOM      5  O   UNL d   1      27.545 -18.470   0.028  0.00  0.00    -0.267 OA
ATOM      6  H   UNL d   1      27.486 -15.414  -0.927  0.00  0.00     0.171 HD
BRANCH   4   7
ATOM      7  C   UNL d   1      25.604 -17.317  -0.473  0.00  0.00     0.032 A 
ATOM      8  C   UNL d   1      24.857 -18.385   0.081  0.00  0.00     0.020 A 
ATOM      9  C   UNL d   1      23.467 -18.482  -0.081  0.00  0.00     0.038 A 
ATOM     10  C   UNL d   1      22.767 -17.472  -0.733  0.00  0.00     0.068 A 
ATOM     11  C   UNL d   1      23.483 -16.397  -1.261  0.00  0.00     0.038 A 
ATOM     12  C   UNL d   1      24.890 -16.315  -1.133  0.00  0.00     0.020 A 
BRANCH  10  13
ATOM     13  O   UNL d   1      21.406 -17.586  -0.687  0.00  0.00    -0.349 OA
BRANCH  13  14
ATOM     14  C   UNL d   1      20.813 -18.748  -1.270  0.00  0.00     0.201 C 
BRANCH  14  15
ATOM     15  C   UNL d   1      20.412 -19.705  -0.145  0.00  0.00     0.194 C 
BRANCH  15  16
ATOM     16  O   UNL d   1      19.250 -20.450  -0.520  0.00  0.00    -0.389 OA
BRANCH  16  17
ATOM     17  C   UNL d   1      18.463 -20.777   0.626  0.00  0.00     0.163 C 
ATOM     18  C   UNL d   1      19.104 -20.179   1.862  0.00  0.00     0.033 C 
ENDBRANCH  16  17
ENDBRANCH  15  16
ENDBRANCH  14  15
ENDBRANCH  13  14
ENDBRANCH  10  13
ENDBRANCH   4   7
ENDBRANCH   1   3
BRANCH   1  19
ATOM     19  N   UNL d   1      29.923 -15.436   0.433  0.00  0.00    -0.273 N 
ATOM     20  H   UNL d   1      30.907 -15.194   0.540  0.00  0.00     0.189 HD
BRANCH  19  21
ATOM     21  N   UNL d   1      29.044 -14.862   1.454  0.00  0.00    -0.266 N 
ATOM     22  C   UNL d   1      28.083 -13.907   1.136  0.00  0.00     0.260 C 
ATOM     23  O   UNL d   1      27.958 -13.505  -0.023  0.00  0.00    -0.269 OA
ATOM     24  H   UNL d   1      29.182 -15.227   2.397  0.00  0.00     0.190 HD
BRANCH  22  25
ATOM     25  C   UNL d   1      27.206 -13.392   2.329  0.00  0.00     0.280 C 
BRANCH  25  26
ATOM     26  O   UNL d   1      27.358 -14.246   3.468  0.00  0.00    -0.342 OA
BRANCH  26  27
ATOM     27  C   UNL d   1      27.902 -13.773   4.632  0.00  0.00     0.069 A 
ATOM     28  C   UNL d   1      28.528 -14.746   5.427  0.00  0.00     0.038 A 
ATOM     29  C   UNL d   1      28.982 -14.450   6.719  0.00  0.00     0.022 A 
ATOM     30  C   UNL d   1      28.873 -13.151   7.200  0.00  0.00     0.011 A 
ATOM     31 BR   UNL d   1      29.578 -12.717   8.901  0.00  0.00    -0.051 Br
ATOM     32  C   UNL d   1      28.269 -12.167   6.417  0.00  0.00     0.022 A 
ATOM     33  C   UNL d   1      27.780 -12.479   5.135  0.00  0.00     0.038 A 
ENDBRANCH  26  27
ENDBRANCH  25  26
ENDBRANCH  22  25
ENDBRANCH  19  21
ENDBRANCH   1  19
TORSDOF 12
ENDMDL
MODEL 2
REMARK VINA RESULT:    -8.281      1.265      1.796
REMARK INTER + INTRA:         -13.797
REMARK INTER:                 -11.861
REMARK INTRA:                  -1.936
REMARK CONF_INDEPENDENT:        3.580
REMARK UNBOUND:                -1.936
REMARK  12 active torsions:
REMARK  status: ('A' for Active; 'I' for Inactive)
REMARK    1  A    between atoms: C_2  and  O_3 
REMARK    2  A    between atoms: O_3  and  C_4 
REMARK    3  A    between atoms: C_4  and  C_5 
REMARK    4  A    between atoms: C_5  and  O_6 
REMARK    5  A    between atoms: O_6  and  C_7 
REMARK    6  A    between atoms: C_10  and  C_11 
REMARK       I    between atoms: C_11  and  N_13 
REMARK    7  A    between atoms: N_13  and  C_14 
REMARK    8  A    between atoms: C_14  and  N_16 
REMARK    9  A    between atoms: N_16  and  N_17 
REMARK       I    between atoms: N_17  and  C_18 
REMARK   10  A    between atoms: C_18  and  C_20 
REMARK   11  A    between atoms: C_20  and  O_21 
REMARK   12  A    between atoms: O_21  and  C_22 
ROOT
ATOM      1  C   UNL d   1      30.553 -16.660  -0.152  0.00  0.00     0.193 C 
ATOM      2  S   UNL d   1      31.719 -17.417  -1.112  0.00  0.00    -0.039 SA
ENDROOT
BRANCH   1   3
ATOM      3  N   UNL d   1      29.178 -17.013  -0.099  0.00  0.00    -0.298 N 
ATOM      4  C   UNL d   1      28.125 -16.429  -0.853  0.00  0.00     0.257 C 
ATOM      5  O   UNL d   1      28.308 -15.529  -1.682  0.00  0.00    -0.267 OA
ATOM      6  H   UNL d   1      28.922 -17.735   0.556  0.00  0.00     0.171 HD
BRANCH   4   7
ATOM      7  C   UNL d   1      26.681 -16.835  -0.684  0.00  0.00     0.032 A 
ATOM      8  C   UNL d   1      25.694 -15.996  -1.259  0.00  0.00     0.020 A 
ATOM      9  C   UNL d   1      24.323 -16.227  -1.073  0.00  0.00     0.038 A 
ATOM     10  C   UNL d   1      23.892 -17.349  -0.374  0.00  0.00     0.068 A 
ATOM     11  C   UNL d   1      24.850 -18.203   0.175  0.00  0.00     0.038 A 
ATOM     12  C   UNL d   1      26.235 -17.952   0.022  0.00  0.00     0.020 A 
BRANCH  10  13
ATOM     13  O   UNL d   1      22.542 -17.565  -0.396  0.00  0.00    -0.349 OA
BRANCH  13  14
ATOM     14  C   UNL d   1      22.084 -18.891  -0.669  0.00  0.00     0.201 C 
BRANCH  14  15
ATOM     15  C   UNL d   1      20.679 -18.805  -1.268  0.00  0.00     0.194 C 
BRANCH  15  16
ATOM     16  O   UNL d   1      20.025 -20.075  -1.182  0.00  0.00    -0.389 OA
BRANCH  16  17
ATOM     17  C   UNL d   1      18.851 -19.989  -0.374  0.00  0.00     0.163 C 
ATOM     18  C   UNL d   1      18.871 -21.097   0.659  0.00  0.00     0.033 C 
ENDBRANCH  16  17
ENDBRANCH  15  16
ENDBRANCH  14  15
ENDBRANCH  13  14
ENDBRANCH  10  13
ENDBRANCH   4   7
ENDBRANCH   1   3
BRANCH   1  19
ATOM     19  N   UNL d   1      30.940 -15.588   0.675  0.00  0.00    -0.273 N 
ATOM     20  H   UNL d   1      31.889 -15.251   0.826  0.00  0.00     0.189 HD
BRANCH  19  21
ATOM     21  N   UNL d   1      29.909 -14.844   1.403  0.00  0.00    -0.266 N 
ATOM     22  C   UNL d   1      29.443 -13.613   0.954  0.00  0.00     0.260 C 
ATOM     23  O   UNL d   1      29.902 -13.104  -0.071  0.00  0.00    -0.269 OA
ATOM     24  H   UNL d   1      29.558 -15.305   2.244  0.00  0.00     0.190 HD
BRANCH  22  25
ATOM     25  C   UNL d   1      28.330 -12.938   1.829  0.00  0.00     0.280 C 
BRANCH  25  26
ATOM     26  O   UNL d   1      27.785 -13.881   2.759  0.00  0.00    -0.342 OA
BRANCH  26  27
ATOM     27  C   UNL d   1      28.272 -13.968   4.036  0.00  0.00     0.069 A 
ATOM     28  C   UNL d   1      27.483 -13.337   5.011  0.00  0.00     0.038 A 
ATOM     29  C   UNL d   1      27.931 -13.195   6.330  0.00  0.00     0.022 A 
ATOM     30  C   UNL d   1      29.149 -13.749   6.702  0.00  0.00     0.011 A 
ATOM     31 BR   UNL d   1      29.714 -13.657   8.505  0.00  0.00    -0.051 Br
ATOM     32  C   UNL d   1      29.939 -14.396   5.751  0.00  0.00     0.022 A 
ATOM     33  C   UNL d   1      29.502 -14.502   4.417  0.00  0.00     0.038 A 
ENDBRANCH  26  27
ENDBRANCH  25  26
ENDBRANCH  22  25
ENDBRANCH  19  21
ENDBRANCH   1  19
TORSDOF 12
ENDMDL
MODEL 3
REMARK VINA RESULT:    -7.694      4.764      6.383
REMARK INTER + INTRA:         -14.382
REMARK INTER:                 -11.274
REMARK INTRA:                  -3.109
REMARK CONF_INDEPENDENT:        3.580
REMARK UNBOUND:                -3.109
REMARK  12 active torsions:
REMARK  status: ('A' for Active; 'I' for Inactive)
REMARK    1  A    between atoms: C_2  and  O_3 
REMARK    2  A    between atoms: O_3  and  C_4 
REMARK    3  A    between atoms: C_4  and  C_5 
REMARK    4  A    between atoms: C_5  and  O_6 
REMARK    5  A    between atoms: O_6  and  C_7 
REMARK    6  A    between atoms: C_10  and  C_11 
REMARK       I    between atoms: C_11  and  N_13 
REMARK    7  A    between atoms: N_13  and  C_14 
REMARK    8  A    between atoms: C_14  and  N_16 
REMARK    9  A    between atoms: N_16  and  N_17 
REMARK       I    between atoms: N_17  and  C_18 
REMARK   10  A    between atoms: C_18  and  C_20 
REMARK   11  A    between atoms: C_20  and  O_21 
REMARK   12  A    between atoms: O_21  and  C_22 
ROOT
ATOM      1  C   UNL d   1      29.107 -16.742  -0.925  0.00  0.00     0.193 C 
ATOM      2  S   UNL d   1      30.093 -15.996   0.226  0.00  0.00    -0.039 SA
ENDROOT
BRANCH   1   3
ATOM      3  N   UNL d   1      27.752 -17.120  -0.725  0.00  0.00    -0.298 N 
ATOM      4  C   UNL d   1      26.611 -16.528  -1.328  0.00  0.00     0.257 C 
ATOM      5  O   UNL d   1      26.683 -15.597  -2.139  0.00  0.00    -0.267 OA
ATOM      6  H   UNL d   1      27.584 -17.869  -0.070  0.00  0.00     0.171 HD
BRANCH   4   7
ATOM      7  C   UNL d   1      25.201 -16.964  -1.007  0.00  0.00     0.032 A 
ATOM      8  C   UNL d   1      25.017 -18.287  -0.536  0.00  0.00     0.020 A 
ATOM      9  C   UNL d   1      23.740 -18.823  -0.307  0.00  0.00     0.038 A 
ATOM     10  C   UNL d   1      22.611 -18.028  -0.464  0.00  0.00     0.068 A 
ATOM     11  C   UNL d   1      22.775 -16.712  -0.900  0.00  0.00     0.038 A 
ATOM     12  C   UNL d   1      24.059 -16.180  -1.169  0.00  0.00     0.020 A 
BRANCH  10  13
ATOM     13  O   UNL d   1      21.437 -18.598  -0.056  0.00  0.00    -0.349 OA
BRANCH  13  14
ATOM     14  C   UNL d   1      20.664 -19.304  -1.029  0.00  0.00     0.201 C 
BRANCH  14  15
ATOM     15  C   UNL d   1      19.225 -19.412  -0.521  0.00  0.00     0.194 C 
BRANCH  15  16
ATOM     16  O   UNL d   1      19.195 -19.314   0.906  0.00  0.00    -0.389 OA
BRANCH  16  17
ATOM     17  C   UNL d   1      19.202 -20.610   1.506  0.00  0.00     0.163 C 
ATOM     18  C   UNL d   1      18.030 -21.413   0.978  0.00  0.00     0.033 C 
ENDBRANCH  16  17
ENDBRANCH  15  16
ENDBRANCH  14  15
ENDBRANCH  13  14
ENDBRANCH  10  13
ENDBRANCH   4   7
ENDBRANCH   1   3
BRANCH   1  19
ATOM     19  N   UNL d   1      29.638 -17.029  -2.198  0.00  0.00    -0.273 N 
ATOM     20  H   UNL d   1      30.431 -17.635  -2.401  0.00  0.00     0.189 HD
BRANCH  19  21
ATOM     21  N   UNL d   1      29.015 -16.429  -3.380  0.00  0.00    -0.266 N 
ATOM     22  C   UNL d   1      29.695 -16.327  -4.590  0.00  0.00     0.260 C 
ATOM     23  O   UNL d   1      30.856 -16.728  -4.693  0.00  0.00    -0.269 OA
ATOM     24  H   UNL d   1      28.053 -16.114  -3.248  0.00  0.00     0.190 HD
BRANCH  22  25
ATOM     25  C   UNL d   1      28.897 -15.674  -5.772  0.00  0.00     0.280 C 
BRANCH  25  26
ATOM     26  O   UNL d   1      27.508 -15.571  -5.442  0.00  0.00    -0.342 OA
BRANCH  26  27
ATOM     27  C   UNL d   1      26.945 -14.358  -5.145  0.00  0.00     0.069 A 
ATOM     28  C   UNL d   1      27.771 -13.251  -5.388  0.00  0.00     0.038 A 
ATOM     29  C   UNL d   1      27.402 -11.963  -4.979  0.00  0.00     0.022 A 
ATOM     30  C   UNL d   1      26.164 -11.764  -4.382  0.00  0.00     0.011 A 
ATOM     31 BR   UNL d   1      25.611 -10.014  -3.923  0.00  0.00    -0.051 Br
ATOM     32  C   UNL d   1      25.321 -12.851  -4.148  0.00  0.00     0.022 A 
ATOM     33  C   UNL d   1      25.713 -14.149  -4.526  0.00  0.00     0.038 A 
ENDBRANCH  26  27
ENDBRANCH  25  26
ENDBRANCH  22  25
ENDBRANCH  19  21
ENDBRANCH   1  19
TORSDOF 12
ENDMDL
MODEL 4
REMARK VINA RESULT:    -7.500      4.627      6.319
REMARK INTER + INTRA:         -14.371
REMARK INTER:                 -11.080
REMARK INTRA:                  -3.291
REMARK CONF_INDEPENDENT:        3.580
REMARK UNBOUND:                -3.291
REMARK  12 active torsions:
REMARK  status: ('A' for Active; 'I' for Inactive)
REMARK    1  A    between atoms: C_2  and  O_3 
REMARK    2  A    between atoms: O_3  and  C_4 
REMARK    3  A    between atoms: C_4  and  C_5 
REMARK    4  A    between atoms: C_5  and  O_6 
REMARK    5  A    between atoms: O_6  and  C_7 
REMARK    6  A    between atoms: C_10  and  C_11 
REMARK       I    between atoms: C_11  and  N_13 
REMARK    7  A    between atoms: N_13  and  C_14 
REMARK    8  A    between atoms: C_14  and  N_16 
REMARK    9  A    between atoms: N_16  and  N_17 
REMARK       I    between atoms: N_17  and  C_18 
REMARK   10  A    between atoms: C_18  and  C_20 
REMARK   11  A    between atoms: C_20  and  O_21 
REMARK   12  A    between atoms: O_21  and  C_22 
ROOT
ATOM      1  C   UNL d   1      30.472 -16.962  -0.677  0.00  0.00     0.193 C 
ATOM      2  S   UNL d   1      31.487 -16.246   0.468  0.00  0.00    -0.039 SA
ENDROOT
BRANCH   1   3
ATOM      3  N   UNL d   1      29.106 -17.295  -0.470  0.00  0.00    -0.298 N 
ATOM      4  C   UNL d   1      27.981 -16.642  -1.038  0.00  0.00     0.257 C 
ATOM      5  O   UNL d   1      28.078 -15.687  -1.820  0.00  0.00    -0.267 OA
ATOM      6  H   UNL d   1      28.919 -18.058   0.162  0.00  0.00     0.171 HD
BRANCH   4   7
ATOM      7  C   UNL d   1      26.560 -17.035  -0.712  0.00  0.00     0.032 A 
ATOM      8  C   UNL d   1      25.524 -16.423  -1.458  0.00  0.00     0.020 A 
ATOM      9  C   UNL d   1      24.169 -16.642  -1.166  0.00  0.00     0.038 A 
ATOM     10  C   UNL d   1      23.805 -17.541  -0.170  0.00  0.00     0.068 A 
ATOM     11  C   UNL d   1      24.814 -18.175   0.558  0.00  0.00     0.038 A 
ATOM     12  C   UNL d   1      26.181 -17.928   0.291  0.00  0.00     0.020 A 
BRANCH  10  13
ATOM     13  O   UNL d   1      22.467 -17.802  -0.082  0.00  0.00    -0.349 OA
BRANCH  13  14
ATOM     14  C   UNL d   1      21.940 -18.861  -0.884  0.00  0.00     0.201 C 
BRANCH  14  15
ATOM     15  C   UNL d   1      20.414 -18.750  -0.894  0.00  0.00     0.194 C 
BRANCH  15  16
ATOM     16  O   UNL d   1      19.822 -20.050  -0.833  0.00  0.00    -0.389 OA
BRANCH  16  17
ATOM     17  C   UNL d   1      19.620 -20.455   0.522  0.00  0.00     0.163 C 
ATOM     18  C   UNL d   1      18.266 -21.122   0.649  0.00  0.00     0.033 C 
ENDBRANCH  16  17
ENDBRANCH  15  16
ENDBRANCH  14  15
ENDBRANCH  13  14
ENDBRANCH  10  13
ENDBRANCH   4   7
ENDBRANCH   1   3
BRANCH   1  19
ATOM     19  N   UNL d   1      30.988 -17.267  -1.952  0.00  0.00    -0.273 N 
ATOM     20  H   UNL d   1      31.857 -17.759  -2.152  0.00  0.00     0.189 HD
BRANCH  19  21
ATOM     21  N   UNL d   1      30.230 -16.870  -3.141  0.00  0.00    -0.266 N 
ATOM     22  C   UNL d   1      30.842 -16.720  -4.380  0.00  0.00     0.260 C 
ATOM     23  O   UNL d   1      32.055 -16.904  -4.508  0.00  0.00    -0.269 OA
ATOM     24  H   UNL d   1      29.230 -16.731  -2.987  0.00  0.00     0.190 HD
BRANCH  22  25
ATOM     25  C   UNL d   1      29.903 -16.302  -5.565  0.00  0.00     0.280 C 
BRANCH  25  26
ATOM     26  O   UNL d   1      28.533 -16.322  -5.148  0.00  0.00    -0.342 OA
BRANCH  26  27
ATOM     27  C   UNL d   1      27.857 -15.157  -4.902  0.00  0.00     0.069 A 
ATOM     28  C   UNL d   1      28.635 -14.132  -4.342  0.00  0.00     0.038 A 
ATOM     29  C   UNL d   1      28.053 -12.944  -3.880  0.00  0.00     0.022 A 
ATOM     30  C   UNL d   1      26.688 -12.745  -4.042  0.00  0.00     0.011 A 
ATOM     31 BR   UNL d   1      25.910 -11.102  -3.520  0.00  0.00    -0.051 Br
ATOM     32  C   UNL d   1      25.901 -13.745  -4.613  0.00  0.00     0.022 A 
ATOM     33  C   UNL d   1      26.485 -14.953  -5.039  0.00  0.00     0.038 A 
ENDBRANCH  26  27
ENDBRANCH  25  26
ENDBRANCH  22  25
ENDBRANCH  19  21
ENDBRANCH   1  19
TORSDOF 12
ENDMDL
MODEL 5
REMARK VINA RESULT:    -7.296      4.476      6.404
REMARK INTER + INTRA:         -14.014
REMARK INTER:                 -10.875
REMARK INTRA:                  -3.138
REMARK CONF_INDEPENDENT:        3.580
REMARK UNBOUND:                -3.138
REMARK  12 active torsions:
REMARK  status: ('A' for Active; 'I' for Inactive)
REMARK    1  A    between atoms: C_2  and  O_3 
REMARK    2  A    between atoms: O_3  and  C_4 
REMARK    3  A    between atoms: C_4  and  C_5 
REMARK    4  A    between atoms: C_5  and  O_6 
REMARK    5  A    between atoms: O_6  and  C_7 
REMARK    6  A    between atoms: C_10  and  C_11 
REMARK       I    between atoms: C_11  and  N_13 
REMARK    7  A    between atoms: N_13  and  C_14 
REMARK    8  A    between atoms: C_14  and  N_16 
REMARK    9  A    between atoms: N_16  and  N_17 
REMARK       I    between atoms: N_17  and  C_18 
REMARK   10  A    between atoms: C_18  and  C_20 
REMARK   11  A    between atoms: C_20  and  O_21 
REMARK   12  A    between atoms: O_21  and  C_22 
ROOT
ATOM      1  C   UNL d   1      28.264 -14.848  -0.596  0.00  0.00     0.193 C 
ATOM      2  S   UNL d   1      28.550 -13.436   0.284  0.00  0.00    -0.039 SA
ENDROOT
BRANCH   1   3
ATOM      3  N   UNL d   1      27.180 -15.743  -0.385  0.00  0.00    -0.298 N 
ATOM      4  C   UNL d   1      26.050 -15.917  -1.227  0.00  0.00     0.257 C 
ATOM      5  O   UNL d   1      25.897 -15.296  -2.287  0.00  0.00    -0.267 OA
ATOM      6  H   UNL d   1      27.206 -16.291   0.461  0.00  0.00     0.171 HD
BRANCH   4   7
ATOM      7  C   UNL d   1      24.918 -16.855  -0.887  0.00  0.00     0.032 A 
ATOM      8  C   UNL d   1      23.602 -16.330  -0.913  0.00  0.00     0.020 A 
ATOM      9  C   UNL d   1      22.491 -17.088  -0.515  0.00  0.00     0.038 A 
ATOM     10  C   UNL d   1      22.649 -18.421  -0.153  0.00  0.00     0.068 A 
ATOM     11  C   UNL d   1      23.935 -18.965  -0.148  0.00  0.00     0.038 A 
ATOM     12  C   UNL d   1      25.062 -18.191  -0.513  0.00  0.00     0.020 A 
BRANCH  10  13
ATOM     13  O   UNL d   1      21.486 -19.109   0.055  0.00  0.00    -0.349 OA
BRANCH  13  14
ATOM     14  C   UNL d   1      20.594 -19.262  -1.052  0.00  0.00     0.201 C 
BRANCH  14  15
ATOM     15  C   UNL d   1      19.160 -19.280  -0.522  0.00  0.00     0.194 C 
BRANCH  15  16
ATOM     16  O   UNL d   1      18.747 -20.624  -0.259  0.00  0.00    -0.389 OA
BRANCH  16  17
ATOM     17  C   UNL d   1      18.421 -20.797   1.121  0.00  0.00     0.163 C 
ATOM     18  C   UNL d   1      19.528 -20.212   1.974  0.00  0.00     0.033 C 
ENDBRANCH  16  17
ENDBRANCH  15  16
ENDBRANCH  14  15
ENDBRANCH  13  14
ENDBRANCH  10  13
ENDBRANCH   4   7
ENDBRANCH   1   3
BRANCH   1  19
ATOM     19  N   UNL d   1      29.152 -15.201  -1.632  0.00  0.00    -0.273 N 
ATOM     20  H   UNL d   1      30.142 -15.418  -1.533  0.00  0.00     0.189 HD
BRANCH  19  21
ATOM     21  N   UNL d   1      28.645 -15.289  -3.004  0.00  0.00    -0.266 N 
ATOM     22  C   UNL d   1      29.497 -15.496  -4.084  0.00  0.00     0.260 C 
ATOM     23  O   UNL d   1      30.714 -15.596  -3.913  0.00  0.00    -0.269 OA
ATOM     24  H   UNL d   1      27.632 -15.203  -3.096  0.00  0.00     0.190 HD
BRANCH  22  25
ATOM     25  C   UNL d   1      28.812 -15.581  -5.492  0.00  0.00     0.280 C 
BRANCH  25  26
ATOM     26  O   UNL d   1      27.394 -15.425  -5.369  0.00  0.00    -0.342 OA
BRANCH  26  27
ATOM     27  C   UNL d   1      26.843 -14.196  -5.119  0.00  0.00     0.069 A 
ATOM     28  C   UNL d   1      27.718 -13.112  -5.291  0.00  0.00     0.038 A 
ATOM     29  C   UNL d   1      27.353 -11.814  -4.913  0.00  0.00     0.022 A 
ATOM     30  C   UNL d   1      26.075 -11.579  -4.422  0.00  0.00     0.011 A 
ATOM     31 BR   UNL d   1      25.536  -9.814  -4.009  0.00  0.00    -0.051 Br
ATOM     32  C   UNL d   1      25.186 -12.642  -4.260  0.00  0.00     0.022 A 
ATOM     33  C   UNL d   1      25.571 -13.950  -4.605  0.00  0.00     0.038 A 
ENDBRANCH  26  27
ENDBRANCH  25  26
ENDBRANCH  22  25
ENDBRANCH  19  21
ENDBRANCH   1  19
TORSDOF 12
ENDMDL
MODEL 6
REMARK VINA RESULT:    -7.162      4.603      6.993
REMARK INTER + INTRA:         -13.582
REMARK INTER:                 -10.742
REMARK INTRA:                  -2.841
REMARK CONF_INDEPENDENT:        3.580
REMARK UNBOUND:                -2.841
REMARK  12 active torsions:
REMARK  status: ('A' for Active; 'I' for Inactive)
REMARK    1  A    between atoms: C_2  and  O_3 
REMARK    2  A    between atoms: O_3  and  C_4 
REMARK    3  A    between atoms: C_4  and  C_5 
REMARK    4  A    between atoms: C_5  and  O_6 
REMARK    5  A    between atoms: O_6  and  C_7 
REMARK    6  A    between atoms: C_10  and  C_11 
REMARK       I    between atoms: C_11  and  N_13 
REMARK    7  A    between atoms: N_13  and  C_14 
REMARK    8  A    between atoms: C_14  and  N_16 
REMARK    9  A    between atoms: N_16  and  N_17 
REMARK       I    between atoms: N_17  and  C_18 
REMARK   10  A    between atoms: C_18  and  C_20 
REMARK   11  A    between atoms: C_20  and  O_21 
REMARK   12  A    between atoms: O_21  and  C_22 
ROOT
ATOM      1  C   UNL d   1      29.027 -16.341   0.288  0.00  0.00     0.193 C 
ATOM      2  S   UNL d   1      29.601 -14.814   0.724  0.00  0.00    -0.039 SA
ENDROOT
BRANCH   1   3
ATOM      3  N   UNL d   1      27.664 -16.741   0.302  0.00  0.00    -0.298 N 
ATOM      4  C   UNL d   1      26.816 -16.894  -0.827  0.00  0.00     0.257 C 
ATOM      5  O   UNL d   1      27.198 -16.706  -1.988  0.00  0.00    -0.267 OA
ATOM      6  H   UNL d   1      27.253 -16.911   1.207  0.00  0.00     0.171 HD
BRANCH   4   7
ATOM      7  C   UNL d   1      25.359 -17.270  -0.705  0.00  0.00     0.032 A 
ATOM      8  C   UNL d   1      24.415 -16.462  -1.386  0.00  0.00     0.020 A 
ATOM      9  C   UNL d   1      23.033 -16.663  -1.255  0.00  0.00     0.038 A 
ATOM     10  C   UNL d   1      22.550 -17.729  -0.504  0.00  0.00     0.068 A 
ATOM     11  C   UNL d   1      23.466 -18.554   0.151  0.00  0.00     0.038 A 
ATOM     12  C   UNL d   1      24.860 -18.330   0.052  0.00  0.00     0.020 A 
BRANCH  10  13
ATOM     13  O   UNL d   1      21.200 -17.930  -0.581  0.00  0.00    -0.349 OA
BRANCH  13  14
ATOM     14  C   UNL d   1      20.732 -19.275  -0.698  0.00  0.00     0.201 C 
BRANCH  14  15
ATOM     15  C   UNL d   1      19.322 -19.352  -0.108  0.00  0.00     0.194 C 
BRANCH  15  16
ATOM     16  O   UNL d   1      19.377 -19.266   1.319  0.00  0.00    -0.389 OA
BRANCH  16  17
ATOM     17  C   UNL d   1      19.001 -20.506   1.919  0.00  0.00     0.163 C 
ATOM     18  C   UNL d   1      18.213 -21.328   0.920  0.00  0.00     0.033 C 
ENDBRANCH  16  17
ENDBRANCH  15  16
ENDBRANCH  14  15
ENDBRANCH  13  14
ENDBRANCH  10  13
ENDBRANCH   4   7
ENDBRANCH   1   3
BRANCH   1  19
ATOM     19  N   UNL d   1      29.947 -17.324  -0.129  0.00  0.00    -0.273 N 
ATOM     20  H   UNL d   1      30.566 -17.867   0.471  0.00  0.00     0.189 HD
BRANCH  19  21
ATOM     21  N   UNL d   1      30.051 -17.642  -1.555  0.00  0.00    -0.266 N 
ATOM     22  C   UNL d   1      31.230 -18.129  -2.109  0.00  0.00     0.260 C 
ATOM     23  O   UNL d   1      32.232 -18.293  -1.409  0.00  0.00    -0.269 OA
ATOM     24  H   UNL d   1      29.197 -17.493  -2.093  0.00  0.00     0.190 HD
BRANCH  22  25
ATOM     25  C   UNL d   1      31.191 -18.436  -3.647  0.00  0.00     0.280 C 
BRANCH  25  26
ATOM     26  O   UNL d   1      29.941 -18.022  -4.208  0.00  0.00    -0.342 OA
BRANCH  26  27
ATOM     27  C   UNL d   1      29.853 -16.881  -4.961  0.00  0.00     0.069 A 
ATOM     28  C   UNL d   1      28.888 -15.961  -4.524  0.00  0.00     0.038 A 
ATOM     29  C   UNL d   1      28.564 -14.829  -5.283  0.00  0.00     0.022 A 
ATOM     30  C   UNL d   1      29.259 -14.573  -6.458  0.00  0.00     0.011 A 
ATOM     31 BR   UNL d   1      28.905 -12.992  -7.435  0.00  0.00    -0.051 Br
ATOM     32  C   UNL d   1      30.235 -15.468  -6.899  0.00  0.00     0.022 A 
ATOM     33  C   UNL d   1      30.529 -16.624  -6.153  0.00  0.00     0.038 A 
ENDBRANCH  26  27
ENDBRANCH  25  26
ENDBRANCH  22  25
ENDBRANCH  19  21
ENDBRANCH   1  19
TORSDOF 12
ENDMDL
MODEL 7
REMARK VINA RESULT:    -6.959      4.765      6.994
REMARK INTER + INTRA:         -13.652
REMARK INTER:                 -10.539
REMARK INTRA:                  -3.113
REMARK CONF_INDEPENDENT:        3.580
REMARK UNBOUND:                -3.113
REMARK  12 active torsions:
REMARK  status: ('A' for Active; 'I' for Inactive)
REMARK    1  A    between atoms: C_2  and  O_3 
REMARK    2  A    between atoms: O_3  and  C_4 
REMARK    3  A    between atoms: C_4  and  C_5 
REMARK    4  A    between atoms: C_5  and  O_6 
REMARK    5  A    between atoms: O_6  and  C_7 
REMARK    6  A    between atoms: C_10  and  C_11 
REMARK       I    between atoms: C_11  and  N_13 
REMARK    7  A    between atoms: N_13  and  C_14 
REMARK    8  A    between atoms: C_14  and  N_16 
REMARK    9  A    between atoms: N_16  and  N_17 
REMARK       I    between atoms: N_17  and  C_18 
REMARK   10  A    between atoms: C_18  and  C_20 
REMARK   11  A    between atoms: C_20  and  O_21 
REMARK   12  A    between atoms: O_21  and  C_22 
ROOT
ATOM      1  C   UNL d   1      27.637 -12.388  -0.455  0.00  0.00     0.193 C 
ATOM      2  S   UNL d   1      28.958 -11.927   0.491  0.00  0.00    -0.039 SA
ENDROOT
BRANCH   1   3
ATOM      3  N   UNL d   1      26.897 -13.591  -0.302  0.00  0.00    -0.298 N 
ATOM      4  C   UNL d   1      27.024 -14.767  -1.088  0.00  0.00     0.257 C 
ATOM      5  O   UNL d   1      27.839 -14.876  -2.013  0.00  0.00    -0.267 OA
ATOM      6  H   UNL d   1      26.197 -13.602   0.423  0.00  0.00     0.171 HD
BRANCH   4   7
ATOM      7  C   UNL d   1      26.150 -15.981  -0.885  0.00  0.00     0.032 A 
ATOM      8  C   UNL d   1      24.958 -16.065  -1.646  0.00  0.00     0.020 A 
ATOM      9  C   UNL d   1      24.027 -17.098  -1.458  0.00  0.00     0.038 A 
ATOM     10  C   UNL d   1      24.296 -18.125  -0.560  0.00  0.00     0.068 A 
ATOM     11  C   UNL d   1      25.479 -18.075   0.178  0.00  0.00     0.038 A 
ATOM     12  C   UNL d   1      26.402 -17.014   0.019  0.00  0.00     0.020 A 
BRANCH  10  13
ATOM     13  O   UNL d   1      23.404 -19.161  -0.579  0.00  0.00    -0.349 OA
BRANCH  13  14
ATOM     14  C   UNL d   1      22.088 -18.917  -0.078  0.00  0.00     0.201 C 
BRANCH  14  15
ATOM     15  C   UNL d   1      21.133 -18.784  -1.266  0.00  0.00     0.194 C 
BRANCH  15  16
ATOM     16  O   UNL d   1      20.279 -19.929  -1.346  0.00  0.00    -0.389 OA
BRANCH  16  17
ATOM     17  C   UNL d   1      19.162 -19.794  -0.468  0.00  0.00     0.163 C 
ATOM     18  C   UNL d   1      19.492 -20.435   0.865  0.00  0.00     0.033 C 
ENDBRANCH  16  17
ENDBRANCH  15  16
ENDBRANCH  14  15
ENDBRANCH  13  14
ENDBRANCH  10  13
ENDBRANCH   4   7
ENDBRANCH   1   3
BRANCH   1  19
ATOM     19  N   UNL d   1      27.204 -11.534  -1.489  0.00  0.00    -0.273 N 
ATOM     20  H   UNL d   1      27.186 -10.516  -1.465  0.00  0.00     0.189 HD
BRANCH  19  21
ATOM     21  N   UNL d   1      26.736 -12.120  -2.746  0.00  0.00    -0.266 N 
ATOM     22  C   UNL d   1      26.088 -11.355  -3.711  0.00  0.00     0.260 C 
ATOM     23  O   UNL d   1      25.875 -10.155  -3.522  0.00  0.00    -0.269 OA
ATOM     24  H   UNL d   1      26.936 -13.115  -2.859  0.00  0.00     0.190 HD
BRANCH  22  25
ATOM     25  C   UNL d   1      25.653 -12.115  -5.012  0.00  0.00     0.280 C 
BRANCH  25  26
ATOM     26  O   UNL d   1      25.917 -13.517  -4.885  0.00  0.00    -0.342 OA
BRANCH  26  27
ATOM     27  C   UNL d   1      27.068 -14.063  -5.388  0.00  0.00     0.069 A 
ATOM     28  C   UNL d   1      27.484 -15.244  -4.754  0.00  0.00     0.038 A 
ATOM     29  C   UNL d   1      28.725 -15.827  -5.042  0.00  0.00     0.022 A 
ATOM     30  C   UNL d   1      29.533 -15.265  -6.023  0.00  0.00     0.011 A 
ATOM     31 BR   UNL d   1      31.161 -16.104  -6.494  0.00  0.00    -0.051 Br
ATOM     32  C   UNL d   1      29.127 -14.101  -6.676  0.00  0.00     0.022 A 
ATOM     33  C   UNL d   1      27.897 -13.497  -6.356  0.00  0.00     0.038 A 
ENDBRANCH  26  27
ENDBRANCH  25  26
ENDBRANCH  22  25
ENDBRANCH  19  21
ENDBRANCH   1  19
TORSDOF 12
ENDMDL
MODEL 8
REMARK VINA RESULT:    -6.929      3.579      4.795
REMARK INTER + INTRA:         -13.937
REMARK INTER:                 -10.508
REMARK INTRA:                  -3.429
REMARK CONF_INDEPENDENT:        3.580
REMARK UNBOUND:                -3.429
REMARK  12 active torsions:
REMARK  status: ('A' for Active; 'I' for Inactive)
REMARK    1  A    between atoms: C_2  and  O_3 
REMARK    2  A    between atoms: O_3  and  C_4 
REMARK    3  A    between atoms: C_4  and  C_5 
REMARK    4  A    between atoms: C_5  and  O_6 
REMARK    5  A    between atoms: O_6  and  C_7 
REMARK    6  A    between atoms: C_10  and  C_11 
REMARK       I    between atoms: C_11  and  N_13 
REMARK    7  A    between atoms: N_13  and  C_14 
REMARK    8  A    between atoms: C_14  and  N_16 
REMARK    9  A    between atoms: N_16  and  N_17 
REMARK       I    between atoms: N_17  and  C_18 
REMARK   10  A    between atoms: C_18  and  C_20 
REMARK   11  A    between atoms: C_20  and  O_21 
REMARK   12  A    between atoms: O_21  and  C_22 
ROOT
ATOM      1  C   UNL d   1      29.419 -15.949  -3.667  0.00  0.00     0.193 C 
ATOM      2  S   UNL d   1      30.867 -16.812  -3.562  0.00  0.00    -0.039 SA
ENDROOT
BRANCH   1   3
ATOM      3  N   UNL d   1      28.196 -16.319  -3.047  0.00  0.00    -0.298 N 
ATOM      4  C   UNL d   1      28.014 -16.692  -1.690  0.00  0.00     0.257 C 
ATOM      5  O   UNL d   1      28.939 -16.716  -0.867  0.00  0.00    -0.267 OA
ATOM      6  H   UNL d   1      27.378 -16.339  -3.638  0.00  0.00     0.171 HD
BRANCH   4   7
ATOM      7  C   UNL d   1      26.679 -17.126  -1.135  0.00  0.00     0.032 A 
ATOM      8  C   UNL d   1      25.518 -16.744  -1.852  0.00  0.00     0.020 A 
ATOM      9  C   UNL d   1      24.227 -17.008  -1.369  0.00  0.00     0.038 A 
ATOM     10  C   UNL d   1      24.054 -17.731  -0.195  0.00  0.00     0.068 A 
ATOM     11  C   UNL d   1      25.187 -18.141   0.510  0.00  0.00     0.038 A 
ATOM     12  C   UNL d   1      26.491 -17.844   0.046  0.00  0.00     0.020 A 
BRANCH  10  13
ATOM     13  O   UNL d   1      22.762 -18.073   0.093  0.00  0.00    -0.349 OA
BRANCH  13  14
ATOM     14  C   UNL d   1      22.250 -19.282  -0.473  0.00  0.00     0.201 C 
BRANCH  14  15
ATOM     15  C   UNL d   1      20.988 -18.949  -1.270  0.00  0.00     0.194 C 
BRANCH  15  16
ATOM     16  O   UNL d   1      20.013 -19.984  -1.110  0.00  0.00    -0.389 OA
BRANCH  16  17
ATOM     17  C   UNL d   1      19.171 -19.721   0.013  0.00  0.00     0.163 C 
ATOM     18  C   UNL d   1      18.991 -20.996   0.813  0.00  0.00     0.033 C 
ENDBRANCH  16  17
ENDBRANCH  15  16
ENDBRANCH  14  15
ENDBRANCH  13  14
ENDBRANCH  10  13
ENDBRANCH   4   7
ENDBRANCH   1   3
BRANCH   1  19
ATOM     19  N   UNL d   1      29.385 -14.760  -4.423  0.00  0.00    -0.273 N 
ATOM     20  H   UNL d   1      30.103 -14.431  -5.067  0.00  0.00     0.189 HD
BRANCH  19  21
ATOM     21  N   UNL d   1      28.217 -13.882  -4.316  0.00  0.00    -0.266 N 
ATOM     22  C   UNL d   1      26.985 -14.239  -4.855  0.00  0.00     0.260 C 
ATOM     23  O   UNL d   1      26.848 -15.306  -5.456  0.00  0.00    -0.269 OA
ATOM     24  H   UNL d   1      28.378 -13.012  -3.808  0.00  0.00     0.190 HD
BRANCH  22  25
ATOM     25  C   UNL d   1      25.823 -13.205  -4.653  0.00  0.00     0.280 C 
BRANCH  25  26
ATOM     26  O   UNL d   1      26.193 -12.220  -3.682  0.00  0.00    -0.342 OA
BRANCH  26  27
ATOM     27  C   UNL d   1      26.412 -12.569  -2.376  0.00  0.00     0.069 A 
ATOM     28  C   UNL d   1      27.340 -11.763  -1.699  0.00  0.00     0.038 A 
ATOM     29  C   UNL d   1      27.794 -12.094  -0.416  0.00  0.00     0.022 A 
ATOM     30  C   UNL d   1      27.266 -13.205   0.230  0.00  0.00     0.011 A 
ATOM     31 BR   UNL d   1      27.792 -13.600   2.003  0.00  0.00    -0.051 Br
ATOM     32  C   UNL d   1      26.329 -14.008  -0.420  0.00  0.00     0.022 A 
ATOM     33  C   UNL d   1      25.905 -13.693  -1.725  0.00  0.00     0.038 A 
ENDBRANCH  26  27
ENDBRANCH  25  26
ENDBRANCH  22  25
ENDBRANCH  19  21
ENDBRANCH   1  19
TORSDOF 12
ENDMDL
MODEL 9
REMARK VINA RESULT:    -6.838      4.792      6.521
REMARK INTER + INTRA:         -13.629
REMARK INTER:                 -10.418
REMARK INTRA:                  -3.211
REMARK CONF_INDEPENDENT:        3.580
REMARK UNBOUND:                -3.211
REMARK  12 active torsions:
REMARK  status: ('A' for Active; 'I' for Inactive)
REMARK    1  A    between atoms: C_2  and  O_3 
REMARK    2  A    between atoms: O_3  and  C_4 
REMARK    3  A    between atoms: C_4  and  C_5 
REMARK    4  A    between atoms: C_5  and  O_6 
REMARK    5  A    between atoms: O_6  and  C_7 
REMARK    6  A    between atoms: C_10  and  C_11 
REMARK       I    between atoms: C_11  and  N_13 
REMARK    7  A    between atoms: N_13  and  C_14 
REMARK    8  A    between atoms: C_14  and  N_16 
REMARK    9  A    between atoms: N_16  and  N_17 
REMARK       I    between atoms: N_17  and  C_18 
REMARK   10  A    between atoms: C_18  and  C_20 
REMARK   11  A    between atoms: C_20  and  O_21 
REMARK   12  A    between atoms: O_21  and  C_22 
ROOT
ATOM      1  C   UNL d   1      31.109 -18.296  -0.692  0.00  0.00     0.193 C 
ATOM      2  S   UNL d   1      32.267 -18.082   0.519  0.00  0.00    -0.039 SA
ENDROOT
BRANCH   1   3
ATOM      3  N   UNL d   1      29.703 -18.186  -0.513  0.00  0.00    -0.298 N 
ATOM      4  C   UNL d   1      28.860 -17.171  -1.037  0.00  0.00     0.257 C 
ATOM      5  O   UNL d   1      29.277 -16.250  -1.751  0.00  0.00    -0.267 OA
ATOM      6  H   UNL d   1      29.265 -18.888   0.064  0.00  0.00     0.171 HD
BRANCH   4   7
ATOM      7  C   UNL d   1      27.381 -17.108  -0.743  0.00  0.00     0.032 A 
ATOM      8  C   UNL d   1      26.803 -18.203  -0.054  0.00  0.00     0.020 A 
ATOM      9  C   UNL d   1      25.422 -18.290   0.177  0.00  0.00     0.038 A 
ATOM     10  C   UNL d   1      24.583 -17.248  -0.202  0.00  0.00     0.068 A 
ATOM     11  C   UNL d   1      25.139 -16.147  -0.856  0.00  0.00     0.038 A 
ATOM     12  C   UNL d   1      26.526 -16.073  -1.126  0.00  0.00     0.020 A 
BRANCH  10  13
ATOM     13  O   UNL d   1      23.288 -17.362   0.219  0.00  0.00    -0.349 OA
BRANCH  13  14
ATOM     14  C   UNL d   1      22.298 -17.705  -0.753  0.00  0.00     0.201 C 
BRANCH  14  15
ATOM     15  C   UNL d   1      21.954 -19.188  -0.594  0.00  0.00     0.194 C 
BRANCH  15  16
ATOM     16  O   UNL d   1      20.889 -19.547  -1.478  0.00  0.00    -0.389 OA
BRANCH  16  17
ATOM     17  C   UNL d   1      19.619 -19.302  -0.872  0.00  0.00     0.163 C 
ATOM     18  C   UNL d   1      19.430 -20.250   0.295  0.00  0.00     0.033 C 
ENDBRANCH  16  17
ENDBRANCH  15  16
ENDBRANCH  14  15
ENDBRANCH  13  14
ENDBRANCH  10  13
ENDBRANCH   4   7
ENDBRANCH   1   3
BRANCH   1  19
ATOM     19  N   UNL d   1      31.534 -18.609  -1.998  0.00  0.00    -0.273 N 
ATOM     20  H   UNL d   1      32.138 -19.384  -2.268  0.00  0.00     0.189 HD
BRANCH  19  21
ATOM     21  N   UNL d   1      31.081 -17.776  -3.113  0.00  0.00    -0.266 N 
ATOM     22  C   UNL d   1      30.769 -18.323  -4.354  0.00  0.00     0.260 C 
ATOM     23  O   UNL d   1      30.883 -19.535  -4.552  0.00  0.00    -0.269 OA
ATOM     24  H   UNL d   1      30.999 -16.780  -2.902  0.00  0.00     0.190 HD
BRANCH  22  25
ATOM     25  C   UNL d   1      30.286 -17.310  -5.449  0.00  0.00     0.280 C 
BRANCH  25  26
ATOM     26  O   UNL d   1      30.399 -15.965  -4.972  0.00  0.00    -0.342 OA
BRANCH  26  27
ATOM     27  C   UNL d   1      29.288 -15.178  -4.823  0.00  0.00     0.069 A 
ATOM     28  C   UNL d   1      29.284 -14.378  -3.670  0.00  0.00     0.038 A 
ATOM     29  C   UNL d   1      28.150 -13.648  -3.293  0.00  0.00     0.022 A 
ATOM     30  C   UNL d   1      27.027 -13.661  -4.110  0.00  0.00     0.011 A 
ATOM     31 BR   UNL d   1      25.528 -12.595  -3.666  0.00  0.00    -0.051 Br
ATOM     32  C   UNL d   1      27.018 -14.436  -5.270  0.00  0.00     0.022 A 
ATOM     33  C   UNL d   1      28.147 -15.198  -5.624  0.00  0.00     0.038 A 
ENDBRANCH  26  27
ENDBRANCH  25  26
ENDBRANCH  22  25
ENDBRANCH  19  21
ENDBRANCH   1  19
TORSDOF 12
ENDMDL
