MODEL 1
REMARK VINA RESULT:    -7.971      0.000      0.000
REMARK INTER + INTRA:         -11.160
REMARK INTER:                  -9.462
REMARK INTRA:                  -1.698
REMARK CONF_INDEPENDENT:        1.492
REMARK UNBOUND:                -1.698
REMARK  5 active torsions:
REMARK  status: ('A' for Active; 'I' for Inactive)
REMARK    1  A    between atoms: C_4  and  C_2 
REMARK    2  A    between atoms: C_4  and  N_6 
REMARK       I    between atoms: N_6  and  C_7 
REMARK    3  A    between atoms: C_7  and  C_9 
REMARK       I    between atoms: C_9  and  N_11 
REMARK    4  A    between atoms: N_11  and  N_12 
REMARK    5  A    between atoms: N_12  and  C_13 
ROOT
ATOM      1  C   UNL d   1      23.344 -18.020  -0.294  0.00  0.00     0.327 C 
ATOM      2  O   UNL d   1      24.045 -18.913   0.189  0.00  0.00    -0.261 OA
ATOM      3  N   UNL d   1      23.808 -16.781  -0.737  0.00  0.00    -0.261 N 
ATOM      4  H   UNL d   1      23.174 -16.114  -1.174  0.00  0.00     0.190 HD
ENDROOT
BRANCH   3   5
ATOM      5  N   UNL d   1      25.194 -16.512  -0.677  0.00  0.00    -0.296 N 
ATOM      6  H   UNL d   1      25.726 -17.068  -0.004  0.00  0.00     0.187 HD
BRANCH   5   7
ATOM      7  C   UNL d   1      25.867 -16.048  -1.830  0.00  0.00     0.070 A 
ATOM      8  C   UNL d   1      25.156 -15.382  -2.839  0.00  0.00     0.034 A 
ATOM      9  C   UNL d   1      25.809 -14.823  -3.948  0.00  0.00     0.026 A 
ATOM     10  C   UNL d   1      27.188 -14.955  -4.089  0.00  0.00     0.035 A 
ATOM     11 CL   UNL d   1      27.977 -14.266  -5.456  0.00  0.00    -0.084 Cl
ATOM     12  C   UNL d   1      27.924 -15.638  -3.128  0.00  0.00     0.050 A 
ATOM     13  C   UNL d   1      27.266 -16.175  -2.007  0.00  0.00     0.063 A 
ATOM     14 CL   UNL d   1      28.237 -17.007  -0.841  0.00  0.00    -0.082 Cl
ENDBRANCH   5   7
ENDBRANCH   3   5
BRANCH   1  15
ATOM     15  C   UNL d   1      21.809 -18.235  -0.437  0.00  0.00     0.311 C 
ATOM     16  N   UNL d   1      21.280 -19.334   0.236  0.00  0.00    -0.348 N 
ATOM     17  H   UNL d   1      21.936 -19.908   0.761  0.00  0.00     0.163 HD
ATOM     18  O   UNL d   1      21.148 -17.407  -1.060  0.00  0.00    -0.262 OA
BRANCH  16  19
ATOM     19  C   UNL d   1      19.834 -19.582   0.384  0.00  0.00     0.084 C 
ATOM     20  C   UNL d   1      19.149 -19.700  -0.990  0.00  0.00     0.032 C 
BRANCH  19  21
ATOM     21  C   UNL d   1      19.500 -20.801   1.315  0.00  0.00    -0.000 C 
ATOM     22  C   UNL d   1      18.148 -21.458   1.020  0.00  0.00     0.011 C 
ATOM     23  C   UNL d   1      19.525 -20.450   2.811  0.00  0.00     0.011 C 
ENDBRANCH  19  21
ENDBRANCH  16  19
ENDBRANCH   1  15
TORSDOF 5
ENDMDL
MODEL 2
REMARK VINA RESULT:    -7.387      3.698      8.380
REMARK INTER + INTRA:          -9.826
REMARK INTER:                  -8.878
REMARK INTRA:                  -0.948
REMARK CONF_INDEPENDENT:        1.492
REMARK UNBOUND:                -0.948
REMARK  5 active torsions:
REMARK  status: ('A' for Active; 'I' for Inactive)
REMARK    1  A    between atoms: C_4  and  C_2 
REMARK    2  A    between atoms: C_4  and  N_6 
REMARK       I    between atoms: N_6  and  C_7 
REMARK    3  A    between atoms: C_7  and  C_9 
REMARK       I    between atoms: C_9  and  N_11 
REMARK    4  A    between atoms: N_11  and  N_12 
REMARK    5  A    between atoms: N_12  and  C_13 
ROOT
ATOM      1  C   UNL d   1      25.650 -14.977  -3.558  0.00  0.00     0.327 C 
ATOM      2  O   UNL d   1      24.657 -14.249  -3.500  0.00  0.00    -0.261 OA
ATOM      3  N   UNL d   1      26.220 -15.651  -2.477  0.00  0.00    -0.261 N 
ATOM      4  H   UNL d   1      27.011 -16.278  -2.614  0.00  0.00     0.190 HD
ENDROOT
BRANCH   3   5
ATOM      5  N   UNL d   1      25.608 -15.543  -1.208  0.00  0.00    -0.296 N 
ATOM      6  H   UNL d   1      25.600 -14.607  -0.796  0.00  0.00     0.187 HD
BRANCH   5   7
ATOM      7  C   UNL d   1      24.563 -16.428  -0.859  0.00  0.00     0.070 A 
ATOM      8  C   UNL d   1      23.231 -16.090  -1.139  0.00  0.00     0.034 A 
ATOM      9  C   UNL d   1      22.181 -16.988  -0.895  0.00  0.00     0.026 A 
ATOM     10  C   UNL d   1      22.440 -18.232  -0.326  0.00  0.00     0.035 A 
ATOM     11 CL   UNL d   1      21.142 -19.325  -0.030  0.00  0.00    -0.084 Cl
ATOM     12  C   UNL d   1      23.744 -18.591  -0.002  0.00  0.00     0.050 A 
ATOM     13  C   UNL d   1      24.794 -17.696  -0.271  0.00  0.00     0.063 A 
ATOM     14 CL   UNL d   1      26.395 -18.203   0.148  0.00  0.00    -0.082 Cl
ENDBRANCH   5   7
ENDBRANCH   3   5
BRANCH   1  15
ATOM     15  C   UNL d   1      26.374 -15.190  -4.919  0.00  0.00     0.311 C 
ATOM     16  N   UNL d   1      27.601 -14.546  -5.067  0.00  0.00    -0.348 N 
ATOM     17  H   UNL d   1      27.922 -13.988  -4.279  0.00  0.00     0.163 HD
ATOM     18  O   UNL d   1      25.875 -15.951  -5.745  0.00  0.00    -0.262 OA
BRANCH  16  19
ATOM     19  C   UNL d   1      28.519 -14.788  -6.195  0.00  0.00     0.084 C 
ATOM     20  C   UNL d   1      28.828 -13.481  -6.948  0.00  0.00     0.032 C 
BRANCH  19  21
ATOM     21  C   UNL d   1      29.826 -15.554  -5.784  0.00  0.00    -0.000 C 
ATOM     22  C   UNL d   1      30.405 -16.438  -6.894  0.00  0.00     0.011 C 
ATOM     23  C   UNL d   1      29.650 -16.436  -4.537  0.00  0.00     0.011 C 
ENDBRANCH  19  21
ENDBRANCH  16  19
ENDBRANCH   1  15
TORSDOF 5
ENDMDL
MODEL 3
REMARK VINA RESULT:    -7.303      5.138      8.054
REMARK INTER + INTRA:          -9.673
REMARK INTER:                  -8.795
REMARK INTRA:                  -0.878
REMARK CONF_INDEPENDENT:        1.492
REMARK UNBOUND:                -0.878
REMARK  5 active torsions:
REMARK  status: ('A' for Active; 'I' for Inactive)
REMARK    1  A    between atoms: C_4  and  C_2 
REMARK    2  A    between atoms: C_4  and  N_6 
REMARK       I    between atoms: N_6  and  C_7 
REMARK    3  A    between atoms: C_7  and  C_9 
REMARK       I    between atoms: C_9  and  N_11 
REMARK    4  A    between atoms: N_11  and  N_12 
REMARK    5  A    between atoms: N_12  and  C_13 
ROOT
ATOM      1  C   UNL d   1      27.391 -14.751   1.049  0.00  0.00     0.327 C 
ATOM      2  O   UNL d   1      26.557 -14.227   0.307  0.00  0.00    -0.261 OA
ATOM      3  N   UNL d   1      27.990 -15.994   0.838  0.00  0.00    -0.261 N 
ATOM      4  H   UNL d   1      28.711 -16.337   1.470  0.00  0.00     0.190 HD
ENDROOT
BRANCH   3   5
ATOM      5  N   UNL d   1      27.666 -16.715  -0.333  0.00  0.00    -0.296 N 
ATOM      6  H   UNL d   1      28.426 -17.262  -0.743  0.00  0.00     0.187 HD
BRANCH   5   7
ATOM      7  C   UNL d   1      26.342 -17.172  -0.528  0.00  0.00     0.070 A 
ATOM      8  C   UNL d   1      25.812 -18.170   0.302  0.00  0.00     0.034 A 
ATOM      9  C   UNL d   1      24.473 -18.574   0.198  0.00  0.00     0.026 A 
ATOM     10  C   UNL d   1      23.645 -18.014  -0.771  0.00  0.00     0.035 A 
ATOM     11 CL   UNL d   1      22.003 -18.521  -0.890  0.00  0.00    -0.084 Cl
ATOM     12  C   UNL d   1      24.142 -17.046  -1.636  0.00  0.00     0.050 A 
ATOM     13  C   UNL d   1      25.479 -16.628  -1.511  0.00  0.00     0.063 A 
ATOM     14 CL   UNL d   1      26.038 -15.416  -2.612  0.00  0.00    -0.082 Cl
ENDBRANCH   5   7
ENDBRANCH   3   5
BRANCH   1  15
ATOM     15  C   UNL d   1      27.841 -14.017   2.345  0.00  0.00     0.311 C 
ATOM     16  N   UNL d   1      29.043 -14.446   2.905  0.00  0.00    -0.348 N 
ATOM     17  H   UNL d   1      29.526 -15.203   2.427  0.00  0.00     0.163 HD
ATOM     18  O   UNL d   1      27.169 -13.075   2.759  0.00  0.00    -0.262 OA
BRANCH  16  19
ATOM     19  C   UNL d   1      29.727 -13.743   4.006  0.00  0.00     0.084 C 
ATOM     20  C   UNL d   1      29.924 -12.252   3.675  0.00  0.00     0.032 C 
BRANCH  19  21
ATOM     21  C   UNL d   1      29.041 -13.950   5.403  0.00  0.00    -0.000 C 
ATOM     22  C   UNL d   1      28.153 -15.197   5.482  0.00  0.00     0.011 C 
ATOM     23  C   UNL d   1      28.191 -12.749   5.848  0.00  0.00     0.011 C 
ENDBRANCH  19  21
ENDBRANCH  16  19
ENDBRANCH   1  15
TORSDOF 5
ENDMDL
MODEL 4
REMARK VINA RESULT:    -6.722      1.464      2.486
REMARK INTER + INTRA:         -10.025
REMARK INTER:                  -8.214
REMARK INTRA:                  -1.811
REMARK CONF_INDEPENDENT:        1.492
REMARK UNBOUND:                -1.811
REMARK  5 active torsions:
REMARK  status: ('A' for Active; 'I' for Inactive)
REMARK    1  A    between atoms: C_4  and  C_2 
REMARK    2  A    between atoms: C_4  and  N_6 
REMARK       I    between atoms: N_6  and  C_7 
REMARK    3  A    between atoms: C_7  and  C_9 
REMARK       I    between atoms: C_9  and  N_11 
REMARK    4  A    between atoms: N_11  and  N_12 
REMARK    5  A    between atoms: N_12  and  C_13 
ROOT
ATOM      1  C   UNL d   1      22.988 -17.250  -0.496  0.00  0.00     0.327 C 
ATOM      2  O   UNL d   1      22.567 -16.309   0.181  0.00  0.00    -0.261 OA
ATOM      3  N   UNL d   1      23.968 -17.157  -1.484  0.00  0.00    -0.261 N 
ATOM      4  H   UNL d   1      24.303 -17.990  -1.965  0.00  0.00     0.190 HD
ENDROOT
BRANCH   3   5
ATOM      5  N   UNL d   1      24.577 -15.904  -1.724  0.00  0.00    -0.296 N 
ATOM      6  H   UNL d   1      24.212 -15.121  -1.178  0.00  0.00     0.187 HD
BRANCH   5   7
ATOM      7  C   UNL d   1      25.928 -15.851  -2.136  0.00  0.00     0.070 A 
ATOM      8  C   UNL d   1      26.916 -16.519  -1.398  0.00  0.00     0.034 A 
ATOM      9  C   UNL d   1      28.248 -16.567  -1.835  0.00  0.00     0.026 A 
ATOM     10  C   UNL d   1      28.628 -15.911  -3.003  0.00  0.00     0.035 A 
ATOM     11 CL   UNL d   1      30.267 -15.976  -3.526  0.00  0.00    -0.084 Cl
ATOM     12  C   UNL d   1      27.684 -15.208  -3.744  0.00  0.00     0.050 A 
ATOM     13  C   UNL d   1      26.346 -15.184  -3.314  0.00  0.00     0.063 A 
ATOM     14 CL   UNL d   1      25.218 -14.299  -4.282  0.00  0.00    -0.082 Cl
ENDBRANCH   5   7
ENDBRANCH   3   5
BRANCH   1  15
ATOM     15  C   UNL d   1      22.407 -18.677  -0.280  0.00  0.00     0.311 C 
ATOM     16  N   UNL d   1      21.457 -18.805   0.730  0.00  0.00    -0.348 N 
ATOM     17  H   UNL d   1      21.223 -17.960   1.247  0.00  0.00     0.163 HD
ATOM     18  O   UNL d   1      22.753 -19.581  -1.038  0.00  0.00    -0.262 OA
BRANCH  16  19
ATOM     19  C   UNL d   1      20.653 -20.022   0.947  0.00  0.00     0.084 C 
ATOM     20  C   UNL d   1      20.083 -20.062   2.377  0.00  0.00     0.032 C 
BRANCH  19  21
ATOM     21  C   UNL d   1      19.539 -20.239  -0.138  0.00  0.00    -0.000 C 
ATOM     22  C   UNL d   1      19.151 -18.964  -0.895  0.00  0.00     0.011 C 
ATOM     23  C   UNL d   1      18.248 -20.850   0.429  0.00  0.00     0.011 C 
ENDBRANCH  19  21
ENDBRANCH  16  19
ENDBRANCH   1  15
TORSDOF 5
ENDMDL
MODEL 5
REMARK VINA RESULT:    -6.556      4.962      8.032
REMARK INTER + INTRA:          -9.828
REMARK INTER:                  -8.047
REMARK INTRA:                  -1.780
REMARK CONF_INDEPENDENT:        1.492
REMARK UNBOUND:                -1.780
REMARK  5 active torsions:
REMARK  status: ('A' for Active; 'I' for Inactive)
REMARK    1  A    between atoms: C_4  and  C_2 
REMARK    2  A    between atoms: C_4  and  N_6 
REMARK       I    between atoms: N_6  and  C_7 
REMARK    3  A    between atoms: C_7  and  C_9 
REMARK       I    between atoms: C_9  and  N_11 
REMARK    4  A    between atoms: N_11  and  N_12 
REMARK    5  A    between atoms: N_12  and  C_13 
ROOT
ATOM      1  C   UNL d   1      27.406 -15.135   0.848  0.00  0.00     0.327 C 
ATOM      2  O   UNL d   1      28.203 -16.017   0.518  0.00  0.00    -0.261 OA
ATOM      3  N   UNL d   1      26.177 -14.887   0.236  0.00  0.00    -0.261 N 
ATOM      4  H   UNL d   1      25.549 -14.173   0.600  0.00  0.00     0.190 HD
ENDROOT
BRANCH   3   5
ATOM      5  N   UNL d   1      25.765 -15.724  -0.825  0.00  0.00    -0.296 N 
ATOM      6  H   UNL d   1      26.502 -16.026  -1.466  0.00  0.00     0.187 HD
BRANCH   5   7
ATOM      7  C   UNL d   1      24.650 -16.576  -0.651  0.00  0.00     0.070 A 
ATOM      8  C   UNL d   1      23.361 -16.121  -0.963  0.00  0.00     0.034 A 
ATOM      9  C   UNL d   1      22.248 -16.973  -0.895  0.00  0.00     0.026 A 
ATOM     10  C   UNL d   1      22.398 -18.291  -0.473  0.00  0.00     0.035 A 
ATOM     11 CL   UNL d   1      21.024 -19.325  -0.392  0.00  0.00    -0.084 Cl
ATOM     12  C   UNL d   1      23.655 -18.770  -0.121  0.00  0.00     0.050 A 
ATOM     13  C   UNL d   1      24.770 -17.919  -0.214  0.00  0.00     0.063 A 
ATOM     14 CL   UNL d   1      26.309 -18.574   0.230  0.00  0.00    -0.082 Cl
ENDBRANCH   5   7
ENDBRANCH   3   5
BRANCH   1  15
ATOM     15  C   UNL d   1      27.753 -14.184   2.031  0.00  0.00     0.311 C 
ATOM     16  N   UNL d   1      28.946 -14.450   2.700  0.00  0.00    -0.348 N 
ATOM     17  H   UNL d   1      29.490 -15.243   2.367  0.00  0.00     0.163 HD
ATOM     18  O   UNL d   1      27.015 -13.230   2.263  0.00  0.00    -0.262 OA
BRANCH  16  19
ATOM     19  C   UNL d   1      29.537 -13.548   3.705  0.00  0.00     0.084 C 
ATOM     20  C   UNL d   1      29.441 -12.078   3.254  0.00  0.00     0.032 C 
BRANCH  19  21
ATOM     21  C   UNL d   1      28.965 -13.759   5.151  0.00  0.00    -0.000 C 
ATOM     22  C   UNL d   1      28.520 -15.197   5.441  0.00  0.00     0.011 C 
ATOM     23  C   UNL d   1      27.780 -12.835   5.478  0.00  0.00     0.011 C 
ENDBRANCH  19  21
ENDBRANCH  16  19
ENDBRANCH   1  15
TORSDOF 5
ENDMDL
MODEL 6
REMARK VINA RESULT:    -6.548      5.685      8.329
REMARK INTER + INTRA:          -9.498
REMARK INTER:                  -8.039
REMARK INTRA:                  -1.459
REMARK CONF_INDEPENDENT:        1.492
REMARK UNBOUND:                -1.459
REMARK  5 active torsions:
REMARK  status: ('A' for Active; 'I' for Inactive)
REMARK    1  A    between atoms: C_4  and  C_2 
REMARK    2  A    between atoms: C_4  and  N_6 
REMARK       I    between atoms: N_6  and  C_7 
REMARK    3  A    between atoms: C_7  and  C_9 
REMARK       I    between atoms: C_9  and  N_11 
REMARK    4  A    between atoms: N_11  and  N_12 
REMARK    5  A    between atoms: N_12  and  C_13 
ROOT
ATOM      1  C   UNL d   1      27.680 -14.622   1.697  0.00  0.00     0.327 C 
ATOM      2  O   UNL d   1      26.641 -14.073   1.322  0.00  0.00    -0.261 OA
ATOM      3  N   UNL d   1      28.390 -15.583   0.976  0.00  0.00    -0.261 N 
ATOM      4  H   UNL d   1      29.271 -15.953   1.330  0.00  0.00     0.190 HD
ENDROOT
BRANCH   3   5
ATOM      5  N   UNL d   1      27.930 -15.946  -0.310  0.00  0.00    -0.296 N 
ATOM      6  H   UNL d   1      28.653 -16.205  -0.985  0.00  0.00     0.187 HD
BRANCH   5   7
ATOM      7  C   UNL d   1      26.651 -16.531  -0.455  0.00  0.00     0.070 A 
ATOM      8  C   UNL d   1      26.302 -17.658   0.304  0.00  0.00     0.034 A 
ATOM      9  C   UNL d   1      25.009 -18.200   0.256  0.00  0.00     0.026 A 
ATOM     10  C   UNL d   1      24.048 -17.649  -0.586  0.00  0.00     0.035 A 
ATOM     11 CL   UNL d   1      22.465 -18.327  -0.637  0.00  0.00    -0.084 Cl
ATOM     12  C   UNL d   1      24.365 -16.553  -1.381  0.00  0.00     0.050 A 
ATOM     13  C   UNL d   1      25.655 -15.999  -1.310  0.00  0.00     0.063 A 
ATOM     14 CL   UNL d   1      25.987 -14.632  -2.317  0.00  0.00    -0.082 Cl
ENDBRANCH   5   7
ENDBRANCH   3   5
BRANCH   1  15
ATOM     15  C   UNL d   1      28.287 -14.261   3.084  0.00  0.00     0.311 C 
ATOM     16  N   UNL d   1      27.387 -13.815   4.049  0.00  0.00    -0.348 N 
ATOM     17  H   UNL d   1      26.410 -13.756   3.770  0.00  0.00     0.163 HD
ATOM     18  O   UNL d   1      29.486 -14.450   3.275  0.00  0.00    -0.262 OA
BRANCH  16  19
ATOM     19  C   UNL d   1      27.740 -13.620   5.467  0.00  0.00     0.084 C 
ATOM     20  C   UNL d   1      28.532 -14.824   6.010  0.00  0.00     0.032 C 
BRANCH  19  21
ATOM     21  C   UNL d   1      28.469 -12.260   5.750  0.00  0.00    -0.000 C 
ATOM     22  C   UNL d   1      28.524 -11.880   7.234  0.00  0.00     0.011 C 
ATOM     23  C   UNL d   1      27.857 -11.071   4.992  0.00  0.00     0.011 C 
ENDBRANCH  19  21
ENDBRANCH  16  19
ENDBRANCH   1  15
TORSDOF 5
ENDMDL
MODEL 7
REMARK VINA RESULT:    -6.439      3.841      8.829
REMARK INTER + INTRA:          -9.649
REMARK INTER:                  -7.930
REMARK INTRA:                  -1.718
REMARK CONF_INDEPENDENT:        1.492
REMARK UNBOUND:                -1.718
REMARK  5 active torsions:
REMARK  status: ('A' for Active; 'I' for Inactive)
REMARK    1  A    between atoms: C_4  and  C_2 
REMARK    2  A    between atoms: C_4  and  N_6 
REMARK       I    between atoms: N_6  and  C_7 
REMARK    3  A    between atoms: C_7  and  C_9 
REMARK       I    between atoms: C_9  and  N_11 
REMARK    4  A    between atoms: N_11  and  N_12 
REMARK    5  A    between atoms: N_12  and  C_13 
ROOT
ATOM      1  C   UNL d   1      26.586 -14.705  -3.294  0.00  0.00     0.327 C 
ATOM      2  O   UNL d   1      26.941 -13.722  -2.639  0.00  0.00    -0.261 OA
ATOM      3  N   UNL d   1      25.946 -15.831  -2.775  0.00  0.00    -0.261 N 
ATOM      4  H   UNL d   1      25.635 -16.582  -3.390  0.00  0.00     0.190 HD
ENDROOT
BRANCH   3   5
ATOM      5  N   UNL d   1      25.629 -15.861  -1.399  0.00  0.00    -0.296 N 
ATOM      6  H   UNL d   1      25.844 -15.010  -0.874  0.00  0.00     0.187 HD
BRANCH   5   7
ATOM      7  C   UNL d   1      24.557 -16.664  -0.945  0.00  0.00     0.070 A 
ATOM      8  C   UNL d   1      23.234 -16.302  -1.236  0.00  0.00     0.034 A 
ATOM      9  C   UNL d   1      22.156 -17.128  -0.886  0.00  0.00     0.026 A 
ATOM     10  C   UNL d   1      22.378 -18.319  -0.200  0.00  0.00     0.035 A 
ATOM     11 CL   UNL d   1      21.045 -19.323   0.225  0.00  0.00    -0.084 Cl
ATOM     12  C   UNL d   1      23.673 -18.696   0.137  0.00  0.00     0.050 A 
ATOM     13  C   UNL d   1      24.752 -17.876  -0.237  0.00  0.00     0.063 A 
ATOM     14 CL   UNL d   1      26.340 -18.402   0.204  0.00  0.00    -0.082 Cl
ENDBRANCH   5   7
ENDBRANCH   3   5
BRANCH   1  15
ATOM     15  C   UNL d   1      26.857 -14.751  -4.825  0.00  0.00     0.311 C 
ATOM     16  N   UNL d   1      27.819 -13.864  -5.304  0.00  0.00    -0.348 N 
ATOM     17  H   UNL d   1      28.262 -13.257  -4.617  0.00  0.00     0.163 HD
ATOM     18  O   UNL d   1      26.277 -15.593  -5.507  0.00  0.00    -0.262 OA
BRANCH  16  19
ATOM     19  C   UNL d   1      28.352 -13.901  -6.678  0.00  0.00     0.084 C 
ATOM     20  C   UNL d   1      28.762 -12.493  -7.150  0.00  0.00     0.032 C 
BRANCH  19  21
ATOM     21  C   UNL d   1      29.505 -14.947  -6.874  0.00  0.00    -0.000 C 
ATOM     22  C   UNL d   1      29.702 -15.889  -5.682  0.00  0.00     0.011 C 
ATOM     23  C   UNL d   1      30.867 -14.302  -7.182  0.00  0.00     0.011 C 
ENDBRANCH  19  21
ENDBRANCH  16  19
ENDBRANCH   1  15
TORSDOF 5
ENDMDL
MODEL 8
REMARK VINA RESULT:    -6.030      9.774     11.229
REMARK INTER + INTRA:          -9.230
REMARK INTER:                  -7.522
REMARK INTRA:                  -1.709
REMARK CONF_INDEPENDENT:        1.492
REMARK UNBOUND:                -1.709
REMARK  5 active torsions:
REMARK  status: ('A' for Active; 'I' for Inactive)
REMARK    1  A    between atoms: C_4  and  C_2 
REMARK    2  A    between atoms: C_4  and  N_6 
REMARK       I    between atoms: N_6  and  C_7 
REMARK    3  A    between atoms: C_7  and  C_9 
REMARK       I    between atoms: C_9  and  N_11 
REMARK    4  A    between atoms: N_11  and  N_12 
REMARK    5  A    between atoms: N_12  and  C_13 
ROOT
ATOM      1  C   UNL d   1      30.418 -22.537   1.095  0.00  0.00     0.327 C 
ATOM      2  O   UNL d   1      29.274 -22.376   1.527  0.00  0.00    -0.261 OA
ATOM      3  N   UNL d   1      31.552 -21.858   1.542  0.00  0.00    -0.261 N 
ATOM      4  H   UNL d   1      32.473 -22.085   1.172  0.00  0.00     0.190 HD
ENDROOT
BRANCH   3   5
ATOM      5  N   UNL d   1      31.418 -20.935   2.603  0.00  0.00    -0.296 N 
ATOM      6  H   UNL d   1      30.516 -20.458   2.667  0.00  0.00     0.187 HD
BRANCH   5   7
ATOM      7  C   UNL d   1      32.147 -21.133   3.798  0.00  0.00     0.070 A 
ATOM      8  C   UNL d   1      33.523 -20.861   3.837  0.00  0.00     0.034 A 
ATOM      9  C   UNL d   1      34.253 -20.952   5.031  0.00  0.00     0.026 A 
ATOM     10  C   UNL d   1      33.628 -21.359   6.206  0.00  0.00     0.035 A 
ATOM     11 CL   UNL d   1      34.538 -21.469   7.665  0.00  0.00    -0.084 Cl
ATOM     12  C   UNL d   1      32.273 -21.671   6.202  0.00  0.00     0.050 A 
ATOM     13  C   UNL d   1      31.541 -21.555   5.007  0.00  0.00     0.063 A 
ATOM     14 CL   UNL d   1      29.858 -21.950   5.067  0.00  0.00    -0.082 Cl
ENDBRANCH   5   7
ENDBRANCH   3   5
BRANCH   1  15
ATOM     15  C   UNL d   1      30.674 -23.560  -0.050  0.00  0.00     0.311 C 
ATOM     16  N   UNL d   1      29.636 -24.450  -0.319  0.00  0.00    -0.348 N 
ATOM     17  H   UNL d   1      28.800 -24.363   0.255  0.00  0.00     0.163 HD
ATOM     18  O   UNL d   1      31.721 -23.487  -0.689  0.00  0.00    -0.262 OA
BRANCH  16  19
ATOM     19  C   UNL d   1      29.614 -25.349  -1.487  0.00  0.00     0.084 C 
ATOM     20  C   UNL d   1      28.903 -26.674  -1.153  0.00  0.00     0.032 C 
BRANCH  19  21
ATOM     21  C   UNL d   1      29.031 -24.679  -2.782  0.00  0.00    -0.000 C 
ATOM     22  C   UNL d   1      28.504 -25.678  -3.817  0.00  0.00     0.011 C 
ATOM     23  C   UNL d   1      30.035 -23.760  -3.497  0.00  0.00     0.011 C 
ENDBRANCH  19  21
ENDBRANCH  16  19
ENDBRANCH   1  15
TORSDOF 5
ENDMDL
MODEL 9
REMARK VINA RESULT:    -5.899      3.864      8.856
REMARK INTER + INTRA:          -9.130
REMARK INTER:                  -7.391
REMARK INTRA:                  -1.739
REMARK CONF_INDEPENDENT:        1.492
REMARK UNBOUND:                -1.739
REMARK  5 active torsions:
REMARK  status: ('A' for Active; 'I' for Inactive)
REMARK    1  A    between atoms: C_4  and  C_2 
REMARK    2  A    between atoms: C_4  and  N_6 
REMARK       I    between atoms: N_6  and  C_7 
REMARK    3  A    between atoms: C_7  and  C_9 
REMARK       I    between atoms: C_9  and  N_11 
REMARK    4  A    between atoms: N_11  and  N_12 
REMARK    5  A    between atoms: N_12  and  C_13 
ROOT
ATOM      1  C   UNL d   1      26.782 -14.555  -2.872  0.00  0.00     0.327 C 
ATOM      2  O   UNL d   1      27.202 -13.700  -2.089  0.00  0.00    -0.261 OA
ATOM      3  N   UNL d   1      26.047 -15.685  -2.514  0.00  0.00    -0.261 N 
ATOM      4  H   UNL d   1      25.689 -16.319  -3.227  0.00  0.00     0.190 HD
ENDROOT
BRANCH   3   5
ATOM      5  N   UNL d   1      25.707 -15.874  -1.156  0.00  0.00    -0.296 N 
ATOM      6  H   UNL d   1      25.944 -15.103  -0.527  0.00  0.00     0.187 HD
BRANCH   5   7
ATOM      7  C   UNL d   1      24.599 -16.686  -0.819  0.00  0.00     0.070 A 
ATOM      8  C   UNL d   1      23.297 -16.261  -1.123  0.00  0.00     0.034 A 
ATOM      9  C   UNL d   1      22.187 -17.086  -0.892  0.00  0.00     0.026 A 
ATOM     10  C   UNL d   1      22.353 -18.341  -0.312  0.00  0.00     0.035 A 
ATOM     11 CL   UNL d   1      20.981 -19.343  -0.032  0.00  0.00    -0.084 Cl
ATOM     12  C   UNL d   1      23.625 -18.784   0.035  0.00  0.00     0.050 A 
ATOM     13  C   UNL d   1      24.737 -17.962  -0.221  0.00  0.00     0.063 A 
ATOM     14 CL   UNL d   1      26.293 -18.571   0.226  0.00  0.00    -0.082 Cl
ENDBRANCH   5   7
ENDBRANCH   3   5
BRANCH   1  15
ATOM     15  C   UNL d   1      27.073 -14.416  -4.395  0.00  0.00     0.311 C 
ATOM     16  N   UNL d   1      27.965 -13.410  -4.759  0.00  0.00    -0.348 N 
ATOM     17  H   UNL d   1      28.349 -12.845  -4.004  0.00  0.00     0.163 HD
ATOM     18  O   UNL d   1      26.572 -15.225  -5.172  0.00  0.00    -0.262 OA
BRANCH  16  19
ATOM     19  C   UNL d   1      28.515 -13.258  -6.118  0.00  0.00     0.084 C 
ATOM     20  C   UNL d   1      28.788 -14.630  -6.761  0.00  0.00     0.032 C 
BRANCH  19  21
ATOM     21  C   UNL d   1      27.648 -12.335  -7.045  0.00  0.00    -0.000 C 
ATOM     22  C   UNL d   1      28.467 -11.502  -8.037  0.00  0.00     0.011 C 
ATOM     23  C   UNL d   1      26.744 -11.366  -6.266  0.00  0.00     0.011 C 
ENDBRANCH  19  21
ENDBRANCH  16  19
ENDBRANCH   1  15
TORSDOF 5
ENDMDL
