MODEL 1
REMARK VINA RESULT:    -8.435      0.000      0.000
REMARK INTER + INTRA:         -12.114
REMARK INTER:                 -10.523
REMARK INTRA:                  -1.591
REMARK CONF_INDEPENDENT:        2.088
REMARK UNBOUND:                -1.591
REMARK  7 active torsions:
REMARK  status: ('A' for Active; 'I' for Inactive)
REMARK    1  A    between atoms: O_2  and  C_3 
REMARK       I    between atoms: C_3  and  N_5 
REMARK    2  A    between atoms: C_6  and  N_5 
REMARK    3  A    between atoms: C_6  and  C_14 
REMARK    4  A    between atoms: C_6  and  C_7 
REMARK    5  A    between atoms: C_7  and  C_8 
REMARK       I    between atoms: C_14  and  N_16 
REMARK    6  A    between atoms: N_16  and  C_17 
REMARK    7  A    between atoms: C_21  and  N_22 
ROOT
ATOM      1  C   UNL d   1      27.686 -15.238  -1.114  0.00  0.00     0.245 C 
ATOM      2  O   UNL d   1      28.793 -14.787  -1.523  0.00  0.00    -0.271 OA
ATOM      3  N   UNL d   1      27.329 -15.251   0.236  0.00  0.00    -0.325 N 
ATOM      4  H   UNL d   1      26.497 -15.774   0.511  0.00  0.00     0.169 HD
ENDROOT
BRANCH   1   5
ATOM      5  C   UNL d   1      26.656 -15.801  -2.113  0.00  0.00     0.183 C 
BRANCH   5   6
ATOM      6  C   UNL d   1      25.020 -15.479  -1.713  0.00  0.00     0.073 C 
BRANCH   6   7
ATOM      7  C   UNL d   1      24.079 -16.474  -0.884  0.00  0.00    -0.056 C 
ATOM      8  C   UNL d   1      24.622 -17.716  -0.611  0.00  0.00     0.007 C 
ATOM      9  C   UNL d   1      24.023 -19.001  -0.497  0.00  0.00     0.001 C 
ATOM     10  C   UNL d   1      22.655 -19.039  -0.509  0.00  0.00     0.000 C 
ATOM     11  C   UNL d   1      21.999 -17.793  -0.638  0.00  0.00     0.001 C 
ATOM     12  C   UNL d   1      22.693 -16.520  -0.822  0.00  0.00     0.007 C 
ENDBRANCH   6   7
ENDBRANCH   5   6
BRANCH   5  13
ATOM     13  N   UNL d   1      27.272 -15.429  -3.443  0.00  0.00    -0.323 N 
ATOM     14  C   UNL d   1      26.572 -15.236  -4.657  0.00  0.00     0.360 C 
ATOM     15  O   UNL d   1      27.189 -15.557  -5.717  0.00  0.00    -0.239 OA
ATOM     16  H   UNL d   1      28.270 -15.611  -3.541  0.00  0.00     0.165 HD
BRANCH  14  17
ATOM     17  O   UNL d   1      25.220 -14.952  -4.541  0.00  0.00    -0.309 OA
ATOM     18  C   UNL d   1      24.415 -13.696  -4.268  0.00  0.00     0.215 C 
ENDBRANCH  14  17
ENDBRANCH   5  13
ENDBRANCH   1   5
BRANCH   3  19
ATOM     19  C   UNL d   1      28.206 -14.831   1.271  0.00  0.00     0.038 A 
ATOM     20  C   UNL d   1      29.590 -14.829   1.094  0.00  0.00     0.055 A 
ATOM     21  C   UNL d   1      30.437 -14.475   2.162  0.00  0.00     0.059 A 
ATOM     22 CL   UNL d   1      32.149 -14.650   1.943  0.00  0.00    -0.082 Cl
ATOM     23  C   UNL d   1      29.929 -14.028   3.398  0.00  0.00     0.050 A 
ATOM     24  C   UNL d   1      28.537 -14.091   3.564  0.00  0.00     0.059 A 
ATOM     25 CL   UNL d   1      27.810 -13.740   5.097  0.00  0.00    -0.082 Cl
ATOM     26  C   UNL d   1      27.689 -14.466   2.517  0.00  0.00     0.055 A 
BRANCH  23  27
ATOM     27  N   UNL d   1      30.779 -13.756   4.492  0.00  0.00    -0.300 NA
ATOM     28  H   UNL d   1      30.787 -14.469   5.218  0.00  0.00     0.124 HD
ATOM     29  H   UNL d   1      31.700 -13.406   4.238  0.00  0.00     0.124 HD
ENDBRANCH  23  27
ENDBRANCH   3  19
TORSDOF 7
ENDMDL
MODEL 2
REMARK VINA RESULT:    -8.399      0.313      1.824
REMARK INTER + INTRA:         -11.954
REMARK INTER:                 -10.487
REMARK INTRA:                  -1.467
REMARK CONF_INDEPENDENT:        2.088
REMARK UNBOUND:                -1.467
REMARK  7 active torsions:
REMARK  status: ('A' for Active; 'I' for Inactive)
REMARK    1  A    between atoms: O_2  and  C_3 
REMARK       I    between atoms: C_3  and  N_5 
REMARK    2  A    between atoms: C_6  and  N_5 
REMARK    3  A    between atoms: C_6  and  C_14 
REMARK    4  A    between atoms: C_6  and  C_7 
REMARK    5  A    between atoms: C_7  and  C_8 
REMARK       I    between atoms: C_14  and  N_16 
REMARK    6  A    between atoms: N_16  and  C_17 
REMARK    7  A    between atoms: C_21  and  N_22 
ROOT
ATOM      1  C   UNL d   1      27.754 -15.607  -1.136  0.00  0.00     0.245 C 
ATOM      2  O   UNL d   1      28.973 -15.747  -1.436  0.00  0.00    -0.271 OA
ATOM      3  N   UNL d   1      27.334 -15.156   0.118  0.00  0.00    -0.325 N 
ATOM      4  H   UNL d   1      26.341 -15.222   0.346  0.00  0.00     0.169 HD
ENDROOT
BRANCH   1   5
ATOM      5  C   UNL d   1      26.654 -15.929  -2.166  0.00  0.00     0.183 C 
BRANCH   5   6
ATOM      6  C   UNL d   1      25.070 -15.484  -1.685  0.00  0.00     0.073 C 
BRANCH   6   7
ATOM      7  C   UNL d   1      24.067 -16.437  -0.880  0.00  0.00    -0.056 C 
ATOM      8  C   UNL d   1      24.570 -17.679  -0.544  0.00  0.00     0.007 C 
ATOM      9  C   UNL d   1      23.942 -18.950  -0.426  0.00  0.00     0.001 C 
ATOM     10  C   UNL d   1      22.575 -18.964  -0.510  0.00  0.00     0.000 C 
ATOM     11  C   UNL d   1      21.952 -17.711  -0.710  0.00  0.00     0.001 C 
ATOM     12  C   UNL d   1      22.679 -16.457  -0.892  0.00  0.00     0.007 C 
ENDBRANCH   6   7
ENDBRANCH   5   6
BRANCH   5  13
ATOM     13  N   UNL d   1      27.289 -15.467  -3.459  0.00  0.00    -0.323 N 
ATOM     14  C   UNL d   1      26.607 -15.190  -4.666  0.00  0.00     0.360 C 
ATOM     15  O   UNL d   1      27.238 -15.438  -5.736  0.00  0.00    -0.239 OA
ATOM     16  H   UNL d   1      28.289 -15.642  -3.554  0.00  0.00     0.165 HD
BRANCH  14  17
ATOM     17  O   UNL d   1      25.252 -14.915  -4.550  0.00  0.00    -0.309 OA
ATOM     18  C   UNL d   1      24.445 -13.701  -4.134  0.00  0.00     0.215 C 
ENDBRANCH  14  17
ENDBRANCH   5  13
ENDBRANCH   1   5
BRANCH   3  19
ATOM     19  C   UNL d   1      28.232 -14.890   1.185  0.00  0.00     0.038 A 
ATOM     20  C   UNL d   1      27.779 -14.751   2.498  0.00  0.00     0.055 A 
ATOM     21  C   UNL d   1      28.685 -14.417   3.524  0.00  0.00     0.059 A 
ATOM     22 CL   UNL d   1      28.048 -14.092   5.104  0.00  0.00    -0.082 Cl
ATOM     23  C   UNL d   1      30.070 -14.304   3.287  0.00  0.00     0.050 A 
ATOM     24  C   UNL d   1      30.487 -14.396   1.950  0.00  0.00     0.059 A 
ATOM     25 CL   UNL d   1      32.137 -14.095   1.514  0.00  0.00    -0.082 Cl
ATOM     26  C   UNL d   1      29.591 -14.702   0.921  0.00  0.00     0.055 A 
BRANCH  23  27
ATOM     27  N   UNL d   1      30.960 -13.886   4.299  0.00  0.00    -0.300 NA
ATOM     28  H   UNL d   1      30.912 -14.422   5.163  0.00  0.00     0.124 HD
ATOM     29  H   UNL d   1      31.907 -13.691   3.979  0.00  0.00     0.124 HD
ENDBRANCH  23  27
ENDBRANCH   3  19
TORSDOF 7
ENDMDL
MODEL 3
REMARK VINA RESULT:    -8.029      2.062      2.668
REMARK INTER + INTRA:         -11.474
REMARK INTER:                 -10.117
REMARK INTRA:                  -1.357
REMARK CONF_INDEPENDENT:        2.088
REMARK UNBOUND:                -1.357
REMARK  7 active torsions:
REMARK  status: ('A' for Active; 'I' for Inactive)
REMARK    1  A    between atoms: O_2  and  C_3 
REMARK       I    between atoms: C_3  and  N_5 
REMARK    2  A    between atoms: C_6  and  N_5 
REMARK    3  A    between atoms: C_6  and  C_14 
REMARK    4  A    between atoms: C_6  and  C_7 
REMARK    5  A    between atoms: C_7  and  C_8 
REMARK       I    between atoms: C_14  and  N_16 
REMARK    6  A    between atoms: N_16  and  C_17 
REMARK    7  A    between atoms: C_21  and  N_22 
ROOT
ATOM      1  C   UNL d   1      27.352 -15.310   0.535  0.00  0.00     0.245 C 
ATOM      2  O   UNL d   1      26.428 -14.491   0.266  0.00  0.00    -0.271 OA
ATOM      3  N   UNL d   1      28.153 -15.196   1.674  0.00  0.00    -0.325 N 
ATOM      4  H   UNL d   1      28.979 -15.792   1.744  0.00  0.00     0.169 HD
ENDROOT
BRANCH   1   5
ATOM      5  C   UNL d   1      27.636 -16.500  -0.402  0.00  0.00     0.183 C 
BRANCH   5   6
ATOM      6  C   UNL d   1      26.431 -17.720  -0.398  0.00  0.00     0.073 C 
BRANCH   6   7
ATOM      7  C   UNL d   1      24.871 -17.449  -0.162  0.00  0.00    -0.056 C 
ATOM      8  C   UNL d   1      24.080 -18.579  -0.071  0.00  0.00     0.007 C 
ATOM      9  C   UNL d   1      22.736 -18.821  -0.470  0.00  0.00     0.001 C 
ATOM     10  C   UNL d   1      22.018 -17.733  -0.888  0.00  0.00     0.000 C 
ATOM     11  C   UNL d   1      22.702 -16.495  -0.878  0.00  0.00     0.001 C 
ATOM     12  C   UNL d   1      24.111 -16.344  -0.520  0.00  0.00     0.007 C 
ENDBRANCH   6   7
ENDBRANCH   5   6
BRANCH   5  13
ATOM     13  N   UNL d   1      28.107 -15.804  -1.660  0.00  0.00    -0.323 N 
ATOM     14  C   UNL d   1      27.287 -15.386  -2.734  0.00  0.00     0.360 C 
ATOM     15  O   UNL d   1      27.811 -15.425  -3.887  0.00  0.00    -0.239 OA
ATOM     16  H   UNL d   1      29.098 -15.900  -1.881  0.00  0.00     0.165 HD
BRANCH  14  17
ATOM     17  O   UNL d   1      25.942 -15.216  -2.441  0.00  0.00    -0.309 OA
ATOM     18  C   UNL d   1      24.805 -14.439  -3.076  0.00  0.00     0.215 C 
ENDBRANCH  14  17
ENDBRANCH   5  13
ENDBRANCH   1   5
BRANCH   3  19
ATOM     19  C   UNL d   1      28.050 -14.113   2.586  0.00  0.00     0.038 A 
ATOM     20  C   UNL d   1      28.414 -14.255   3.926  0.00  0.00     0.055 A 
ATOM     21  C   UNL d   1      28.233 -13.184   4.822  0.00  0.00     0.059 A 
ATOM     22 CL   UNL d   1      28.543 -13.464   6.506  0.00  0.00    -0.082 Cl
ATOM     23  C   UNL d   1      27.776 -11.922   4.393  0.00  0.00     0.050 A 
ATOM     24  C   UNL d   1      27.369 -11.826   3.053  0.00  0.00     0.059 A 
ATOM     25 CL   UNL d   1      26.622 -10.381   2.455  0.00  0.00    -0.082 Cl
ATOM     26  C   UNL d   1      27.520 -12.893   2.161  0.00  0.00     0.055 A 
BRANCH  23  27
ATOM     27  N   UNL d   1      27.517 -10.879   5.307  0.00  0.00    -0.300 NA
ATOM     28  H   UNL d   1      26.695 -10.317   5.097  0.00  0.00     0.124 HD
ATOM     29  H   UNL d   1      27.607 -11.140   6.287  0.00  0.00     0.124 HD
ENDBRANCH  23  27
ENDBRANCH   3  19
TORSDOF 7
ENDMDL
MODEL 4
REMARK VINA RESULT:    -8.017      2.041      2.571
REMARK INTER + INTRA:         -11.517
REMARK INTER:                 -10.105
REMARK INTRA:                  -1.412
REMARK CONF_INDEPENDENT:        2.088
REMARK UNBOUND:                -1.412
REMARK  7 active torsions:
REMARK  status: ('A' for Active; 'I' for Inactive)
REMARK    1  A    between atoms: O_2  and  C_3 
REMARK       I    between atoms: C_3  and  N_5 
REMARK    2  A    between atoms: C_6  and  N_5 
REMARK    3  A    between atoms: C_6  and  C_14 
REMARK    4  A    between atoms: C_6  and  C_7 
REMARK    5  A    between atoms: C_7  and  C_8 
REMARK       I    between atoms: C_14  and  N_16 
REMARK    6  A    between atoms: N_16  and  C_17 
REMARK    7  A    between atoms: C_21  and  N_22 
ROOT
ATOM      1  C   UNL d   1      27.188 -15.499   0.555  0.00  0.00     0.245 C 
ATOM      2  O   UNL d   1      26.212 -14.724   0.346  0.00  0.00    -0.271 OA
ATOM      3  N   UNL d   1      28.031 -15.368   1.661  0.00  0.00    -0.325 N 
ATOM      4  H   UNL d   1      28.889 -15.920   1.681  0.00  0.00     0.169 HD
ENDROOT
BRANCH   1   5
ATOM      5  C   UNL d   1      27.493 -16.650  -0.423  0.00  0.00     0.183 C 
BRANCH   5   6
ATOM      6  C   UNL d   1      26.272 -17.850  -0.520  0.00  0.00     0.073 C 
BRANCH   6   7
ATOM      7  C   UNL d   1      24.720 -17.588  -0.226  0.00  0.00    -0.056 C 
ATOM      8  C   UNL d   1      23.930 -18.720  -0.152  0.00  0.00     0.007 C 
ATOM      9  C   UNL d   1      22.575 -18.948  -0.517  0.00  0.00     0.001 C 
ATOM     10  C   UNL d   1      21.845 -17.845  -0.873  0.00  0.00     0.000 C 
ATOM     11  C   UNL d   1      22.532 -16.609  -0.840  0.00  0.00     0.001 C 
ATOM     12  C   UNL d   1      23.951 -16.471  -0.520  0.00  0.00     0.007 C 
ENDBRANCH   6   7
ENDBRANCH   5   6
BRANCH   5  13
ATOM     13  N   UNL d   1      28.022 -15.907  -1.629  0.00  0.00    -0.323 N 
ATOM     14  C   UNL d   1      27.271 -15.530  -2.767  0.00  0.00     0.360 C 
ATOM     15  O   UNL d   1      27.894 -15.518  -3.870  0.00  0.00    -0.239 OA
ATOM     16  H   UNL d   1      29.032 -15.933  -1.764  0.00  0.00     0.165 HD
BRANCH  14  17
ATOM     17  O   UNL d   1      25.898 -15.456  -2.592  0.00  0.00    -0.309 OA
ATOM     18  C   UNL d   1      24.828 -14.455  -2.983  0.00  0.00     0.215 C 
ENDBRANCH  14  17
ENDBRANCH   5  13
ENDBRANCH   1   5
BRANCH   3  19
ATOM     19  C   UNL d   1      27.912 -14.313   2.603  0.00  0.00     0.038 A 
ATOM     20  C   UNL d   1      27.447 -13.052   2.226  0.00  0.00     0.055 A 
ATOM     21  C   UNL d   1      27.408 -12.005   3.168  0.00  0.00     0.059 A 
ATOM     22 CL   UNL d   1      26.982 -10.419   2.611  0.00  0.00    -0.082 Cl
ATOM     23  C   UNL d   1      27.741 -12.209   4.522  0.00  0.00     0.050 A 
ATOM     24  C   UNL d   1      28.255 -13.471   4.859  0.00  0.00     0.059 A 
ATOM     25 CL   UNL d   1      28.866 -13.783   6.450  0.00  0.00    -0.082 Cl
ATOM     26  C   UNL d   1      28.322 -14.509   3.924  0.00  0.00     0.055 A 
BRANCH  23  27
ATOM     27  N   UNL d   1      27.782 -11.139   5.442  0.00  0.00    -0.300 NA
ATOM     28  H   UNL d   1      26.891 -10.673   5.599  0.00  0.00     0.124 HD
ATOM     29  H   UNL d   1      28.312 -11.327   6.290  0.00  0.00     0.124 HD
ENDBRANCH  23  27
ENDBRANCH   3  19
TORSDOF 7
ENDMDL
MODEL 5
REMARK VINA RESULT:    -7.592      2.096      2.753
REMARK INTER + INTRA:         -11.309
REMARK INTER:                  -9.680
REMARK INTRA:                  -1.630
REMARK CONF_INDEPENDENT:        2.088
REMARK UNBOUND:                -1.630
REMARK  7 active torsions:
REMARK  status: ('A' for Active; 'I' for Inactive)
REMARK    1  A    between atoms: O_2  and  C_3 
REMARK       I    between atoms: C_3  and  N_5 
REMARK    2  A    between atoms: C_6  and  N_5 
REMARK    3  A    between atoms: C_6  and  C_14 
REMARK    4  A    between atoms: C_6  and  C_7 
REMARK    5  A    between atoms: C_7  and  C_8 
REMARK       I    between atoms: C_14  and  N_16 
REMARK    6  A    between atoms: N_16  and  C_17 
REMARK    7  A    between atoms: C_21  and  N_22 
ROOT
ATOM      1  C   UNL d   1      26.578 -14.107  -0.802  0.00  0.00     0.245 C 
ATOM      2  O   UNL d   1      26.271 -12.922  -1.117  0.00  0.00    -0.271 OA
ATOM      3  N   UNL d   1      26.980 -14.465   0.487  0.00  0.00    -0.325 N 
ATOM      4  H   UNL d   1      27.368 -15.398   0.630  0.00  0.00     0.169 HD
ENDROOT
BRANCH   1   5
ATOM      5  C   UNL d   1      26.516 -15.234  -1.852  0.00  0.00     0.183 C 
BRANCH   5   6
ATOM      6  C   UNL d   1      26.107 -16.776  -1.224  0.00  0.00     0.073 C 
BRANCH   6   7
ATOM      7  C   UNL d   1      24.669 -17.160  -0.634  0.00  0.00    -0.056 C 
ATOM      8  C   UNL d   1      24.457 -18.509  -0.420  0.00  0.00     0.007 C 
ATOM      9  C   UNL d   1      23.282 -19.304  -0.520  0.00  0.00     0.001 C 
ATOM     10  C   UNL d   1      22.105 -18.633  -0.718  0.00  0.00     0.000 C 
ATOM     11  C   UNL d   1      22.201 -17.224  -0.805  0.00  0.00     0.001 C 
ATOM     12  C   UNL d   1      23.462 -16.487  -0.763  0.00  0.00     0.007 C 
ENDBRANCH   6   7
ENDBRANCH   5   6
BRANCH   5  13
ATOM     13  N   UNL d   1      25.759 -14.571  -2.981  0.00  0.00    -0.323 N 
ATOM     14  C   UNL d   1      26.146 -14.551  -4.341  0.00  0.00     0.360 C 
ATOM     15  O   UNL d   1      25.827 -13.516  -4.998  0.00  0.00    -0.239 OA
ATOM     16  H   UNL d   1      25.087 -13.854  -2.709  0.00  0.00     0.165 HD
BRANCH  14  17
ATOM     17  O   UNL d   1      27.032 -15.541  -4.735  0.00  0.00    -0.309 OA
ATOM     18  C   UNL d   1      28.530 -15.598  -4.968  0.00  0.00     0.215 C 
ENDBRANCH  14  17
ENDBRANCH   5  13
ENDBRANCH   1   5
BRANCH   3  19
ATOM     19  C   UNL d   1      27.151 -13.520   1.533  0.00  0.00     0.038 A 
ATOM     20  C   UNL d   1      27.612 -13.907   2.793  0.00  0.00     0.055 A 
ATOM     21  C   UNL d   1      27.702 -12.960   3.831  0.00  0.00     0.059 A 
ATOM     22 CL   UNL d   1      28.120 -13.523   5.418  0.00  0.00    -0.082 Cl
ATOM     23  C   UNL d   1      27.427 -11.594   3.620  0.00  0.00     0.050 A 
ATOM     24  C   UNL d   1      26.916 -11.245   2.360  0.00  0.00     0.059 A 
ATOM     25 CL   UNL d   1      26.371  -9.632   2.041  0.00  0.00    -0.082 Cl
ATOM     26  C   UNL d   1      26.797 -12.185   1.331  0.00  0.00     0.055 A 
BRANCH  23  27
ATOM     27  N   UNL d   1      27.437 -10.666   4.682  0.00  0.00    -0.300 NA
ATOM     28  H   UNL d   1      26.656 -10.743   5.330  0.00  0.00     0.124 HD
ATOM     29  H   UNL d   1      28.343 -10.542   5.131  0.00  0.00     0.124 HD
ENDBRANCH  23  27
ENDBRANCH   3  19
TORSDOF 7
ENDMDL
MODEL 6
REMARK VINA RESULT:    -7.398      4.688      6.731
REMARK INTER + INTRA:         -11.506
REMARK INTER:                  -9.486
REMARK INTRA:                  -2.020
REMARK CONF_INDEPENDENT:        2.088
REMARK UNBOUND:                -2.020
REMARK  7 active torsions:
REMARK  status: ('A' for Active; 'I' for Inactive)
REMARK    1  A    between atoms: O_2  and  C_3 
REMARK       I    between atoms: C_3  and  N_5 
REMARK    2  A    between atoms: C_6  and  N_5 
REMARK    3  A    between atoms: C_6  and  C_14 
REMARK    4  A    between atoms: C_6  and  C_7 
REMARK    5  A    between atoms: C_7  and  C_8 
REMARK       I    between atoms: C_14  and  N_16 
REMARK    6  A    between atoms: N_16  and  C_17 
REMARK    7  A    between atoms: C_21  and  N_22 
ROOT
ATOM      1  C   UNL d   1      26.495 -14.710  -4.823  0.00  0.00     0.245 C 
ATOM      2  O   UNL d   1      26.238 -15.619  -5.662  0.00  0.00    -0.271 OA
ATOM      3  N   UNL d   1      27.732 -14.064  -4.765  0.00  0.00    -0.325 N 
ATOM      4  H   UNL d   1      27.925 -13.460  -3.965  0.00  0.00     0.169 HD
ENDROOT
BRANCH   1   5
ATOM      5  C   UNL d   1      25.426 -14.261  -3.807  0.00  0.00     0.183 C 
BRANCH   5   6
ATOM      6  C   UNL d   1      25.681 -14.820  -2.205  0.00  0.00     0.073 C 
BRANCH   6   7
ATOM      7  C   UNL d   1      25.369 -16.309  -1.707  0.00  0.00    -0.056 C 
ATOM      8  C   UNL d   1      24.030 -16.645  -1.642  0.00  0.00     0.007 C 
ATOM      9  C   UNL d   1      23.316 -17.500  -0.757  0.00  0.00     0.001 C 
ATOM     10  C   UNL d   1      24.068 -18.253   0.103  0.00  0.00     0.000 C 
ATOM     11  C   UNL d   1      25.470 -18.086   0.013  0.00  0.00     0.001 C 
ATOM     12  C   UNL d   1      26.122 -17.130  -0.879  0.00  0.00     0.007 C 
ENDBRANCH   6   7
ENDBRANCH   5   6
BRANCH   5  13
ATOM     13  N   UNL d   1      25.252 -12.800  -4.156  0.00  0.00    -0.323 N 
ATOM     14  C   UNL d   1      25.907 -11.713  -3.532  0.00  0.00     0.360 C 
ATOM     15  O   UNL d   1      25.252 -10.631  -3.460  0.00  0.00    -0.239 OA
ATOM     16  H   UNL d   1      24.405 -12.560  -4.671  0.00  0.00     0.165 HD
BRANCH  14  17
ATOM     17  O   UNL d   1      27.081 -12.017  -2.859  0.00  0.00    -0.309 OA
ATOM     18  C   UNL d   1      27.575 -11.818  -1.438  0.00  0.00     0.215 C 
ENDBRANCH  14  17
ENDBRANCH   5  13
ENDBRANCH   1   5
BRANCH   3  19
ATOM     19  C   UNL d   1      28.830 -14.423  -5.591  0.00  0.00     0.038 A 
ATOM     20  C   UNL d   1      29.433 -13.495  -6.442  0.00  0.00     0.055 A 
ATOM     21  C   UNL d   1      30.473 -13.899  -7.301  0.00  0.00     0.059 A 
ATOM     22 CL   UNL d   1      31.073 -12.752  -8.455  0.00  0.00    -0.082 Cl
ATOM     23  C   UNL d   1      31.000 -15.206  -7.270  0.00  0.00     0.050 A 
ATOM     24  C   UNL d   1      30.339 -16.129  -6.444  0.00  0.00     0.059 A 
ATOM     25 CL   UNL d   1      30.780 -17.804  -6.457  0.00  0.00    -0.082 Cl
ATOM     26  C   UNL d   1      29.288 -15.742  -5.606  0.00  0.00     0.055 A 
BRANCH  23  27
ATOM     27  N   UNL d   1      31.983 -15.628  -8.190  0.00  0.00    -0.300 NA
ATOM     28  H   UNL d   1      31.816 -15.353  -9.155  0.00  0.00     0.124 HD
ATOM     29  H   UNL d   1      32.943 -15.499  -7.877  0.00  0.00     0.124 HD
ENDBRANCH  23  27
ENDBRANCH   3  19
TORSDOF 7
ENDMDL
MODEL 7
REMARK VINA RESULT:    -7.328      4.540      6.670
REMARK INTER + INTRA:         -11.458
REMARK INTER:                  -9.416
REMARK INTRA:                  -2.043
REMARK CONF_INDEPENDENT:        2.088
REMARK UNBOUND:                -2.043
REMARK  7 active torsions:
REMARK  status: ('A' for Active; 'I' for Inactive)
REMARK    1  A    between atoms: O_2  and  C_3 
REMARK       I    between atoms: C_3  and  N_5 
REMARK    2  A    between atoms: C_6  and  N_5 
REMARK    3  A    between atoms: C_6  and  C_14 
REMARK    4  A    between atoms: C_6  and  C_7 
REMARK    5  A    between atoms: C_7  and  C_8 
REMARK       I    between atoms: C_14  and  N_16 
REMARK    6  A    between atoms: N_16  and  C_17 
REMARK    7  A    between atoms: C_21  and  N_22 
ROOT
ATOM      1  C   UNL d   1      26.330 -14.815  -4.650  0.00  0.00     0.245 C 
ATOM      2  O   UNL d   1      26.009 -15.756  -5.430  0.00  0.00    -0.271 OA
ATOM      3  N   UNL d   1      27.584 -14.199  -4.688  0.00  0.00    -0.325 N 
ATOM      4  H   UNL d   1      27.832 -13.564  -3.929  0.00  0.00     0.169 HD
ENDROOT
BRANCH   1   5
ATOM      5  C   UNL d   1      25.327 -14.292  -3.603  0.00  0.00     0.183 C 
BRANCH   5   6
ATOM      6  C   UNL d   1      25.577 -14.885  -2.014  0.00  0.00     0.073 C 
BRANCH   6   7
ATOM      7  C   UNL d   1      25.337 -16.403  -1.565  0.00  0.00    -0.056 C 
ATOM      8  C   UNL d   1      24.031 -16.846  -1.645  0.00  0.00     0.007 C 
ATOM      9  C   UNL d   1      23.300 -17.771  -0.849  0.00  0.00     0.001 C 
ATOM     10  C   UNL d   1      24.018 -18.478   0.078  0.00  0.00     0.000 C 
ATOM     11  C   UNL d   1      25.403 -18.198   0.137  0.00  0.00     0.001 C 
ATOM     12  C   UNL d   1      26.065 -17.176  -0.672  0.00  0.00     0.007 C 
ENDBRANCH   6   7
ENDBRANCH   5   6
BRANCH   5  13
ATOM     13  N   UNL d   1      25.262 -12.819  -3.938  0.00  0.00    -0.323 N 
ATOM     14  C   UNL d   1      26.052 -11.800  -3.358  0.00  0.00     0.360 C 
ATOM     15  O   UNL d   1      25.503 -10.664  -3.240  0.00  0.00    -0.239 OA
ATOM     16  H   UNL d   1      24.406 -12.500  -4.393  0.00  0.00     0.165 HD
BRANCH  14  17
ATOM     17  O   UNL d   1      27.236 -12.212  -2.766  0.00  0.00    -0.309 OA
ATOM     18  C   UNL d   1      27.745 -12.281  -1.339  0.00  0.00     0.215 C 
ENDBRANCH  14  17
ENDBRANCH   5  13
ENDBRANCH   1   5
BRANCH   3  19
ATOM     19  C   UNL d   1      28.628 -14.624  -5.551  0.00  0.00     0.038 A 
ATOM     20  C   UNL d   1      29.136 -15.922  -5.490  0.00  0.00     0.055 A 
ATOM     21  C   UNL d   1      30.221 -16.293  -6.309  0.00  0.00     0.059 A 
ATOM     22 CL   UNL d   1      30.922 -17.863  -6.078  0.00  0.00    -0.082 Cl
ATOM     23  C   UNL d   1      30.764 -15.415  -7.268  0.00  0.00     0.050 A 
ATOM     24  C   UNL d   1      30.269 -14.102  -7.268  0.00  0.00     0.059 A 
ATOM     25 CL   UNL d   1      30.981 -12.886  -8.276  0.00  0.00    -0.082 Cl
ATOM     26  C   UNL d   1      29.209 -13.718  -6.440  0.00  0.00     0.055 A 
BRANCH  23  27
ATOM     27  N   UNL d   1      31.903 -15.762  -8.026  0.00  0.00    -0.300 NA
ATOM     28  H   UNL d   1      31.830 -15.574  -9.023  0.00  0.00     0.124 HD
ATOM     29  H   UNL d   1      32.791 -15.484  -7.611  0.00  0.00     0.124 HD
ENDBRANCH  23  27
ENDBRANCH   3  19
TORSDOF 7
ENDMDL
MODEL 8
REMARK VINA RESULT:    -7.184      2.759      3.800
REMARK INTER + INTRA:         -11.233
REMARK INTER:                  -9.272
REMARK INTRA:                  -1.961
REMARK CONF_INDEPENDENT:        2.088
REMARK UNBOUND:                -1.961
REMARK  7 active torsions:
REMARK  status: ('A' for Active; 'I' for Inactive)
REMARK    1  A    between atoms: O_2  and  C_3 
REMARK       I    between atoms: C_3  and  N_5 
REMARK    2  A    between atoms: C_6  and  N_5 
REMARK    3  A    between atoms: C_6  and  C_14 
REMARK    4  A    between atoms: C_6  and  C_7 
REMARK    5  A    between atoms: C_7  and  C_8 
REMARK       I    between atoms: C_14  and  N_16 
REMARK    6  A    between atoms: N_16  and  C_17 
REMARK    7  A    between atoms: C_21  and  N_22 
ROOT
ATOM      1  C   UNL d   1      27.397 -15.281   0.651  0.00  0.00     0.245 C 
ATOM      2  O   UNL d   1      26.385 -14.548   0.467  0.00  0.00    -0.271 OA
ATOM      3  N   UNL d   1      28.232 -15.150   1.764  0.00  0.00    -0.325 N 
ATOM      4  H   UNL d   1      29.116 -15.660   1.767  0.00  0.00     0.169 HD
ENDROOT
BRANCH   1   5
ATOM      5  C   UNL d   1      27.760 -16.380  -0.367  0.00  0.00     0.183 C 
BRANCH   5   6
ATOM      6  C   UNL d   1      26.414 -17.155  -1.094  0.00  0.00     0.073 C 
BRANCH   6   7
ATOM      7  C   UNL d   1      24.953 -17.231  -0.443  0.00  0.00    -0.056 C 
ATOM      8  C   UNL d   1      24.480 -18.505  -0.193  0.00  0.00     0.007 C 
ATOM      9  C   UNL d   1      23.165 -19.045  -0.232  0.00  0.00     0.001 C 
ATOM     10  C   UNL d   1      22.142 -18.150  -0.400  0.00  0.00     0.000 C 
ATOM     11  C   UNL d   1      22.519 -16.792  -0.521  0.00  0.00     0.001 C 
ATOM     12  C   UNL d   1      23.904 -16.327  -0.542  0.00  0.00     0.007 C 
ENDBRANCH   6   7
ENDBRANCH   5   6
BRANCH   5  13
ATOM     13  N   UNL d   1      28.865 -15.721  -1.162  0.00  0.00    -0.323 N 
ATOM     14  C   UNL d   1      30.139 -15.357  -0.668  0.00  0.00     0.360 C 
ATOM     15  O   UNL d   1      30.665 -14.325  -1.181  0.00  0.00    -0.239 OA
ATOM     16  H   UNL d   1      28.580 -15.249  -2.020  0.00  0.00     0.165 HD
BRANCH  14  17
ATOM     17  O   UNL d   1      30.557 -16.015   0.479  0.00  0.00    -0.309 OA
ATOM     18  C   UNL d   1      31.755 -16.875   0.835  0.00  0.00     0.215 C 
ENDBRANCH  14  17
ENDBRANCH   5  13
ENDBRANCH   1   5
BRANCH   3  19
ATOM     19  C   UNL d   1      28.060 -14.137   2.744  0.00  0.00     0.038 A 
ATOM     20  C   UNL d   1      27.573 -12.874   2.404  0.00  0.00     0.055 A 
ATOM     21  C   UNL d   1      27.481 -11.867   3.385  0.00  0.00     0.059 A 
ATOM     22 CL   UNL d   1      27.029 -10.271   2.879  0.00  0.00    -0.082 Cl
ATOM     23  C   UNL d   1      27.782 -12.116   4.739  0.00  0.00     0.050 A 
ATOM     24  C   UNL d   1      28.319 -13.378   5.039  0.00  0.00     0.059 A 
ATOM     25 CL   UNL d   1      28.895 -13.739   6.633  0.00  0.00    -0.082 Cl
ATOM     26  C   UNL d   1      28.439 -14.376   4.066  0.00  0.00     0.055 A 
BRANCH  23  27
ATOM     27  N   UNL d   1      27.770 -11.084   5.701  0.00  0.00    -0.300 NA
ATOM     28  H   UNL d   1      28.044 -10.168   5.352  0.00  0.00     0.124 HD
ATOM     29  H   UNL d   1      26.950 -11.075   6.305  0.00  0.00     0.124 HD
ENDBRANCH  23  27
ENDBRANCH   3  19
TORSDOF 7
ENDMDL
MODEL 9
REMARK VINA RESULT:    -6.810      3.843      5.586
REMARK INTER + INTRA:         -11.247
REMARK INTER:                  -8.898
REMARK INTRA:                  -2.349
REMARK CONF_INDEPENDENT:        2.088
REMARK UNBOUND:                -2.349
REMARK  7 active torsions:
REMARK  status: ('A' for Active; 'I' for Inactive)
REMARK    1  A    between atoms: O_2  and  C_3 
REMARK       I    between atoms: C_3  and  N_5 
REMARK    2  A    between atoms: C_6  and  N_5 
REMARK    3  A    between atoms: C_6  and  C_14 
REMARK    4  A    between atoms: C_6  and  C_7 
REMARK    5  A    between atoms: C_7  and  C_8 
REMARK       I    between atoms: C_14  and  N_16 
REMARK    6  A    between atoms: N_16  and  C_17 
REMARK    7  A    between atoms: C_21  and  N_22 
ROOT
ATOM      1  C   UNL d   1      26.344 -15.014  -4.530  0.00  0.00     0.245 C 
ATOM      2  O   UNL d   1      26.332 -15.575  -5.662  0.00  0.00    -0.271 OA
ATOM      3  N   UNL d   1      27.472 -15.004  -3.705  0.00  0.00    -0.325 N 
ATOM      4  H   UNL d   1      27.364 -14.678  -2.744  0.00  0.00     0.169 HD
ENDROOT
BRANCH   1   5
ATOM      5  C   UNL d   1      25.087 -14.297  -4.001  0.00  0.00     0.183 C 
BRANCH   5   6
ATOM      6  C   UNL d   1      24.556 -14.826  -2.458  0.00  0.00     0.073 C 
BRANCH   6   7
ATOM      7  C   UNL d   1      24.899 -16.256  -1.825  0.00  0.00    -0.056 C 
ATOM      8  C   UNL d   1      23.828 -16.931  -1.269  0.00  0.00     0.007 C 
ATOM      9  C   UNL d   1      23.747 -17.811  -0.155  0.00  0.00     0.001 C 
ATOM     10  C   UNL d   1      24.935 -18.199   0.405  0.00  0.00     0.000 C 
ATOM     11  C   UNL d   1      26.104 -17.672  -0.191  0.00  0.00     0.001 C 
ATOM     12  C   UNL d   1      26.097 -16.712  -1.294  0.00  0.00     0.007 C 
ENDBRANCH   6   7
ENDBRANCH   5   6
BRANCH   5  13
ATOM     13  N   UNL d   1      25.391 -12.851  -4.321  0.00  0.00    -0.323 N 
ATOM     14  C   UNL d   1      26.145 -11.963  -3.519  0.00  0.00     0.360 C 
ATOM     15  O   UNL d   1      25.801 -10.745  -3.556  0.00  0.00    -0.239 OA
ATOM     16  H   UNL d   1      24.781 -12.406  -5.007  0.00  0.00     0.165 HD
BRANCH  14  17
ATOM     17  O   UNL d   1      27.007 -12.552  -2.606  0.00  0.00    -0.309 OA
ATOM     18  C   UNL d   1      27.049 -12.652  -1.093  0.00  0.00     0.215 C 
ENDBRANCH  14  17
ENDBRANCH   5  13
ENDBRANCH   1   5
BRANCH   3  19
ATOM     19  C   UNL d   1      28.675 -15.684  -4.032  0.00  0.00     0.038 A 
ATOM     20  C   UNL d   1      29.229 -15.605  -5.311  0.00  0.00     0.055 A 
ATOM     21  C   UNL d   1      30.383 -16.348  -5.625  0.00  0.00     0.059 A 
ATOM     22 CL   UNL d   1      30.935 -16.346  -7.270  0.00  0.00    -0.082 Cl
ATOM     23  C   UNL d   1      31.064 -17.112  -4.656  0.00  0.00     0.050 A 
ATOM     24  C   UNL d   1      30.454 -17.215  -3.396  0.00  0.00     0.059 A 
ATOM     25 CL   UNL d   1      31.100 -18.268  -2.182  0.00  0.00    -0.082 Cl
ATOM     26  C   UNL d   1      29.293 -16.501  -3.083  0.00  0.00     0.055 A 
BRANCH  23  27
ATOM     27  N   UNL d   1      32.170 -17.921  -4.996  0.00  0.00    -0.300 NA
ATOM     28  H   UNL d   1      33.080 -17.490  -4.848  0.00  0.00     0.124 HD
ATOM     29  H   UNL d   1      32.106 -18.885  -4.676  0.00  0.00     0.124 HD
ENDBRANCH  23  27
ENDBRANCH   3  19
TORSDOF 7
ENDMDL
