MODEL 1
REMARK VINA RESULT:    -9.010      0.000      0.000
REMARK INTER + INTRA:          -6.004
REMARK INTER:                 -10.799
REMARK INTRA:                   4.795
REMARK CONF_INDEPENDENT:        1.790
REMARK UNBOUND:                 4.795
REMARK  6 active torsions:
REMARK  status: ('A' for Active; 'I' for Inactive)
REMARK    1  A    between atoms: C_2  and  C_26 
REMARK    2  A    between atoms: N_3  and  N_4 
REMARK       I    between atoms: N_4  and  C_5 
REMARK    3  A    between atoms: C_5  and  C_7 
REMARK    4  A    between atoms: N_10  and  C_11 
REMARK    5  A    between atoms: C_15  and  N_16 
REMARK    6  A    between atoms: N_19  and  C_18 
ROOT
ATOM      1  C   UNL d   1      31.438 -18.744  -1.237  0.00  0.00     0.170 A 
ATOM      2  N   UNL d   1      31.157 -19.419  -2.376  0.00  0.00    -0.152 NA
ATOM      3  N   UNL d   1      31.471 -20.703  -2.207  0.00  0.00     0.012 NA
ATOM      4  N   UNL d   1      31.963 -21.011  -0.778  0.00  0.00    -0.215 N 
ATOM      5  C   UNL d   1      31.876 -19.673  -0.302  0.00  0.00     0.096 A 
ATOM      6  C   UNL d   1      32.222 -19.496   1.040  0.00  0.00     0.296 C 
ENDROOT
BRANCH   1   7
ATOM      7  C   UNL d   1      31.218 -17.272  -1.011  0.00  0.00     0.293 C 
ATOM      8  N   UNL d   1      30.105 -16.989  -0.198  0.00  0.00    -0.241 N 
ATOM      9  H   UNL d   1      29.649 -17.746   0.272  0.00  0.00     0.192 HD
ATOM     10  O   UNL d   1      31.904 -16.414  -1.556  0.00  0.00    -0.264 OA
BRANCH   8  11
ATOM     11  N   UNL d   1      29.669 -15.704   0.103  0.00  0.00    -0.176 NA
ATOM     12  C   UNL d   1      28.386 -15.421   0.179  0.00  0.00     0.061 C 
ATOM     13  C   UNL d   1      27.956 -13.986   0.494  0.00  0.00     0.073 C 
BRANCH  12  14
ATOM     14  C   UNL d   1      27.265 -16.400  -0.003  0.00  0.00    -0.009 A 
ATOM     15  C   UNL d   1      27.410 -17.750   0.326  0.00  0.00     0.014 A 
ATOM     16  C   UNL d   1      26.307 -18.607   0.235  0.00  0.00     0.013 A 
ATOM     17  C   UNL d   1      25.045 -18.120  -0.140  0.00  0.00    -0.026 A 
ATOM     18  C   UNL d   1      23.914 -18.949  -0.172  0.00  0.00     0.012 A 
ATOM     19  C   UNL d   1      24.908 -16.762  -0.501  0.00  0.00    -0.025 A 
ATOM     20  C   UNL d   1      22.668 -18.441  -0.546  0.00  0.00     0.001 A 
ATOM     21  C   UNL d   1      22.535 -17.099  -0.889  0.00  0.00     0.001 A 
ATOM     22  C   UNL d   1      23.650 -16.262  -0.871  0.00  0.00     0.012 A 
ATOM     23  C   UNL d   1      26.035 -15.934  -0.481  0.00  0.00     0.026 A 
ENDBRANCH  12  14
ENDBRANCH   8  11
ENDBRANCH   1   7
BRANCH   4  24
ATOM     24  C   UNL d   1      32.238 -22.786   0.096  0.00  0.00     0.219 A 
ATOM     25  N   UNL d   1      33.378 -23.518   0.214  0.00  0.00    -0.082 NA
ATOM     26  O   UNL d   1      33.068 -24.829   0.523  0.00  0.00    -0.103 OA
ATOM     27  N   UNL d   1      31.721 -25.164   0.574  0.00  0.00    -0.089 NA
ATOM     28  C   UNL d   1      31.025 -24.058   0.338  0.00  0.00     0.180 A 
BRANCH  28  29
ATOM     29  N   UNL d   1      29.533 -23.821   0.648  0.00  0.00    -0.282 NA
ATOM     30  H   UNL d   1      28.881 -23.585  -0.113  0.00  0.00     0.126 HD
ATOM     31  H   UNL d   1      28.936 -24.574   1.059  0.00  0.00     0.126 HD
ENDBRANCH  28  29
ENDBRANCH   4  24
BRANCH   6  32
ATOM     32  N   UNL d   1      32.593 -20.860   1.350  0.00  0.00    -0.062 N 
ATOM     33  C   UNL d   1      31.080 -21.791   1.989  0.00  0.00     0.235 C 
ATOM     34  C   UNL d   1      30.642 -21.577   3.885  0.00  0.00     0.028 C 
ATOM     35  C   UNL d   1      32.111 -21.190   5.190  0.00  0.00     0.004 C 
ATOM     36  C   UNL d   1      33.684 -20.200   4.341  0.00  0.00     0.033 C 
ATOM     37  C   UNL d   1      34.126 -20.673   2.352  0.00  0.00     0.184 C 
ATOM     38  C   UNL d   1      34.812 -22.319   1.720  0.00  0.00     0.040 C 
ATOM     39  H   UNL d   1      32.893 -21.291   0.462  0.00  0.00     0.280 HD
ENDBRANCH   6  32
TORSDOF 6
ENDMDL
MODEL 2
REMARK VINA RESULT:    -8.891      6.051      9.135
REMARK INTER + INTRA:          -6.668
REMARK INTER:                 -10.681
REMARK INTRA:                   4.013
REMARK CONF_INDEPENDENT:        1.790
REMARK UNBOUND:                 4.013
REMARK  6 active torsions:
REMARK  status: ('A' for Active; 'I' for Inactive)
REMARK    1  A    between atoms: C_2  and  C_26 
REMARK    2  A    between atoms: N_3  and  N_4 
REMARK       I    between atoms: N_4  and  C_5 
REMARK    3  A    between atoms: C_5  and  C_7 
REMARK    4  A    between atoms: N_10  and  C_11 
REMARK    5  A    between atoms: C_15  and  N_16 
REMARK    6  A    between atoms: N_19  and  C_18 
ROOT
ATOM      1  C   UNL d   1      27.311 -11.104  -0.536  0.00  0.00     0.170 A 
ATOM      2  N   UNL d   1      27.549 -10.339  -1.625  0.00  0.00    -0.152 NA
ATOM      3  N   UNL d   1      27.745 -11.131  -2.678  0.00  0.00     0.012 NA
ATOM      4  N   UNL d   1      27.560 -12.625  -2.338  0.00  0.00    -0.215 N 
ATOM      5  C   UNL d   1      27.287 -12.428  -0.956  0.00  0.00     0.096 A 
ATOM      6  C   UNL d   1      27.014 -13.592  -0.232  0.00  0.00     0.296 C 
ENDROOT
BRANCH   1   7
ATOM      7  C   UNL d   1      27.030 -10.595   0.853  0.00  0.00     0.293 C 
ATOM      8  N   UNL d   1      27.520  -9.295   1.084  0.00  0.00    -0.241 N 
ATOM      9  H   UNL d   1      27.869  -8.769   0.307  0.00  0.00     0.192 HD
ATOM     10  O   UNL d   1      26.498 -11.288   1.713  0.00  0.00    -0.264 OA
BRANCH   8  11
ATOM     11  N   UNL d   1      27.433  -8.637   2.305  0.00  0.00    -0.176 NA
ATOM     12  C   UNL d   1      27.847  -9.208   3.416  0.00  0.00     0.061 C 
ATOM     13  C   UNL d   1      27.712  -8.449   4.739  0.00  0.00     0.073 C 
BRANCH  12  14
ATOM     14  C   UNL d   1      28.472 -10.566   3.518  0.00  0.00    -0.009 A 
ATOM     15  C   UNL d   1      29.678 -10.868   2.878  0.00  0.00     0.014 A 
ATOM     16  C   UNL d   1      30.277 -12.117   3.083  0.00  0.00     0.013 A 
ATOM     17  C   UNL d   1      29.706 -13.055   3.959  0.00  0.00    -0.026 A 
ATOM     18  C   UNL d   1      30.325 -14.284   4.229  0.00  0.00     0.012 A 
ATOM     19  C   UNL d   1      28.472 -12.759   4.580  0.00  0.00    -0.025 A 
ATOM     20  C   UNL d   1      29.739 -15.200   5.105  0.00  0.00     0.001 A 
ATOM     21  C   UNL d   1      28.530 -14.899   5.724  0.00  0.00     0.001 A 
ATOM     22  C   UNL d   1      27.895 -13.686   5.462  0.00  0.00     0.012 A 
ATOM     23  C   UNL d   1      27.846 -11.538   4.305  0.00  0.00     0.026 A 
ENDBRANCH  12  14
ENDBRANCH   8  11
ENDBRANCH   1   7
BRANCH   4  24
ATOM     24  C   UNL d   1      27.407 -14.181  -3.581  0.00  0.00     0.219 A 
ATOM     25  N   UNL d   1      28.384 -14.997  -4.061  0.00  0.00    -0.082 NA
ATOM     26  O   UNL d   1      27.927 -15.677  -5.174  0.00  0.00    -0.103 OA
ATOM     27  N   UNL d   1      26.652 -15.362  -5.626  0.00  0.00    -0.089 NA
ATOM     28  C   UNL d   1      26.145 -14.459  -4.797  0.00  0.00     0.180 A 
BRANCH  28  29
ATOM     29  N   UNL d   1      24.660 -14.075  -4.644  0.00  0.00    -0.282 NA
ATOM     30  H   UNL d   1      24.328 -13.158  -4.977  0.00  0.00     0.126 HD
ATOM     31  H   UNL d   1      23.904 -14.628  -5.109  0.00  0.00     0.126 HD
ENDBRANCH  28  29
ENDBRANCH   4  24
BRANCH   6  32
ATOM     32  N   UNL d   1      27.198 -14.557  -1.295  0.00  0.00    -0.062 N 
ATOM     33  C   UNL d   1      25.543 -14.876  -2.145  0.00  0.00     0.235 C 
ATOM     34  C   UNL d   1      24.347 -16.175  -1.298  0.00  0.00     0.028 C 
ATOM     35  C   UNL d   1      25.133 -17.661  -0.210  0.00  0.00     0.004 C 
ATOM     36  C   UNL d   1      26.933 -17.168   0.623  0.00  0.00     0.033 C 
ATOM     37  C   UNL d   1      28.166 -15.901  -0.494  0.00  0.00     0.184 C 
ATOM     38  C   UNL d   1      29.030 -16.332  -2.121  0.00  0.00     0.040 C 
ATOM     39  H   UNL d   1      27.838 -14.122  -1.978  0.00  0.00     0.280 HD
ENDBRANCH   6  32
TORSDOF 6
ENDMDL
MODEL 3
REMARK VINA RESULT:    -8.488      5.889      9.366
REMARK INTER + INTRA:          -5.709
REMARK INTER:                 -10.278
REMARK INTRA:                   4.569
REMARK CONF_INDEPENDENT:        1.790
REMARK UNBOUND:                 4.569
REMARK  6 active torsions:
REMARK  status: ('A' for Active; 'I' for Inactive)
REMARK    1  A    between atoms: C_2  and  C_26 
REMARK    2  A    between atoms: N_3  and  N_4 
REMARK       I    between atoms: N_4  and  C_5 
REMARK    3  A    between atoms: C_5  and  C_7 
REMARK    4  A    between atoms: N_10  and  C_11 
REMARK    5  A    between atoms: C_15  and  N_16 
REMARK    6  A    between atoms: N_19  and  C_18 
ROOT
ATOM      1  C   UNL d   1      27.184 -11.709   0.083  0.00  0.00     0.170 A 
ATOM      2  N   UNL d   1      27.405 -10.803  -0.897  0.00  0.00    -0.152 NA
ATOM      3  N   UNL d   1      27.556 -11.445  -2.054  0.00  0.00     0.012 NA
ATOM      4  N   UNL d   1      27.353 -12.969  -1.919  0.00  0.00    -0.215 N 
ATOM      5  C   UNL d   1      27.123 -12.961  -0.515  0.00  0.00     0.096 A 
ATOM      6  C   UNL d   1      26.848 -14.210   0.049  0.00  0.00     0.296 C 
ENDROOT
BRANCH   1   7
ATOM      7  C   UNL d   1      26.952 -11.392   1.537  0.00  0.00     0.293 C 
ATOM      8  N   UNL d   1      27.536 -12.326   2.415  0.00  0.00    -0.241 N 
ATOM      9  H   UNL d   1      28.157 -13.014   2.039  0.00  0.00     0.192 HD
ATOM     10  O   UNL d   1      26.252 -10.455   1.902  0.00  0.00    -0.264 OA
BRANCH   8  11
ATOM     11  N   UNL d   1      27.408 -12.278   3.798  0.00  0.00    -0.176 NA
ATOM     12  C   UNL d   1      28.392 -12.653   4.586  0.00  0.00     0.061 C 
ATOM     13  C   UNL d   1      28.195 -12.600   6.103  0.00  0.00     0.073 C 
BRANCH  12  14
ATOM     14  C   UNL d   1      29.739 -13.130   4.132  0.00  0.00    -0.009 A 
ATOM     15  C   UNL d   1      29.950 -14.450   3.725  0.00  0.00     0.014 A 
ATOM     16  C   UNL d   1      31.197 -14.826   3.213  0.00  0.00     0.013 A 
ATOM     17  C   UNL d   1      32.227 -13.883   3.060  0.00  0.00    -0.026 A 
ATOM     18  C   UNL d   1      33.461 -14.226   2.486  0.00  0.00     0.012 A 
ATOM     19  C   UNL d   1      32.021 -12.557   3.499  0.00  0.00    -0.025 A 
ATOM     20  C   UNL d   1      34.469 -13.270   2.343  0.00  0.00     0.001 A 
ATOM     21  C   UNL d   1      34.257 -11.961   2.765  0.00  0.00     0.001 A 
ATOM     22  C   UNL d   1      33.040 -11.605   3.345  0.00  0.00     0.012 A 
ATOM     23  C   UNL d   1      30.796 -12.214   4.081  0.00  0.00     0.026 A 
ENDBRANCH  12  14
ENDBRANCH   8  11
ENDBRANCH   1   7
BRANCH   4  24
ATOM     24  C   UNL d   1      27.135 -14.336  -3.359  0.00  0.00     0.219 A 
ATOM     25  N   UNL d   1      28.080 -15.106  -3.961  0.00  0.00    -0.082 NA
ATOM     26  O   UNL d   1      27.588 -15.615  -5.149  0.00  0.00    -0.103 OA
ATOM     27  N   UNL d   1      26.319 -15.203  -5.534  0.00  0.00    -0.089 NA
ATOM     28  C   UNL d   1      25.851 -14.407  -4.581  0.00  0.00     0.180 A 
BRANCH  28  29
ATOM     29  N   UNL d   1      24.380 -14.003  -4.353  0.00  0.00    -0.282 NA
ATOM     30  H   UNL d   1      24.115 -13.008  -4.344  0.00  0.00     0.126 HD
ATOM     31  H   UNL d   1      23.626 -14.299  -5.013  0.00  0.00     0.126 HD
ENDBRANCH  28  29
ENDBRANCH   4  24
BRANCH   6  32
ATOM     32  N   UNL d   1      26.984 -15.021  -1.142  0.00  0.00    -0.062 N 
ATOM     33  C   UNL d   1      25.302 -15.184  -1.984  0.00  0.00     0.235 C 
ATOM     34  C   UNL d   1      24.095 -16.563  -1.294  0.00  0.00     0.028 C 
ATOM     35  C   UNL d   1      24.870 -18.203  -0.443  0.00  0.00     0.004 C 
ATOM     36  C   UNL d   1      26.700 -17.868   0.401  0.00  0.00     0.033 C 
ATOM     37  C   UNL d   1      27.937 -16.483  -0.561  0.00  0.00     0.184 C 
ATOM     38  C   UNL d   1      28.752 -16.701  -2.255  0.00  0.00     0.040 C 
ATOM     39  H   UNL d   1      27.618 -14.509  -1.774  0.00  0.00     0.280 HD
ENDBRANCH   6  32
TORSDOF 6
ENDMDL
MODEL 4
REMARK VINA RESULT:    -8.350      6.066     10.110
REMARK INTER + INTRA:          -5.734
REMARK INTER:                 -10.140
REMARK INTRA:                   4.406
REMARK CONF_INDEPENDENT:        1.790
REMARK UNBOUND:                 4.406
REMARK  6 active torsions:
REMARK  status: ('A' for Active; 'I' for Inactive)
REMARK    1  A    between atoms: C_2  and  C_26 
REMARK    2  A    between atoms: N_3  and  N_4 
REMARK       I    between atoms: N_4  and  C_5 
REMARK    3  A    between atoms: C_5  and  C_7 
REMARK    4  A    between atoms: N_10  and  C_11 
REMARK    5  A    between atoms: C_15  and  N_16 
REMARK    6  A    between atoms: N_19  and  C_18 
ROOT
ATOM      1  C   UNL d   1      27.804 -14.662  -3.954  0.00  0.00     0.170 A 
ATOM      2  N   UNL d   1      27.340 -15.583  -4.829  0.00  0.00    -0.152 NA
ATOM      3  N   UNL d   1      27.046 -14.980  -5.979  0.00  0.00     0.012 NA
ATOM      4  N   UNL d   1      27.400 -13.478  -5.969  0.00  0.00    -0.215 N 
ATOM      5  C   UNL d   1      27.868 -13.447  -4.626  0.00  0.00     0.096 A 
ATOM      6  C   UNL d   1      28.343 -12.208  -4.190  0.00  0.00     0.296 C 
ENDROOT
BRANCH   1   7
ATOM      7  C   UNL d   1      28.256 -14.936  -2.544  0.00  0.00     0.293 C 
ATOM      8  N   UNL d   1      27.823 -13.969  -1.617  0.00  0.00    -0.241 N 
ATOM      9  H   UNL d   1      27.156 -13.285  -1.914  0.00  0.00     0.192 HD
ATOM     10  O   UNL d   1      28.997 -15.871  -2.262  0.00  0.00    -0.264 OA
BRANCH   8  11
ATOM     11  N   UNL d   1      28.164 -13.976  -0.270  0.00  0.00    -0.176 NA
ATOM     12  C   UNL d   1      27.664 -14.873   0.553  0.00  0.00     0.061 C 
ATOM     13  C   UNL d   1      28.055 -14.827   2.033  0.00  0.00     0.073 C 
BRANCH  12  14
ATOM     14  C   UNL d   1      26.731 -15.982   0.172  0.00  0.00    -0.009 A 
ATOM     15  C   UNL d   1      27.119 -17.323   0.239  0.00  0.00     0.014 A 
ATOM     16  C   UNL d   1      26.183 -18.329  -0.029  0.00  0.00     0.013 A 
ATOM     17  C   UNL d   1      24.847 -18.011  -0.321  0.00  0.00    -0.026 A 
ATOM     18  C   UNL d   1      23.880 -19.007  -0.526  0.00  0.00     0.012 A 
ATOM     19  C   UNL d   1      24.464 -16.656  -0.418  0.00  0.00    -0.025 A 
ATOM     20  C   UNL d   1      22.556 -18.666  -0.813  0.00  0.00     0.001 A 
ATOM     21  C   UNL d   1      22.181 -17.329  -0.895  0.00  0.00     0.001 A 
ATOM     22  C   UNL d   1      23.130 -16.325  -0.702  0.00  0.00     0.012 A 
ATOM     23  C   UNL d   1      25.428 -15.659  -0.224  0.00  0.00     0.026 A 
ENDBRANCH  12  14
ENDBRANCH   8  11
ENDBRANCH   1   7
BRANCH   4  24
ATOM     24  C   UNL d   1      27.482 -12.200  -7.503  0.00  0.00     0.219 A 
ATOM     25  N   UNL d   1      26.524 -11.354  -7.967  0.00  0.00    -0.082 NA
ATOM     26  O   UNL d   1      26.834 -10.950  -9.252  0.00  0.00    -0.103 OA
ATOM     27  N   UNL d   1      27.961 -11.513  -9.836  0.00  0.00    -0.089 NA
ATOM     28  C   UNL d   1      28.516 -12.319  -8.939  0.00  0.00     0.180 A 
BRANCH  28  29
ATOM     29  N   UNL d   1      29.955 -12.873  -8.959  0.00  0.00    -0.282 NA
ATOM     30  H   UNL d   1      30.174 -13.752  -8.470  0.00  0.00     0.126 HD
ATOM     31  H   UNL d   1      30.423 -13.139  -9.855  0.00  0.00     0.126 HD
ENDBRANCH  28  29
ENDBRANCH   4  24
BRANCH   6  32
ATOM     32  N   UNL d   1      28.073 -11.439  -5.386  0.00  0.00    -0.062 N 
ATOM     33  C   UNL d   1      29.589 -11.479  -6.511  0.00  0.00     0.235 C 
ATOM     34  C   UNL d   1      31.016 -10.197  -6.120  0.00  0.00     0.028 C 
ATOM     35  C   UNL d   1      30.554  -8.454  -5.249  0.00  0.00     0.004 C 
ATOM     36  C   UNL d   1      28.878  -8.570  -4.085  0.00  0.00     0.033 C 
ATOM     37  C   UNL d   1      27.371  -9.866  -4.738  0.00  0.00     0.184 C 
ATOM     38  C   UNL d   1      26.294  -9.641  -6.278  0.00  0.00     0.040 C 
ATOM     39  H   UNL d   1      27.294 -11.912  -5.869  0.00  0.00     0.280 HD
ENDBRANCH   6  32
TORSDOF 6
ENDMDL
MODEL 5
REMARK VINA RESULT:    -8.349      6.036      9.737
REMARK INTER + INTRA:          -5.883
REMARK INTER:                 -10.139
REMARK INTRA:                   4.256
REMARK CONF_INDEPENDENT:        1.790
REMARK UNBOUND:                 4.256
REMARK  6 active torsions:
REMARK  status: ('A' for Active; 'I' for Inactive)
REMARK    1  A    between atoms: C_2  and  C_26 
REMARK    2  A    between atoms: N_3  and  N_4 
REMARK       I    between atoms: N_4  and  C_5 
REMARK    3  A    between atoms: C_5  and  C_7 
REMARK    4  A    between atoms: N_10  and  C_11 
REMARK    5  A    between atoms: C_15  and  N_16 
REMARK    6  A    between atoms: N_19  and  C_18 
ROOT
ATOM      1  C   UNL d   1      27.463 -11.864   0.093  0.00  0.00     0.170 A 
ATOM      2  N   UNL d   1      27.671 -10.942  -0.875  0.00  0.00    -0.152 NA
ATOM      3  N   UNL d   1      27.758 -11.560  -2.051  0.00  0.00     0.012 NA
ATOM      4  N   UNL d   1      27.519 -13.081  -1.942  0.00  0.00    -0.215 N 
ATOM      5  C   UNL d   1      27.344 -13.100  -0.530  0.00  0.00     0.096 A 
ATOM      6  C   UNL d   1      27.057 -14.354   0.016  0.00  0.00     0.296 C 
ENDROOT
BRANCH   1   7
ATOM      7  C   UNL d   1      27.297 -11.576   1.561  0.00  0.00     0.293 C 
ATOM      8  N   UNL d   1      28.446 -11.025   2.159  0.00  0.00    -0.241 N 
ATOM      9  H   UNL d   1      29.203 -10.739   1.570  0.00  0.00     0.192 HD
ATOM     10  O   UNL d   1      26.280 -11.873   2.179  0.00  0.00    -0.264 OA
BRANCH   8  11
ATOM     11  N   UNL d   1      28.553 -10.731   3.513  0.00  0.00    -0.176 NA
ATOM     12  C   UNL d   1      28.206  -9.552   3.982  0.00  0.00     0.061 C 
ATOM     13  C   UNL d   1      28.361  -9.270   5.479  0.00  0.00     0.073 C 
BRANCH  12  14
ATOM     14  C   UNL d   1      27.641  -8.424   3.174  0.00  0.00    -0.009 A 
ATOM     15  C   UNL d   1      28.144  -7.124   3.277  0.00  0.00     0.014 A 
ATOM     16  C   UNL d   1      27.655  -6.123   2.430  0.00  0.00     0.013 A 
ATOM     17  C   UNL d   1      26.696  -6.416   1.446  0.00  0.00    -0.026 A 
ATOM     18  C   UNL d   1      26.243  -5.442   0.545  0.00  0.00     0.012 A 
ATOM     19  C   UNL d   1      26.167  -7.723   1.364  0.00  0.00    -0.025 A 
ATOM     20  C   UNL d   1      25.290  -5.758  -0.426  0.00  0.00     0.001 A 
ATOM     21  C   UNL d   1      24.781  -7.050  -0.512  0.00  0.00     0.001 A 
ATOM     22  C   UNL d   1      25.213  -8.030   0.382  0.00  0.00     0.012 A 
ATOM     23  C   UNL d   1      26.609  -8.695   2.269  0.00  0.00     0.026 A 
ENDBRANCH  12  14
ENDBRANCH   8  11
ENDBRANCH   1   7
BRANCH   4  24
ATOM     24  C   UNL d   1      27.208 -14.407  -3.403  0.00  0.00     0.219 A 
ATOM     25  N   UNL d   1      28.106 -15.190  -4.057  0.00  0.00    -0.082 NA
ATOM     26  O   UNL d   1      27.556 -15.657  -5.237  0.00  0.00    -0.103 OA
ATOM     27  N   UNL d   1      26.286 -15.201  -5.563  0.00  0.00    -0.089 NA
ATOM     28  C   UNL d   1      25.877 -14.414  -4.576  0.00  0.00     0.180 A 
BRANCH  28  29
ATOM     29  N   UNL d   1      24.428 -13.974  -4.284  0.00  0.00    -0.282 NA
ATOM     30  H   UNL d   1      24.218 -12.981  -4.107  0.00  0.00     0.126 HD
ATOM     31  H   UNL d   1      23.665 -14.112  -4.985  0.00  0.00     0.126 HD
ENDBRANCH  28  29
ENDBRANCH   4  24
BRANCH   6  32
ATOM     32  N   UNL d   1      27.124 -15.140  -1.197  0.00  0.00    -0.062 N 
ATOM     33  C   UNL d   1      25.408 -15.232  -1.979  0.00  0.00     0.235 C 
ATOM     34  C   UNL d   1      24.185 -16.589  -1.276  0.00  0.00     0.028 C 
ATOM     35  C   UNL d   1      24.939 -18.272  -0.493  0.00  0.00     0.004 C 
ATOM     36  C   UNL d   1      26.808 -18.013   0.291  0.00  0.00     0.033 C 
ATOM     37  C   UNL d   1      28.052 -16.644  -0.685  0.00  0.00     0.184 C 
ATOM     38  C   UNL d   1      28.798 -16.846  -2.412  0.00  0.00     0.040 C 
ATOM     39  H   UNL d   1      27.751 -14.632  -1.841  0.00  0.00     0.280 HD
ENDBRANCH   6  32
TORSDOF 6
ENDMDL
MODEL 6
REMARK VINA RESULT:    -8.336      5.760      9.084
REMARK INTER + INTRA:          -6.437
REMARK INTER:                 -10.126
REMARK INTRA:                   3.689
REMARK CONF_INDEPENDENT:        1.790
REMARK UNBOUND:                 3.689
REMARK  6 active torsions:
REMARK  status: ('A' for Active; 'I' for Inactive)
REMARK    1  A    between atoms: C_2  and  C_26 
REMARK    2  A    between atoms: N_3  and  N_4 
REMARK       I    between atoms: N_4  and  C_5 
REMARK    3  A    between atoms: C_5  and  C_7 
REMARK    4  A    between atoms: N_10  and  C_11 
REMARK    5  A    between atoms: C_15  and  N_16 
REMARK    6  A    between atoms: N_19  and  C_18 
ROOT
ATOM      1  C   UNL d   1      27.393 -11.793   0.118  0.00  0.00     0.170 A 
ATOM      2  N   UNL d   1      27.590 -10.873  -0.854  0.00  0.00    -0.152 NA
ATOM      3  N   UNL d   1      27.689 -11.496  -2.027  0.00  0.00     0.012 NA
ATOM      4  N   UNL d   1      27.470 -13.019  -1.910  0.00  0.00    -0.215 N 
ATOM      5  C   UNL d   1      27.293 -13.033  -0.499  0.00  0.00     0.096 A 
ATOM      6  C   UNL d   1      27.022 -14.288   0.053  0.00  0.00     0.296 C 
ENDROOT
BRANCH   1   7
ATOM      7  C   UNL d   1      27.219 -11.499   1.585  0.00  0.00     0.293 C 
ATOM      8  N   UNL d   1      27.846 -10.308   1.997  0.00  0.00    -0.241 N 
ATOM      9  H   UNL d   1      28.215  -9.693   1.298  0.00  0.00     0.192 HD
ATOM     10  O   UNL d   1      26.654 -12.274   2.348  0.00  0.00    -0.264 OA
BRANCH   8  11
ATOM     11  N   UNL d   1      27.874  -9.859   3.312  0.00  0.00    -0.176 NA
ATOM     12  C   UNL d   1      28.545 -10.509   4.238  0.00  0.00     0.061 C 
ATOM     13  C   UNL d   1      28.528  -9.984   5.677  0.00  0.00     0.073 C 
BRANCH  12  14
ATOM     14  C   UNL d   1      29.363 -11.745   4.017  0.00  0.00    -0.009 A 
ATOM     15  C   UNL d   1      28.970 -12.985   4.528  0.00  0.00     0.014 A 
ATOM     16  C   UNL d   1      29.710 -14.130   4.211  0.00  0.00     0.013 A 
ATOM     17  C   UNL d   1      30.817 -14.058   3.350  0.00  0.00    -0.026 A 
ATOM     18  C   UNL d   1      31.530 -15.204   2.968  0.00  0.00     0.012 A 
ATOM     19  C   UNL d   1      31.229 -12.800   2.859  0.00  0.00    -0.025 A 
ATOM     20  C   UNL d   1      32.626 -15.106   2.108  0.00  0.00     0.001 A 
ATOM     21  C   UNL d   1      33.021 -13.866   1.616  0.00  0.00     0.001 A 
ATOM     22  C   UNL d   1      32.329 -12.715   1.992  0.00  0.00     0.012 A 
ATOM     23  C   UNL d   1      30.527 -11.653   3.246  0.00  0.00     0.026 A 
ENDBRANCH  12  14
ENDBRANCH   8  11
ENDBRANCH   1   7
BRANCH   4  24
ATOM     24  C   UNL d   1      27.180 -14.356  -3.365  0.00  0.00     0.219 A 
ATOM     25  N   UNL d   1      28.090 -15.137  -4.008  0.00  0.00    -0.082 NA
ATOM     26  O   UNL d   1      27.552 -15.615  -5.188  0.00  0.00    -0.103 OA
ATOM     27  N   UNL d   1      26.281 -15.171  -5.527  0.00  0.00    -0.089 NA
ATOM     28  C   UNL d   1      25.859 -14.381  -4.549  0.00  0.00     0.180 A 
BRANCH  28  29
ATOM     29  N   UNL d   1      24.405 -13.950  -4.270  0.00  0.00    -0.282 NA
ATOM     30  H   UNL d   1      24.167 -12.950  -4.208  0.00  0.00     0.126 HD
ATOM     31  H   UNL d   1      23.629 -14.195  -4.927  0.00  0.00     0.126 HD
ENDBRANCH  28  29
ENDBRANCH   4  24
BRANCH   6  32
ATOM     32  N   UNL d   1      27.103 -15.079  -1.156  0.00  0.00    -0.062 N 
ATOM     33  C   UNL d   1      25.389 -15.200  -1.940  0.00  0.00     0.235 C 
ATOM     34  C   UNL d   1      24.186 -16.572  -1.232  0.00  0.00     0.028 C 
ATOM     35  C   UNL d   1      24.962 -18.239  -0.439  0.00  0.00     0.004 C 
ATOM     36  C   UNL d   1      26.826 -17.949   0.346  0.00  0.00     0.033 C 
ATOM     37  C   UNL d   1      28.052 -16.567  -0.635  0.00  0.00     0.184 C 
ATOM     38  C   UNL d   1      28.803 -16.767  -2.360  0.00  0.00     0.040 C 
ATOM     39  H   UNL d   1      27.723 -14.566  -1.801  0.00  0.00     0.280 HD
ENDBRANCH   6  32
TORSDOF 6
ENDMDL
MODEL 7
REMARK VINA RESULT:    -8.205      6.005      9.756
REMARK INTER + INTRA:          -5.676
REMARK INTER:                  -9.994
REMARK INTRA:                   4.319
REMARK CONF_INDEPENDENT:        1.790
REMARK UNBOUND:                 4.319
REMARK  6 active torsions:
REMARK  status: ('A' for Active; 'I' for Inactive)
REMARK    1  A    between atoms: C_2  and  C_26 
REMARK    2  A    between atoms: N_3  and  N_4 
REMARK       I    between atoms: N_4  and  C_5 
REMARK    3  A    between atoms: C_5  and  C_7 
REMARK    4  A    between atoms: N_10  and  C_11 
REMARK    5  A    between atoms: C_15  and  N_16 
REMARK    6  A    between atoms: N_19  and  C_18 
ROOT
ATOM      1  C   UNL d   1      27.200 -12.042   0.381  0.00  0.00     0.170 A 
ATOM      2  N   UNL d   1      27.444 -11.089  -0.547  0.00  0.00    -0.152 NA
ATOM      3  N   UNL d   1      27.591 -11.669  -1.737  0.00  0.00     0.012 NA
ATOM      4  N   UNL d   1      27.360 -13.194  -1.686  0.00  0.00    -0.215 N 
ATOM      5  C   UNL d   1      27.121 -13.258  -0.285  0.00  0.00     0.096 A 
ATOM      6  C   UNL d   1      26.820 -14.531   0.209  0.00  0.00     0.296 C 
ENDROOT
BRANCH   1   7
ATOM      7  C   UNL d   1      26.965 -11.801   1.848  0.00  0.00     0.293 C 
ATOM      8  N   UNL d   1      27.614 -12.732   2.681  0.00  0.00    -0.241 N 
ATOM      9  H   UNL d   1      28.273 -13.363   2.272  0.00  0.00     0.192 HD
ATOM     10  O   UNL d   1      26.212 -10.925   2.258  0.00  0.00    -0.264 OA
BRANCH   8  11
ATOM     11  N   UNL d   1      27.498 -12.749   4.066  0.00  0.00    -0.176 NA
ATOM     12  C   UNL d   1      27.914 -11.736   4.796  0.00  0.00     0.061 C 
ATOM     13  C   UNL d   1      27.782 -11.812   6.320  0.00  0.00     0.073 C 
BRANCH  12  14
ATOM     14  C   UNL d   1      28.511 -10.467   4.267  0.00  0.00    -0.009 A 
ATOM     15  C   UNL d   1      29.758 -10.450   3.637  0.00  0.00     0.014 A 
ATOM     16  C   UNL d   1      30.231  -9.262   3.069  0.00  0.00     0.013 A 
ATOM     17  C   UNL d   1      29.449  -8.095   3.083  0.00  0.00    -0.026 A 
ATOM     18  C   UNL d   1      29.876  -6.913   2.460  0.00  0.00     0.012 A 
ATOM     19  C   UNL d   1      28.202  -8.106   3.747  0.00  0.00    -0.025 A 
ATOM     20  C   UNL d   1      29.080  -5.766   2.486  0.00  0.00     0.001 A 
ATOM     21  C   UNL d   1      27.847  -5.786   3.130  0.00  0.00     0.001 A 
ATOM     22  C   UNL d   1      27.409  -6.949   3.762  0.00  0.00     0.012 A 
ATOM     23  C   UNL d   1      27.777  -9.281   4.378  0.00  0.00     0.026 A 
ENDBRANCH  12  14
ENDBRANCH   8  11
ENDBRANCH   1   7
BRANCH   4  24
ATOM     24  C   UNL d   1      27.127 -14.476  -3.200  0.00  0.00     0.219 A 
ATOM     25  N   UNL d   1      28.058 -15.248  -3.823  0.00  0.00    -0.082 NA
ATOM     26  O   UNL d   1      27.575 -15.676  -5.045  0.00  0.00    -0.103 OA
ATOM     27  N   UNL d   1      26.329 -15.201  -5.433  0.00  0.00    -0.089 NA
ATOM     28  C   UNL d   1      25.868 -14.439  -4.449  0.00  0.00     0.180 A 
BRANCH  28  29
ATOM     29  N   UNL d   1      24.407 -13.996  -4.230  0.00  0.00    -0.282 NA
ATOM     30  H   UNL d   1      24.189 -13.002  -4.072  0.00  0.00     0.126 HD
ATOM     31  H   UNL d   1      23.678 -14.141  -4.965  0.00  0.00     0.126 HD
ENDBRANCH  28  29
ENDBRANCH   4  24
BRANCH   6  32
ATOM     32  N   UNL d   1      26.949 -15.278  -1.024  0.00  0.00    -0.062 N 
ATOM     33  C   UNL d   1      25.272 -15.357  -1.887  0.00  0.00     0.235 C 
ATOM     34  C   UNL d   1      24.029 -16.744  -1.284  0.00  0.00     0.028 C 
ATOM     35  C   UNL d   1      24.759 -18.445  -0.519  0.00  0.00     0.004 C 
ATOM     36  C   UNL d   1      26.588 -18.198   0.358  0.00  0.00     0.033 C 
ATOM     37  C   UNL d   1      27.865 -16.791  -0.517  0.00  0.00     0.184 C 
ATOM     38  C   UNL d   1      28.691 -16.934  -2.213  0.00  0.00     0.040 C 
ATOM     39  H   UNL d   1      27.601 -14.746  -1.622  0.00  0.00     0.280 HD
ENDBRANCH   6  32
TORSDOF 6
ENDMDL
MODEL 8
REMARK VINA RESULT:    -7.962      6.583      9.005
REMARK INTER + INTRA:          -5.135
REMARK INTER:                  -9.752
REMARK INTRA:                   4.617
REMARK CONF_INDEPENDENT:        1.790
REMARK UNBOUND:                 4.617
REMARK  6 active torsions:
REMARK  status: ('A' for Active; 'I' for Inactive)
REMARK    1  A    between atoms: C_2  and  C_26 
REMARK    2  A    between atoms: N_3  and  N_4 
REMARK       I    between atoms: N_4  and  C_5 
REMARK    3  A    between atoms: C_5  and  C_7 
REMARK    4  A    between atoms: N_10  and  C_11 
REMARK    5  A    between atoms: C_15  and  N_16 
REMARK    6  A    between atoms: N_19  and  C_18 
ROOT
ATOM      1  C   UNL d   1      28.398 -13.613   4.281  0.00  0.00     0.170 A 
ATOM      2  N   UNL d   1      27.960 -14.833   4.671  0.00  0.00    -0.152 NA
ATOM      3  N   UNL d   1      28.489 -15.125   5.858  0.00  0.00     0.012 NA
ATOM      4  N   UNL d   1      29.342 -13.972   6.427  0.00  0.00    -0.215 N 
ATOM      5  C   UNL d   1      29.174 -13.103   5.314  0.00  0.00     0.096 A 
ATOM      6  C   UNL d   1      29.796 -11.857   5.433  0.00  0.00     0.296 C 
ENDROOT
BRANCH   1   7
ATOM      7  C   UNL d   1      28.025 -12.912   3.002  0.00  0.00     0.293 C 
ATOM      8  N   UNL d   1      28.812 -13.297   1.901  0.00  0.00    -0.241 N 
ATOM      9  H   UNL d   1      29.431 -14.077   2.003  0.00  0.00     0.192 HD
ATOM     10  O   UNL d   1      27.170 -12.034   2.959  0.00  0.00    -0.264 OA
BRANCH   8  11
ATOM     11  N   UNL d   1      28.695 -12.746   0.631  0.00  0.00    -0.176 NA
ATOM     12  C   UNL d   1      28.101 -13.401  -0.343  0.00  0.00     0.061 C 
ATOM     13  C   UNL d   1      28.014 -12.758  -1.730  0.00  0.00     0.073 C 
BRANCH  12  14
ATOM     14  C   UNL d   1      27.466 -14.753  -0.224  0.00  0.00    -0.009 A 
ATOM     15  C   UNL d   1      28.064 -15.782   0.508  0.00  0.00     0.014 A 
ATOM     16  C   UNL d   1      27.388 -16.996   0.678  0.00  0.00     0.013 A 
ATOM     17  C   UNL d   1      26.095 -17.179   0.160  0.00  0.00    -0.026 A 
ATOM     18  C   UNL d   1      25.375 -18.363   0.377  0.00  0.00     0.012 A 
ATOM     19  C   UNL d   1      25.505 -16.150  -0.605  0.00  0.00    -0.025 A 
ATOM     20  C   UNL d   1      24.090 -18.521  -0.147  0.00  0.00     0.001 A 
ATOM     21  C   UNL d   1      23.507 -17.499  -0.889  0.00  0.00     0.001 A 
ATOM     22  C   UNL d   1      24.212 -16.318  -1.122  0.00  0.00     0.012 A 
ATOM     23  C   UNL d   1      26.224 -14.971  -0.832  0.00  0.00     0.026 A 
ENDBRANCH  12  14
ENDBRANCH   8  11
ENDBRANCH   1   7
BRANCH   4  24
ATOM     24  C   UNL d   1      30.071 -13.748   8.273  0.00  0.00     0.219 A 
ATOM     25  N   UNL d   1      31.275 -14.134   8.774  0.00  0.00    -0.082 NA
ATOM     26  O   UNL d   1      31.228 -14.152  10.156  0.00  0.00    -0.103 OA
ATOM     27  N   UNL d   1      30.005 -13.867  10.749  0.00  0.00    -0.089 NA
ATOM     28  C   UNL d   1      29.144 -13.591   9.778  0.00  0.00     0.180 A 
BRANCH  28  29
ATOM     29  N   UNL d   1      27.791 -12.864   9.920  0.00  0.00    -0.282 NA
ATOM     30  H   UNL d   1      27.119 -13.164  10.641  0.00  0.00     0.126 HD
ATOM     31  H   UNL d   1      27.742 -11.847  10.156  0.00  0.00     0.126 HD
ENDBRANCH  28  29
ENDBRANCH   4  24
BRANCH   6  32
ATOM     32  N   UNL d   1      30.425 -12.051   6.722  0.00  0.00    -0.062 N 
ATOM     33  C   UNL d   1      29.265 -11.444   8.083  0.00  0.00     0.235 C 
ATOM     34  C   UNL d   1      29.279  -9.525   8.469  0.00  0.00     0.028 C 
ATOM     35  C   UNL d   1      30.952  -8.473   8.138  0.00  0.00     0.004 C 
ATOM     36  C   UNL d   1      32.109  -9.271   6.655  0.00  0.00     0.033 C 
ATOM     37  C   UNL d   1      32.112 -11.356   6.487  0.00  0.00     0.184 C 
ATOM     38  C   UNL d   1      32.854 -12.575   7.730  0.00  0.00     0.040 C 
ATOM     39  H   UNL d   1      30.557 -13.068   6.833  0.00  0.00     0.280 HD
ENDBRANCH   6  32
TORSDOF 6
ENDMDL
MODEL 9
REMARK VINA RESULT:    -7.106      6.776      9.501
REMARK INTER + INTRA:          -5.151
REMARK INTER:                  -8.896
REMARK INTRA:                   3.745
REMARK CONF_INDEPENDENT:        1.790
REMARK UNBOUND:                 3.745
REMARK  6 active torsions:
REMARK  status: ('A' for Active; 'I' for Inactive)
REMARK    1  A    between atoms: C_2  and  C_26 
REMARK    2  A    between atoms: N_3  and  N_4 
REMARK       I    between atoms: N_4  and  C_5 
REMARK    3  A    between atoms: C_5  and  C_7 
REMARK    4  A    between atoms: N_10  and  C_11 
REMARK    5  A    between atoms: C_15  and  N_16 
REMARK    6  A    between atoms: N_19  and  C_18 
ROOT
ATOM      1  C   UNL d   1      27.164 -14.902   0.488  0.00  0.00     0.170 A 
ATOM      2  N   UNL d   1      27.417 -16.224   0.350  0.00  0.00    -0.152 NA
ATOM      3  N   UNL d   1      27.429 -16.530  -0.946  0.00  0.00     0.012 NA
ATOM      4  N   UNL d   1      27.236 -15.295  -1.850  0.00  0.00    -0.215 N 
ATOM      5  C   UNL d   1      27.089 -14.359  -0.788  0.00  0.00     0.096 A 
ATOM      6  C   UNL d   1      26.915 -13.031  -1.187  0.00  0.00     0.296 C 
ENDROOT
BRANCH   1   7
ATOM      7  C   UNL d   1      27.077 -14.155   1.792  0.00  0.00     0.293 C 
ATOM      8  N   UNL d   1      28.027 -14.572   2.743  0.00  0.00    -0.241 N 
ATOM      9  H   UNL d   1      28.753 -15.197   2.453  0.00  0.00     0.192 HD
ATOM     10  O   UNL d   1      26.204 -13.323   2.016  0.00  0.00    -0.264 OA
BRANCH   8  11
ATOM     11  N   UNL d   1      28.104 -14.071   4.037  0.00  0.00    -0.176 NA
ATOM     12  C   UNL d   1      28.161 -12.776   4.263  0.00  0.00     0.061 C 
ATOM     13  C   UNL d   1      28.264 -12.276   5.706  0.00  0.00     0.073 C 
BRANCH  12  14
ATOM     14  C   UNL d   1      28.119 -11.706   3.215  0.00  0.00    -0.009 A 
ATOM     15  C   UNL d   1      29.113 -11.596   2.239  0.00  0.00     0.014 A 
ATOM     16  C   UNL d   1      28.981 -10.645   1.220  0.00  0.00     0.013 A 
ATOM     17  C   UNL d   1      27.840  -9.830   1.139  0.00  0.00    -0.026 A 
ATOM     18  C   UNL d   1      27.659  -8.919   0.087  0.00  0.00     0.012 A 
ATOM     19  C   UNL d   1      26.852  -9.922   2.143  0.00  0.00    -0.025 A 
ATOM     20  C   UNL d   1      26.515  -8.120   0.027  0.00  0.00     0.001 A 
ATOM     21  C   UNL d   1      25.537  -8.224   1.012  0.00  0.00     0.001 A 
ATOM     22  C   UNL d   1      25.705  -9.118   2.069  0.00  0.00     0.012 A 
ATOM     23  C   UNL d   1      27.034 -10.822   3.199  0.00  0.00     0.026 A 
ENDBRANCH  12  14
ENDBRANCH   8  11
ENDBRANCH   1   7
BRANCH   4  24
ATOM     24  C   UNL d   1      27.500 -15.134  -3.823  0.00  0.00     0.219 A 
ATOM     25  N   UNL d   1      26.593 -15.277  -4.826  0.00  0.00    -0.082 NA
ATOM     26  O   UNL d   1      27.246 -15.478  -6.028  0.00  0.00    -0.103 OA
ATOM     27  N   UNL d   1      28.630 -15.575  -5.986  0.00  0.00    -0.089 NA
ATOM     28  C   UNL d   1      29.005 -15.396  -4.726  0.00  0.00     0.180 A 
BRANCH  28  29
ATOM     29  N   UNL d   1      30.420 -15.042  -4.223  0.00  0.00    -0.282 NA
ATOM     30  H   UNL d   1      31.061 -15.790  -3.923  0.00  0.00     0.126 HD
ATOM     31  H   UNL d   1      31.112 -14.560  -4.841  0.00  0.00     0.126 HD
ENDBRANCH  28  29
ENDBRANCH   4  24
BRANCH   6  32
ATOM     32  N   UNL d   1      26.910 -13.233  -2.620  0.00  0.00    -0.062 N 
ATOM     33  C   UNL d   1      28.670 -13.057  -3.282  0.00  0.00     0.235 C 
ATOM     34  C   UNL d   1      29.307 -11.239  -3.633  0.00  0.00     0.028 C 
ATOM     35  C   UNL d   1      27.985  -9.817  -4.124  0.00  0.00     0.004 C 
ATOM     36  C   UNL d   1      26.125 -10.164  -3.351  0.00  0.00     0.033 C 
ATOM     37  C   UNL d   1      25.530 -12.164  -3.201  0.00  0.00     0.184 C 
ATOM     38  C   UNL d   1      25.155 -13.329  -4.644  0.00  0.00     0.040 C 
ATOM     39  H   UNL d   1      26.596 -14.203  -2.778  0.00  0.00     0.280 HD
ENDBRANCH   6  32
TORSDOF 6
ENDMDL
