MODEL 1
REMARK VINA RESULT:    -8.631      0.000      0.000
REMARK INTER + INTRA:         -10.632
REMARK INTER:                  -9.824
REMARK INTRA:                  -0.808
REMARK CONF_INDEPENDENT:        1.193
REMARK UNBOUND:                -0.808
REMARK  4 active torsions:
REMARK  status: ('A' for Active; 'I' for Inactive)
REMARK       I    between atoms: N_1  and  C_2 
REMARK    1  A    between atoms: C_2  and  C_4 
REMARK    2  A    between atoms: C_10  and  N_11 
REMARK       I    between atoms: N_11  and  C_12 
REMARK    3  A    between atoms: C_12  and  C_14 
REMARK    4  A    between atoms: C_15  and  C_16 
ROOT
ATOM      1  N   UNL d   1      24.248 -16.075  -1.553  0.00  0.00    -0.323 N 
ATOM      2  C   UNL d   1      23.958 -17.164  -0.751  0.00  0.00     0.245 C 
ATOM      3  O   UNL d   1      24.800 -17.837  -0.149  0.00  0.00    -0.268 OA
ATOM      4  H   UNL d   1      23.533 -15.366  -1.663  0.00  0.00     0.169 HD
ENDROOT
BRANCH   1   5
ATOM      5  C   UNL d   1      25.541 -15.807  -2.124  0.00  0.00     0.050 A 
ATOM      6  C   UNL d   1      26.649 -16.536  -1.633  0.00  0.00     0.032 A 
ATOM      7  C   UNL d   1      27.943 -16.345  -2.163  0.00  0.00     0.026 A 
ATOM      8  C   UNL d   1      28.149 -15.429  -3.189  0.00  0.00     0.035 A 
ATOM      9  C   UNL d   1      27.088 -14.683  -3.673  0.00  0.00     0.043 A 
ATOM     10 CL   UNL d   1      29.718 -15.182  -3.847  0.00  0.00    -0.084 Cl
ATOM     11  C   UNL d   1      25.801 -14.852  -3.138  0.00  0.00     0.060 A 
BRANCH  11  12
ATOM     12  C   UNL d   1      24.829 -13.844  -3.612  0.00  0.00     0.251 C 
ATOM     13  N   UNL d   1      25.356 -12.644  -4.028  0.00  0.00    -0.366 N 
ATOM     14  H   UNL d   1      24.774 -12.150  -4.695  0.00  0.00     0.159 HD
ATOM     15  H   UNL d   1      26.353 -12.513  -4.133  0.00  0.00     0.159 HD
ATOM     16  O   UNL d   1      23.627 -14.075  -3.608  0.00  0.00    -0.268 OA
ENDBRANCH  11  12
ENDBRANCH   1   5
BRANCH   2  17
ATOM     17  C   UNL d   1      22.531 -17.452  -0.467  0.00  0.00     0.075 C 
ATOM     18  C   UNL d   1      22.185 -18.756  -0.430  0.00  0.00     0.020 C 
BRANCH  18  19
ATOM     19  C   UNL d   1      20.902 -19.268   0.060  0.00  0.00     0.003 A 
ATOM     20  C   UNL d   1      20.657 -19.327   1.444  0.00  0.00     0.014 A 
ATOM     21  C   UNL d   1      19.446 -19.833   1.927  0.00  0.00     0.001 A 
ATOM     22  C   UNL d   1      18.477 -20.294   1.036  0.00  0.00     0.003 A 
ATOM     23  C   UNL d   1      18.715 -20.244  -0.335  0.00  0.00     0.043 A 
ATOM     24  C   UNL d   1      19.916 -19.733  -0.811  0.00  0.00     0.126 A 
ATOM     25  F   UNL d   1      20.113 -19.700  -2.138  0.00  0.00    -0.205 F 
ENDBRANCH  18  19
ENDBRANCH   2  17
TORSDOF 4
ENDMDL
MODEL 2
REMARK VINA RESULT:    -8.386      2.249      3.197
REMARK INTER + INTRA:         -10.500
REMARK INTER:                  -9.579
REMARK INTRA:                  -0.921
REMARK CONF_INDEPENDENT:        1.193
REMARK UNBOUND:                -0.921
REMARK  4 active torsions:
REMARK  status: ('A' for Active; 'I' for Inactive)
REMARK       I    between atoms: N_1  and  C_2 
REMARK    1  A    between atoms: C_2  and  C_4 
REMARK    2  A    between atoms: C_10  and  N_11 
REMARK       I    between atoms: N_11  and  C_12 
REMARK    3  A    between atoms: C_12  and  C_14 
REMARK    4  A    between atoms: C_15  and  C_16 
ROOT
ATOM      1  N   UNL d   1      24.413 -17.454  -0.360  0.00  0.00    -0.323 N 
ATOM      2  C   UNL d   1      23.356 -18.197  -0.851  0.00  0.00     0.245 C 
ATOM      3  O   UNL d   1      23.239 -18.561  -2.025  0.00  0.00    -0.268 OA
ATOM      4  H   UNL d   1      24.642 -17.550   0.623  0.00  0.00     0.169 HD
ENDROOT
BRANCH   1   5
ATOM      5  C   UNL d   1      25.301 -16.666  -1.174  0.00  0.00     0.050 A 
ATOM      6  C   UNL d   1      24.781 -16.083  -2.352  0.00  0.00     0.032 A 
ATOM      7  C   UNL d   1      25.585 -15.277  -3.185  0.00  0.00     0.026 A 
ATOM      8  C   UNL d   1      26.915 -15.038  -2.854  0.00  0.00     0.035 A 
ATOM      9  C   UNL d   1      27.458 -15.616  -1.719  0.00  0.00     0.043 A 
ATOM     10 CL   UNL d   1      27.911 -14.059  -3.856  0.00  0.00    -0.084 Cl
ATOM     11  C   UNL d   1      26.671 -16.435  -0.895  0.00  0.00     0.060 A 
BRANCH  11  12
ATOM     12  C   UNL d   1      27.446 -17.136   0.151  0.00  0.00     0.251 C 
ATOM     13  N   UNL d   1      28.807 -16.938   0.132  0.00  0.00    -0.366 N 
ATOM     14  H   UNL d   1      29.252 -17.070   1.032  0.00  0.00     0.159 HD
ATOM     15  H   UNL d   1      29.231 -16.247  -0.472  0.00  0.00     0.159 HD
ATOM     16  O   UNL d   1      26.892 -17.864   0.966  0.00  0.00    -0.268 OA
ENDBRANCH  11  12
ENDBRANCH   1   5
BRANCH   2  17
ATOM     17  C   UNL d   1      22.374 -18.730   0.124  0.00  0.00     0.075 C 
ATOM     18  C   UNL d   1      21.130 -18.954  -0.348  0.00  0.00     0.020 C 
BRANCH  18  19
ATOM     19  C   UNL d   1      20.083 -19.688   0.367  0.00  0.00     0.003 A 
ATOM     20  C   UNL d   1      19.048 -20.310  -0.357  0.00  0.00     0.014 A 
ATOM     21  C   UNL d   1      18.030 -20.996   0.313  0.00  0.00     0.001 A 
ATOM     22  C   UNL d   1      18.028 -21.057   1.706  0.00  0.00     0.003 A 
ATOM     23  C   UNL d   1      19.046 -20.439   2.429  0.00  0.00     0.043 A 
ATOM     24  C   UNL d   1      20.060 -19.765   1.760  0.00  0.00     0.126 A 
ATOM     25  F   UNL d   1      21.024 -19.181   2.487  0.00  0.00    -0.205 F 
ENDBRANCH  18  19
ENDBRANCH   2  17
TORSDOF 4
ENDMDL
MODEL 3
REMARK VINA RESULT:    -7.558      1.936      2.435
REMARK INTER + INTRA:          -9.907
REMARK INTER:                  -8.751
REMARK INTRA:                  -1.157
REMARK CONF_INDEPENDENT:        1.193
REMARK UNBOUND:                -1.157
REMARK  4 active torsions:
REMARK  status: ('A' for Active; 'I' for Inactive)
REMARK       I    between atoms: N_1  and  C_2 
REMARK    1  A    between atoms: C_2  and  C_4 
REMARK    2  A    between atoms: C_10  and  N_11 
REMARK       I    between atoms: N_11  and  C_12 
REMARK    3  A    between atoms: C_12  and  C_14 
REMARK    4  A    between atoms: C_15  and  C_16 
ROOT
ATOM      1  N   UNL d   1      24.676 -17.947  -1.074  0.00  0.00    -0.323 N 
ATOM      2  C   UNL d   1      23.396 -17.497  -0.811  0.00  0.00     0.245 C 
ATOM      3  O   UNL d   1      23.076 -16.307  -0.718  0.00  0.00    -0.268 OA
ATOM      4  H   UNL d   1      24.775 -18.849  -1.526  0.00  0.00     0.169 HD
ENDROOT
BRANCH   1   5
ATOM      5  C   UNL d   1      25.869 -17.166  -0.885  0.00  0.00     0.050 A 
ATOM      6  C   UNL d   1      26.649 -17.410   0.268  0.00  0.00     0.032 A 
ATOM      7  C   UNL d   1      27.845 -16.701   0.507  0.00  0.00     0.026 A 
ATOM      8  C   UNL d   1      28.281 -15.741  -0.401  0.00  0.00     0.035 A 
ATOM      9  C   UNL d   1      27.525 -15.463  -1.528  0.00  0.00     0.043 A 
ATOM     10 CL   UNL d   1      29.735 -14.866  -0.128  0.00  0.00    -0.084 Cl
ATOM     11  C   UNL d   1      26.324 -16.150  -1.763  0.00  0.00     0.060 A 
BRANCH  11  12
ATOM     12  C   UNL d   1      25.539 -15.595  -2.886  0.00  0.00     0.251 C 
ATOM     13  N   UNL d   1      24.402 -14.900  -2.545  0.00  0.00    -0.366 N 
ATOM     14  H   UNL d   1      24.118 -14.217  -3.237  0.00  0.00     0.159 HD
ATOM     15  H   UNL d   1      24.195 -14.666  -1.584  0.00  0.00     0.159 HD
ATOM     16  O   UNL d   1      25.886 -15.773  -4.047  0.00  0.00    -0.268 OA
ENDBRANCH  11  12
ENDBRANCH   1   5
BRANCH   2  17
ATOM     17  C   UNL d   1      22.301 -18.497  -0.792  0.00  0.00     0.075 C 
ATOM     18  C   UNL d   1      21.677 -18.672   0.392  0.00  0.00     0.020 C 
BRANCH  18  19
ATOM     19  C   UNL d   1      20.433 -19.423   0.579  0.00  0.00     0.003 A 
ATOM     20  C   UNL d   1      19.645 -19.757  -0.539  0.00  0.00     0.014 A 
ATOM     21  C   UNL d   1      18.444 -20.455  -0.374  0.00  0.00     0.001 A 
ATOM     22  C   UNL d   1      18.014 -20.812   0.904  0.00  0.00     0.003 A 
ATOM     23  C   UNL d   1      18.785 -20.479   2.015  0.00  0.00     0.043 A 
ATOM     24  C   UNL d   1      19.982 -19.793   1.846  0.00  0.00     0.126 A 
ATOM     25  F   UNL d   1      20.700 -19.487   2.937  0.00  0.00    -0.205 F 
ENDBRANCH  18  19
ENDBRANCH   2  17
TORSDOF 4
ENDMDL
MODEL 4
REMARK VINA RESULT:    -6.896      3.905      5.657
REMARK INTER + INTRA:          -9.086
REMARK INTER:                  -8.089
REMARK INTRA:                  -0.997
REMARK CONF_INDEPENDENT:        1.193
REMARK UNBOUND:                -0.997
REMARK  4 active torsions:
REMARK  status: ('A' for Active; 'I' for Inactive)
REMARK       I    between atoms: N_1  and  C_2 
REMARK    1  A    between atoms: C_2  and  C_4 
REMARK    2  A    between atoms: C_10  and  N_11 
REMARK       I    between atoms: N_11  and  C_12 
REMARK    3  A    between atoms: C_12  and  C_14 
REMARK    4  A    between atoms: C_15  and  C_16 
ROOT
ATOM      1  N   UNL d   1      26.241 -13.862  -4.163  0.00  0.00    -0.323 N 
ATOM      2  C   UNL d   1      24.958 -14.054  -3.684  0.00  0.00     0.245 C 
ATOM      3  O   UNL d   1      23.929 -13.700  -4.269  0.00  0.00    -0.268 OA
ATOM      4  H   UNL d   1      26.960 -14.509  -3.860  0.00  0.00     0.169 HD
ENDROOT
BRANCH   1   5
ATOM      5  C   UNL d   1      26.596 -12.901  -5.173  0.00  0.00     0.050 A 
ATOM      6  C   UNL d   1      25.904 -11.668  -5.191  0.00  0.00     0.032 A 
ATOM      7  C   UNL d   1      26.217 -10.667  -6.135  0.00  0.00     0.026 A 
ATOM      8  C   UNL d   1      27.224 -10.880  -7.071  0.00  0.00     0.035 A 
ATOM      9  C   UNL d   1      27.902 -12.087  -7.093  0.00  0.00     0.043 A 
ATOM     10 CL   UNL d   1      27.619  -9.674  -8.229  0.00  0.00    -0.084 Cl
ATOM     11  C   UNL d   1      27.584 -13.096  -6.170  0.00  0.00     0.060 A 
BRANCH  11  12
ATOM     12  C   UNL d   1      28.246 -14.386  -6.457  0.00  0.00     0.251 C 
ATOM     13  N   UNL d   1      28.935 -14.463  -7.645  0.00  0.00    -0.366 N 
ATOM     14  H   UNL d   1      29.679 -15.150  -7.643  0.00  0.00     0.159 HD
ATOM     15  H   UNL d   1      29.094 -13.644  -8.217  0.00  0.00     0.159 HD
ATOM     16  O   UNL d   1      28.158 -15.328  -5.679  0.00  0.00    -0.268 OA
ENDBRANCH  11  12
ENDBRANCH   1   5
BRANCH   2  17
ATOM     17  C   UNL d   1      24.793 -14.878  -2.462  0.00  0.00     0.075 C 
ATOM     18  C   UNL d   1      25.466 -16.048  -2.439  0.00  0.00     0.020 C 
BRANCH  18  19
ATOM     19  C   UNL d   1      25.633 -16.894  -1.254  0.00  0.00     0.003 A 
ATOM     20  C   UNL d   1      26.926 -17.265  -0.839  0.00  0.00     0.014 A 
ATOM     21  C   UNL d   1      27.101 -18.090   0.277  0.00  0.00     0.001 A 
ATOM     22  C   UNL d   1      25.990 -18.559   0.979  0.00  0.00     0.003 A 
ATOM     23  C   UNL d   1      24.708 -18.200   0.570  0.00  0.00     0.043 A 
ATOM     24  C   UNL d   1      24.539 -17.374  -0.535  0.00  0.00     0.126 A 
ATOM     25  F   UNL d   1      23.291 -17.049  -0.901  0.00  0.00    -0.205 F 
ENDBRANCH  18  19
ENDBRANCH   2  17
TORSDOF 4
ENDMDL
MODEL 5
REMARK VINA RESULT:    -6.893     10.538     12.730
REMARK INTER + INTRA:          -8.697
REMARK INTER:                  -8.086
REMARK INTRA:                  -0.611
REMARK CONF_INDEPENDENT:        1.193
REMARK UNBOUND:                -0.611
REMARK  4 active torsions:
REMARK  status: ('A' for Active; 'I' for Inactive)
REMARK       I    between atoms: N_1  and  C_2 
REMARK    1  A    between atoms: C_2  and  C_4 
REMARK    2  A    between atoms: C_10  and  N_11 
REMARK       I    between atoms: N_11  and  C_12 
REMARK    3  A    between atoms: C_12  and  C_14 
REMARK    4  A    between atoms: C_15  and  C_16 
ROOT
ATOM      1  N   UNL d   1      32.015 -21.601   3.170  0.00  0.00    -0.323 N 
ATOM      2  C   UNL d   1      32.178 -20.813   4.294  0.00  0.00     0.245 C 
ATOM      3  O   UNL d   1      31.905 -19.610   4.355  0.00  0.00    -0.268 OA
ATOM      4  H   UNL d   1      31.867 -22.594   3.307  0.00  0.00     0.169 HD
ENDROOT
BRANCH   1   5
ATOM      5  C   UNL d   1      31.896 -21.091   1.830  0.00  0.00     0.050 A 
ATOM      6  C   UNL d   1      32.807 -20.093   1.415  0.00  0.00     0.032 A 
ATOM      7  C   UNL d   1      32.767 -19.565   0.107  0.00  0.00     0.026 A 
ATOM      8  C   UNL d   1      31.822 -20.025  -0.804  0.00  0.00     0.035 A 
ATOM      9  C   UNL d   1      30.901 -20.984  -0.418  0.00  0.00     0.043 A 
ATOM     10 CL   UNL d   1      31.757 -19.393  -2.401  0.00  0.00    -0.084 Cl
ATOM     11  C   UNL d   1      30.921 -21.501   0.886  0.00  0.00     0.060 A 
BRANCH  11  12
ATOM     12  C   UNL d   1      29.754 -22.354   1.200  0.00  0.00     0.251 C 
ATOM     13  N   UNL d   1      29.400 -23.272   0.239  0.00  0.00    -0.366 N 
ATOM     14  H   UNL d   1      28.904 -24.076   0.605  0.00  0.00     0.159 HD
ATOM     15  H   UNL d   1      29.986 -23.446  -0.566  0.00  0.00     0.159 HD
ATOM     16  O   UNL d   1      29.139 -22.221   2.250  0.00  0.00    -0.268 OA
ENDBRANCH  11  12
ENDBRANCH   1   5
BRANCH   2  17
ATOM     17  C   UNL d   1      32.559 -21.486   5.560  0.00  0.00     0.075 C 
ATOM     18  C   UNL d   1      33.881 -21.669   5.761  0.00  0.00     0.020 C 
BRANCH  18  19
ATOM     19  C   UNL d   1      34.484 -22.090   7.029  0.00  0.00     0.003 A 
ATOM     20  C   UNL d   1      34.905 -21.120   7.957  0.00  0.00     0.014 A 
ATOM     21  C   UNL d   1      35.502 -21.507   9.162  0.00  0.00     0.001 A 
ATOM     22  C   UNL d   1      35.696 -22.859   9.442  0.00  0.00     0.003 A 
ATOM     23  C   UNL d   1      35.288 -23.824   8.525  0.00  0.00     0.043 A 
ATOM     24  C   UNL d   1      34.688 -23.436   7.333  0.00  0.00     0.126 A 
ATOM     25  F   UNL d   1      34.307 -24.391   6.471  0.00  0.00    -0.205 F 
ENDBRANCH  18  19
ENDBRANCH   2  17
TORSDOF 4
ENDMDL
MODEL 6
REMARK VINA RESULT:    -6.729      4.198      5.913
REMARK INTER + INTRA:          -8.944
REMARK INTER:                  -7.922
REMARK INTRA:                  -1.022
REMARK CONF_INDEPENDENT:        1.193
REMARK UNBOUND:                -1.022
REMARK  4 active torsions:
REMARK  status: ('A' for Active; 'I' for Inactive)
REMARK       I    between atoms: N_1  and  C_2 
REMARK    1  A    between atoms: C_2  and  C_4 
REMARK    2  A    between atoms: C_10  and  N_11 
REMARK       I    between atoms: N_11  and  C_12 
REMARK    3  A    between atoms: C_12  and  C_14 
REMARK    4  A    between atoms: C_15  and  C_16 
ROOT
ATOM      1  N   UNL d   1      26.262 -13.882  -4.212  0.00  0.00    -0.323 N 
ATOM      2  C   UNL d   1      24.988 -14.061  -3.706  0.00  0.00     0.245 C 
ATOM      3  O   UNL d   1      23.951 -13.696  -4.269  0.00  0.00    -0.268 OA
ATOM      4  H   UNL d   1      26.981 -14.537  -3.923  0.00  0.00     0.169 HD
ENDROOT
BRANCH   1   5
ATOM      5  C   UNL d   1      26.607 -12.923  -5.228  0.00  0.00     0.050 A 
ATOM      6  C   UNL d   1      25.892 -11.704  -5.261  0.00  0.00     0.032 A 
ATOM      7  C   UNL d   1      26.193 -10.706  -6.213  0.00  0.00     0.026 A 
ATOM      8  C   UNL d   1      27.210 -10.909  -7.140  0.00  0.00     0.035 A 
ATOM      9  C   UNL d   1      27.910 -12.104  -7.147  0.00  0.00     0.043 A 
ATOM     10 CL   UNL d   1      27.591  -9.706  -8.307  0.00  0.00    -0.084 Cl
ATOM     11  C   UNL d   1      27.605 -13.109  -6.217  0.00  0.00     0.060 A 
BRANCH  11  12
ATOM     12  C   UNL d   1      28.293 -14.390  -6.487  0.00  0.00     0.251 C 
ATOM     13  N   UNL d   1      29.035 -14.446  -7.643  0.00  0.00    -0.366 N 
ATOM     14  H   UNL d   1      29.786 -15.126  -7.615  0.00  0.00     0.159 HD
ATOM     15  H   UNL d   1      29.211 -13.620  -8.198  0.00  0.00     0.159 HD
ATOM     16  O   UNL d   1      28.179 -15.341  -5.724  0.00  0.00    -0.268 OA
ENDBRANCH  11  12
ENDBRANCH   1   5
BRANCH   2  17
ATOM     17  C   UNL d   1      24.840 -14.884  -2.481  0.00  0.00     0.075 C 
ATOM     18  C   UNL d   1      25.473 -16.076  -2.486  0.00  0.00     0.020 C 
BRANCH  18  19
ATOM     19  C   UNL d   1      25.655 -16.932  -1.311  0.00  0.00     0.003 A 
ATOM     20  C   UNL d   1      24.564 -17.664  -0.806  0.00  0.00     0.014 A 
ATOM     21  C   UNL d   1      24.717 -18.468   0.329  0.00  0.00     0.001 A 
ATOM     22  C   UNL d   1      25.952 -18.539   0.973  0.00  0.00     0.003 A 
ATOM     23  C   UNL d   1      27.034 -17.812   0.482  0.00  0.00     0.043 A 
ATOM     24  C   UNL d   1      26.880 -17.021  -0.649  0.00  0.00     0.126 A 
ATOM     25  F   UNL d   1      27.943 -16.334  -1.095  0.00  0.00    -0.205 F 
ENDBRANCH  18  19
ENDBRANCH   2  17
TORSDOF 4
ENDMDL
MODEL 7
REMARK VINA RESULT:    -6.593      4.012      8.809
REMARK INTER + INTRA:          -8.589
REMARK INTER:                  -7.786
REMARK INTRA:                  -0.803
REMARK CONF_INDEPENDENT:        1.193
REMARK UNBOUND:                -0.803
REMARK  4 active torsions:
REMARK  status: ('A' for Active; 'I' for Inactive)
REMARK       I    between atoms: N_1  and  C_2 
REMARK    1  A    between atoms: C_2  and  C_4 
REMARK    2  A    between atoms: C_10  and  N_11 
REMARK       I    between atoms: N_11  and  C_12 
REMARK    3  A    between atoms: C_12  and  C_14 
REMARK    4  A    between atoms: C_15  and  C_16 
ROOT
ATOM      1  N   UNL d   1      25.817 -15.597  -1.971  0.00  0.00    -0.323 N 
ATOM      2  C   UNL d   1      25.564 -14.814  -3.082  0.00  0.00     0.245 C 
ATOM      3  O   UNL d   1      24.440 -14.449  -3.443  0.00  0.00    -0.268 OA
ATOM      4  H   UNL d   1      26.724 -15.507  -1.527  0.00  0.00     0.169 HD
ENDROOT
BRANCH   1   5
ATOM      5  C   UNL d   1      24.837 -16.422  -1.317  0.00  0.00     0.050 A 
ATOM      6  C   UNL d   1      23.472 -16.094  -1.485  0.00  0.00     0.032 A 
ATOM      7  C   UNL d   1      22.455 -16.873  -0.895  0.00  0.00     0.026 A 
ATOM      8  C   UNL d   1      22.783 -17.989  -0.132  0.00  0.00     0.035 A 
ATOM      9  C   UNL d   1      24.112 -18.320   0.071  0.00  0.00     0.043 A 
ATOM     10 CL   UNL d   1      21.557 -18.950   0.595  0.00  0.00    -0.084 Cl
ATOM     11  C   UNL d   1      25.131 -17.540  -0.496  0.00  0.00     0.060 A 
BRANCH  11  12
ATOM     12  C   UNL d   1      26.483 -17.900  -0.018  0.00  0.00     0.251 C 
ATOM     13  N   UNL d   1      26.542 -18.575   1.178  0.00  0.00    -0.366 N 
ATOM     14  H   UNL d   1      27.373 -19.146   1.285  0.00  0.00     0.159 HD
ATOM     15  H   UNL d   1      25.708 -18.924   1.629  0.00  0.00     0.159 HD
ATOM     16  O   UNL d   1      27.481 -17.587  -0.655  0.00  0.00    -0.268 OA
ENDBRANCH  11  12
ENDBRANCH   1   5
BRANCH   2  17
ATOM     17  C   UNL d   1      26.726 -14.239  -3.803  0.00  0.00     0.075 C 
ATOM     18  C   UNL d   1      27.290 -15.027  -4.742  0.00  0.00     0.020 C 
BRANCH  18  19
ATOM     19  C   UNL d   1      28.283 -14.580  -5.723  0.00  0.00     0.003 A 
ATOM     20  C   UNL d   1      29.416 -15.374  -5.980  0.00  0.00     0.014 A 
ATOM     21  C   UNL d   1      30.383 -14.950  -6.898  0.00  0.00     0.001 A 
ATOM     22  C   UNL d   1      30.233 -13.728  -7.555  0.00  0.00     0.003 A 
ATOM     23  C   UNL d   1      29.117 -12.935  -7.301  0.00  0.00     0.043 A 
ATOM     24  C   UNL d   1      28.155 -13.363  -6.394  0.00  0.00     0.126 A 
ATOM     25  F   UNL d   1      27.093 -12.575  -6.172  0.00  0.00    -0.205 F 
ENDBRANCH  18  19
ENDBRANCH   2  17
TORSDOF 4
ENDMDL
MODEL 8
REMARK VINA RESULT:    -6.500      4.189      9.037
REMARK INTER + INTRA:          -8.662
REMARK INTER:                  -7.693
REMARK INTRA:                  -0.968
REMARK CONF_INDEPENDENT:        1.193
REMARK UNBOUND:                -0.968
REMARK  4 active torsions:
REMARK  status: ('A' for Active; 'I' for Inactive)
REMARK       I    between atoms: N_1  and  C_2 
REMARK    1  A    between atoms: C_2  and  C_4 
REMARK    2  A    between atoms: C_10  and  N_11 
REMARK       I    between atoms: N_11  and  C_12 
REMARK    3  A    between atoms: C_12  and  C_14 
REMARK    4  A    between atoms: C_15  and  C_16 
ROOT
ATOM      1  N   UNL d   1      26.515 -15.649  -2.495  0.00  0.00    -0.323 N 
ATOM      2  C   UNL d   1      26.300 -15.084  -3.738  0.00  0.00     0.245 C 
ATOM      3  O   UNL d   1      25.188 -14.819  -4.206  0.00  0.00    -0.268 OA
ATOM      4  H   UNL d   1      27.399 -15.458  -2.036  0.00  0.00     0.169 HD
ENDROOT
BRANCH   1   5
ATOM      5  C   UNL d   1      25.520 -16.368  -1.745  0.00  0.00     0.050 A 
ATOM      6  C   UNL d   1      24.162 -16.030  -1.947  0.00  0.00     0.032 A 
ATOM      7  C   UNL d   1      23.130 -16.710  -1.266  0.00  0.00     0.026 A 
ATOM      8  C   UNL d   1      23.437 -17.735  -0.377  0.00  0.00     0.035 A 
ATOM      9  C   UNL d   1      24.759 -18.071  -0.140  0.00  0.00     0.043 A 
ATOM     10 CL   UNL d   1      22.193 -18.575   0.462  0.00  0.00    -0.084 Cl
ATOM     11  C   UNL d   1      25.792 -17.387  -0.798  0.00  0.00     0.060 A 
BRANCH  11  12
ATOM     12  C   UNL d   1      27.139 -17.719  -0.284  0.00  0.00     0.251 C 
ATOM     13  N   UNL d   1      27.207 -18.770   0.600  0.00  0.00    -0.366 N 
ATOM     14  H   UNL d   1      28.110 -19.228   0.622  0.00  0.00     0.159 HD
ATOM     15  H   UNL d   1      26.408 -19.363   0.777  0.00  0.00     0.159 HD
ATOM     16  O   UNL d   1      28.121 -17.070  -0.622  0.00  0.00    -0.268 OA
ENDBRANCH  11  12
ENDBRANCH   1   5
BRANCH   2  17
ATOM     17  C   UNL d   1      27.484 -14.620  -4.501  0.00  0.00     0.075 C 
ATOM     18  C   UNL d   1      28.377 -15.570  -4.849  0.00  0.00     0.020 C 
BRANCH  18  19
ATOM     19  C   UNL d   1      29.481 -15.376  -5.793  0.00  0.00     0.003 A 
ATOM     20  C   UNL d   1      29.636 -14.136  -6.439  0.00  0.00     0.014 A 
ATOM     21  C   UNL d   1      30.672 -13.942  -7.359  0.00  0.00     0.001 A 
ATOM     22  C   UNL d   1      31.550 -14.986  -7.650  0.00  0.00     0.003 A 
ATOM     23  C   UNL d   1      31.399 -16.218  -7.018  0.00  0.00     0.043 A 
ATOM     24  C   UNL d   1      30.373 -16.403  -6.100  0.00  0.00     0.126 A 
ATOM     25  F   UNL d   1      30.256 -17.603  -5.510  0.00  0.00    -0.205 F 
ENDBRANCH  18  19
ENDBRANCH   2  17
TORSDOF 4
ENDMDL
MODEL 9
REMARK VINA RESULT:    -6.359      3.342      4.980
REMARK INTER + INTRA:          -8.784
REMARK INTER:                  -7.552
REMARK INTRA:                  -1.232
REMARK CONF_INDEPENDENT:        1.193
REMARK UNBOUND:                -1.232
REMARK  4 active torsions:
REMARK  status: ('A' for Active; 'I' for Inactive)
REMARK       I    between atoms: N_1  and  C_2 
REMARK    1  A    between atoms: C_2  and  C_4 
REMARK    2  A    between atoms: C_10  and  N_11 
REMARK       I    between atoms: N_11  and  C_12 
REMARK    3  A    between atoms: C_12  and  C_14 
REMARK    4  A    between atoms: C_15  and  C_16 
ROOT
ATOM      1  N   UNL d   1      27.067 -14.537  -4.854  0.00  0.00    -0.323 N 
ATOM      2  C   UNL d   1      25.828 -14.695  -4.263  0.00  0.00     0.245 C 
ATOM      3  O   UNL d   1      24.807 -14.084  -4.596  0.00  0.00    -0.268 OA
ATOM      4  H   UNL d   1      27.710 -15.319  -4.819  0.00  0.00     0.169 HD
ENDROOT
BRANCH   1   5
ATOM      5  C   UNL d   1      27.454 -13.395  -5.640  0.00  0.00     0.050 A 
ATOM      6  C   UNL d   1      28.179 -13.622  -6.832  0.00  0.00     0.032 A 
ATOM      7  C   UNL d   1      28.569 -12.553  -7.666  0.00  0.00     0.026 A 
ATOM      8  C   UNL d   1      28.240 -11.245  -7.325  0.00  0.00     0.035 A 
ATOM      9  C   UNL d   1      27.552 -10.990  -6.150  0.00  0.00     0.043 A 
ATOM     10 CL   UNL d   1      28.707  -9.929  -8.327  0.00  0.00    -0.084 Cl
ATOM     11  C   UNL d   1      27.177 -12.046  -5.305  0.00  0.00     0.060 A 
BRANCH  11  12
ATOM     12  C   UNL d   1      26.640 -11.595  -4.004  0.00  0.00     0.251 C 
ATOM     13  N   UNL d   1      25.270 -11.537  -3.901  0.00  0.00    -0.366 N 
ATOM     14  H   UNL d   1      24.926 -11.627  -2.952  0.00  0.00     0.159 HD
ATOM     15  H   UNL d   1      24.670 -11.913  -4.623  0.00  0.00     0.159 HD
ATOM     16  O   UNL d   1      27.389 -11.276  -3.088  0.00  0.00    -0.268 OA
ENDBRANCH  11  12
ENDBRANCH   1   5
BRANCH   2  17
ATOM     17  C   UNL d   1      25.671 -15.782  -3.266  0.00  0.00     0.075 C 
ATOM     18  C   UNL d   1      24.784 -15.555  -2.275  0.00  0.00     0.020 C 
BRANCH  18  19
ATOM     19  C   UNL d   1      24.304 -16.570  -1.333  0.00  0.00     0.003 A 
ATOM     20  C   UNL d   1      25.176 -17.587  -0.899  0.00  0.00     0.014 A 
ATOM     21  C   UNL d   1      24.726 -18.575  -0.017  0.00  0.00     0.001 A 
ATOM     22  C   UNL d   1      23.404 -18.564   0.428  0.00  0.00     0.003 A 
ATOM     23  C   UNL d   1      22.535 -17.564  -0.002  0.00  0.00     0.043 A 
ATOM     24  C   UNL d   1      22.988 -16.580  -0.872  0.00  0.00     0.126 A 
ATOM     25  F   UNL d   1      22.124 -15.633  -1.267  0.00  0.00    -0.205 F 
ENDBRANCH  18  19
ENDBRANCH   2  17
TORSDOF 4
ENDMDL
