MODEL 1
REMARK VINA RESULT:    -8.562      0.000      0.000
REMARK INTER + INTRA:         -10.483
REMARK INTER:                  -9.755
REMARK INTRA:                  -0.728
REMARK CONF_INDEPENDENT:        1.193
REMARK UNBOUND:                -0.728
REMARK  4 active torsions:
REMARK  status: ('A' for Active; 'I' for Inactive)
REMARK    1  A    between atoms: C_5  and  N_6 
REMARK       I    between atoms: N_6  and  C_7 
REMARK       I    between atoms: C_7  and  N_9 
REMARK    2  A    between atoms: N_9  and  C_10 
REMARK    3  A    between atoms: C_13  and  O_14 
REMARK    4  A    between atoms: O_14  and  C_15 
ROOT
ATOM      1  C   UNL d   1      24.255 -17.168  -0.957  0.00  0.00     0.036 A 
ATOM      2  C   UNL d   1      23.157 -16.301  -0.957  0.00  0.00     0.032 A 
ATOM      3  C   UNL d   1      21.839 -16.818  -0.895  0.00  0.00     0.039 A 
ATOM      4  C   UNL d   1      21.608 -18.202  -0.892  0.00  0.00     0.076 A 
ATOM      5  C   UNL d   1      22.710 -19.051  -0.882  0.00  0.00     0.039 A 
ATOM      6  C   UNL d   1      24.003 -18.542  -0.896  0.00  0.00     0.032 A 
ENDROOT
BRANCH   1   7
ATOM      7  N   UNL d   1      25.610 -16.709  -1.015  0.00  0.00    -0.309 N 
ATOM      8  C   UNL d   1      26.148 -16.329  -2.238  0.00  0.00     0.325 C 
ATOM      9  N   UNL d   1      27.485 -15.959  -2.250  0.00  0.00    -0.309 N 
ATOM     10  O   UNL d   1      25.431 -16.319  -3.246  0.00  0.00    -0.247 OA
ATOM     11  H   UNL d   1      28.012 -15.987  -1.389  0.00  0.00     0.170 HD
ATOM     12  H   UNL d   1      26.060 -16.437  -0.155  0.00  0.00     0.170 HD
BRANCH   9  13
ATOM     13  C   UNL d   1      28.184 -15.551  -3.440  0.00  0.00     0.036 A 
ATOM     14  C   UNL d   1      27.583 -14.717  -4.394  0.00  0.00     0.030 A 
ATOM     15  C   UNL d   1      28.292 -14.315  -5.553  0.00  0.00     0.009 A 
ATOM     16  C   UNL d   1      29.609 -14.735  -5.779  0.00  0.00    -0.062 A 
ATOM     17  C   UNL d   1      30.414 -14.326  -6.974  0.00  0.00     0.048 C 
ATOM     18  C   UNL d   1      30.201 -15.567  -4.842  0.00  0.00     0.009 A 
ATOM     19  C   UNL d   1      29.498 -15.962  -3.707  0.00  0.00     0.030 A 
ENDBRANCH   9  13
ENDBRANCH   1   7
BRANCH   4  20
ATOM     20  O   UNL d   1      20.297 -18.645  -0.968  0.00  0.00    -0.311 OA
BRANCH  20  21
ATOM     21  C   UNL d   1      19.811 -19.420   0.070  0.00  0.00     0.076 A 
ATOM     22  C   UNL d   1      20.396 -19.325   1.336  0.00  0.00     0.037 A 
ATOM     23  C   UNL d   1      19.898 -20.105   2.390  0.00  0.00     0.003 A 
ATOM     24  C   UNL d   1      18.780 -20.917   2.193  0.00  0.00     0.000 A 
ATOM     25  C   UNL d   1      18.208 -21.019   0.927  0.00  0.00     0.003 A 
ATOM     26  C   UNL d   1      18.753 -20.310  -0.141  0.00  0.00     0.037 A 
ENDBRANCH  20  21
ENDBRANCH   4  20
TORSDOF 4
ENDMDL
MODEL 2
REMARK VINA RESULT:    -8.486      0.696      1.235
REMARK INTER + INTRA:         -10.382
REMARK INTER:                  -9.679
REMARK INTRA:                  -0.703
REMARK CONF_INDEPENDENT:        1.193
REMARK UNBOUND:                -0.703
REMARK  4 active torsions:
REMARK  status: ('A' for Active; 'I' for Inactive)
REMARK    1  A    between atoms: C_5  and  N_6 
REMARK       I    between atoms: N_6  and  C_7 
REMARK       I    between atoms: C_7  and  N_9 
REMARK    2  A    between atoms: N_9  and  C_10 
REMARK    3  A    between atoms: C_13  and  O_14 
REMARK    4  A    between atoms: O_14  and  C_15 
ROOT
ATOM      1  C   UNL d   1      24.498 -17.333  -0.597  0.00  0.00     0.036 A 
ATOM      2  C   UNL d   1      23.526 -16.334  -0.712  0.00  0.00     0.032 A 
ATOM      3  C   UNL d   1      22.151 -16.675  -0.744  0.00  0.00     0.039 A 
ATOM      4  C   UNL d   1      21.742 -18.016  -0.721  0.00  0.00     0.076 A 
ATOM      5  C   UNL d   1      22.719 -18.998  -0.596  0.00  0.00     0.039 A 
ATOM      6  C   UNL d   1      24.064 -18.660  -0.518  0.00  0.00     0.032 A 
ENDROOT
BRANCH   1   7
ATOM      7  N   UNL d   1      25.902 -17.054  -0.557  0.00  0.00    -0.309 N 
ATOM      8  C   UNL d   1      26.558 -16.696  -1.727  0.00  0.00     0.325 C 
ATOM      9  N   UNL d   1      27.930 -16.504  -1.646  0.00  0.00    -0.309 N 
ATOM     10  O   UNL d   1      25.912 -16.549  -2.772  0.00  0.00    -0.247 OA
ATOM     11  H   UNL d   1      28.395 -16.639  -0.759  0.00  0.00     0.170 HD
ATOM     12  H   UNL d   1      26.329 -16.880   0.340  0.00  0.00     0.170 HD
BRANCH   9  13
ATOM     13  C   UNL d   1      28.748 -16.141  -2.774  0.00  0.00     0.036 A 
ATOM     14  C   UNL d   1      29.978 -16.768  -3.018  0.00  0.00     0.030 A 
ATOM     15  C   UNL d   1      30.763 -16.407  -4.141  0.00  0.00     0.009 A 
ATOM     16  C   UNL d   1      30.335 -15.420  -5.037  0.00  0.00    -0.062 A 
ATOM     17  C   UNL d   1      31.111 -15.011  -6.252  0.00  0.00     0.048 C 
ATOM     18  C   UNL d   1      29.124 -14.793  -4.792  0.00  0.00     0.009 A 
ATOM     19  C   UNL d   1      28.359 -15.149  -3.685  0.00  0.00     0.030 A 
ENDBRANCH   9  13
ENDBRANCH   1   7
BRANCH   4  20
ATOM     20  O   UNL d   1      20.394 -18.291  -0.892  0.00  0.00    -0.311 OA
BRANCH  20  21
ATOM     21  C   UNL d   1      19.807 -19.219  -0.050  0.00  0.00     0.076 A 
ATOM     22  C   UNL d   1      20.244 -19.326   1.273  0.00  0.00     0.037 A 
ATOM     23  C   UNL d   1      19.644 -20.263   2.127  0.00  0.00     0.003 A 
ATOM     24  C   UNL d   1      18.569 -21.033   1.680  0.00  0.00     0.000 A 
ATOM     25  C   UNL d   1      18.146 -20.933   0.356  0.00  0.00     0.003 A 
ATOM     26  C   UNL d   1      18.796 -20.064  -0.518  0.00  0.00     0.037 A 
ENDBRANCH  20  21
ENDBRANCH   4  20
TORSDOF 4
ENDMDL
MODEL 3
REMARK VINA RESULT:    -8.450      1.680      2.239
REMARK INTER + INTRA:         -10.255
REMARK INTER:                  -9.643
REMARK INTRA:                  -0.612
REMARK CONF_INDEPENDENT:        1.193
REMARK UNBOUND:                -0.612
REMARK  4 active torsions:
REMARK  status: ('A' for Active; 'I' for Inactive)
REMARK    1  A    between atoms: C_5  and  N_6 
REMARK       I    between atoms: N_6  and  C_7 
REMARK       I    between atoms: C_7  and  N_9 
REMARK    2  A    between atoms: N_9  and  C_10 
REMARK    3  A    between atoms: C_13  and  O_14 
REMARK    4  A    between atoms: O_14  and  C_15 
ROOT
ATOM      1  C   UNL d   1      24.622 -18.016  -0.072  0.00  0.00     0.036 A 
ATOM      2  C   UNL d   1      23.992 -19.256  -0.215  0.00  0.00     0.032 A 
ATOM      3  C   UNL d   1      22.613 -19.325  -0.534  0.00  0.00     0.039 A 
ATOM      4  C   UNL d   1      21.844 -18.158  -0.654  0.00  0.00     0.076 A 
ATOM      5  C   UNL d   1      22.486 -16.932  -0.519  0.00  0.00     0.039 A 
ATOM      6  C   UNL d   1      23.848 -16.865  -0.252  0.00  0.00     0.032 A 
ENDROOT
BRANCH   1   7
ATOM      7  N   UNL d   1      26.012 -17.879   0.247  0.00  0.00    -0.309 N 
ATOM      8  C   UNL d   1      26.891 -17.426  -0.728  0.00  0.00     0.325 C 
ATOM      9  N   UNL d   1      28.236 -17.379  -0.389  0.00  0.00    -0.309 N 
ATOM     10  O   UNL d   1      26.456 -17.075  -1.831  0.00  0.00    -0.247 OA
ATOM     11  H   UNL d   1      28.523 -17.679   0.532  0.00  0.00     0.170 HD
ATOM     12  H   UNL d   1      26.281 -17.873   1.218  0.00  0.00     0.170 HD
BRANCH   9  13
ATOM     13  C   UNL d   1      29.266 -16.942  -1.294  0.00  0.00     0.036 A 
ATOM     14  C   UNL d   1      28.968 -16.171  -2.426  0.00  0.00     0.030 A 
ATOM     15  C   UNL d   1      29.998 -15.739  -3.298  0.00  0.00     0.009 A 
ATOM     16  C   UNL d   1      31.339 -16.066  -3.056  0.00  0.00    -0.062 A 
ATOM     17  C   UNL d   1      32.471 -15.620  -3.930  0.00  0.00     0.048 C 
ATOM     18  C   UNL d   1      31.633 -16.836  -1.942  0.00  0.00     0.009 A 
ATOM     19  C   UNL d   1      30.617 -17.261  -1.091  0.00  0.00     0.030 A 
ENDBRANCH   9  13
ENDBRANCH   1   7
BRANCH   4  20
ATOM     20  O   UNL d   1      20.475 -18.294  -0.831  0.00  0.00    -0.311 OA
BRANCH  20  21
ATOM     21  C   UNL d   1      19.805 -19.209  -0.040  0.00  0.00     0.076 A 
ATOM     22  C   UNL d   1      20.132 -19.325   1.314  0.00  0.00     0.037 A 
ATOM     23  C   UNL d   1      19.447 -20.248   2.116  0.00  0.00     0.003 A 
ATOM     24  C   UNL d   1      18.396 -20.996   1.583  0.00  0.00     0.000 A 
ATOM     25  C   UNL d   1      18.081 -20.888   0.230  0.00  0.00     0.003 A 
ATOM     26  C   UNL d   1      18.817 -20.033  -0.588  0.00  0.00     0.037 A 
ENDBRANCH  20  21
ENDBRANCH   4  20
TORSDOF 4
ENDMDL
MODEL 4
REMARK VINA RESULT:    -8.306      1.859      2.599
REMARK INTER + INTRA:         -10.237
REMARK INTER:                  -9.499
REMARK INTRA:                  -0.738
REMARK CONF_INDEPENDENT:        1.193
REMARK UNBOUND:                -0.738
REMARK  4 active torsions:
REMARK  status: ('A' for Active; 'I' for Inactive)
REMARK    1  A    between atoms: C_5  and  N_6 
REMARK       I    between atoms: N_6  and  C_7 
REMARK       I    between atoms: C_7  and  N_9 
REMARK    2  A    between atoms: N_9  and  C_10 
REMARK    3  A    between atoms: C_13  and  O_14 
REMARK    4  A    between atoms: O_14  and  C_15 
ROOT
ATOM      1  C   UNL d   1      24.040 -16.691  -1.125  0.00  0.00     0.036 A 
ATOM      2  C   UNL d   1      22.713 -16.293  -0.926  0.00  0.00     0.032 A 
ATOM      3  C   UNL d   1      21.675 -17.257  -0.895  0.00  0.00     0.039 A 
ATOM      4  C   UNL d   1      21.948 -18.614  -1.121  0.00  0.00     0.076 A 
ATOM      5  C   UNL d   1      23.273 -18.996  -1.306  0.00  0.00     0.039 A 
ATOM      6  C   UNL d   1      24.295 -18.055  -1.290  0.00  0.00     0.032 A 
ENDROOT
BRANCH   1   7
ATOM      7  N   UNL d   1      25.133 -15.766  -1.163  0.00  0.00    -0.309 N 
ATOM      8  C   UNL d   1      25.253 -14.899  -2.241  0.00  0.00     0.325 C 
ATOM      9  N   UNL d   1      26.368 -14.073  -2.264  0.00  0.00    -0.309 N 
ATOM     10  O   UNL d   1      24.378 -14.883  -3.115  0.00  0.00    -0.247 OA
ATOM     11  H   UNL d   1      27.044 -14.137  -1.515  0.00  0.00     0.170 HD
ATOM     12  H   UNL d   1      25.641 -15.591  -0.309  0.00  0.00     0.170 HD
BRANCH   9  13
ATOM     13  C   UNL d   1      26.635 -13.131  -3.318  0.00  0.00     0.036 A 
ATOM     14  C   UNL d   1      27.259 -13.525  -4.511  0.00  0.00     0.030 A 
ATOM     15  C   UNL d   1      27.502 -12.585  -5.543  0.00  0.00     0.009 A 
ATOM     16  C   UNL d   1      27.127 -11.243  -5.405  0.00  0.00    -0.062 A 
ATOM     17  C   UNL d   1      27.339 -10.211  -6.470  0.00  0.00     0.048 C 
ATOM     18  C   UNL d   1      26.520 -10.851  -4.223  0.00  0.00     0.009 A 
ATOM     19  C   UNL d   1      26.287 -11.777  -3.211  0.00  0.00     0.030 A 
ENDBRANCH   9  13
ENDBRANCH   1   7
BRANCH   4  20
ATOM     20  O   UNL d   1      20.876 -19.489  -1.214  0.00  0.00    -0.311 OA
BRANCH  20  21
ATOM     21  C   UNL d   1      20.172 -19.780  -0.059  0.00  0.00     0.076 A 
ATOM     22  C   UNL d   1      18.951 -20.456  -0.144  0.00  0.00     0.037 A 
ATOM     23  C   UNL d   1      18.242 -20.756   1.027  0.00  0.00     0.003 A 
ATOM     24  C   UNL d   1      18.786 -20.447   2.275  0.00  0.00     0.000 A 
ATOM     25  C   UNL d   1      19.996 -19.761   2.356  0.00  0.00     0.003 A 
ATOM     26  C   UNL d   1      20.661 -19.386   1.190  0.00  0.00     0.037 A 
ENDBRANCH  20  21
ENDBRANCH   4  20
TORSDOF 4
ENDMDL
MODEL 5
REMARK VINA RESULT:    -7.981      3.242      3.844
REMARK INTER + INTRA:          -9.530
REMARK INTER:                  -9.174
REMARK INTRA:                  -0.356
REMARK CONF_INDEPENDENT:        1.193
REMARK UNBOUND:                -0.356
REMARK  4 active torsions:
REMARK  status: ('A' for Active; 'I' for Inactive)
REMARK    1  A    between atoms: C_5  and  N_6 
REMARK       I    between atoms: N_6  and  C_7 
REMARK       I    between atoms: C_7  and  N_9 
REMARK    2  A    between atoms: N_9  and  C_10 
REMARK    3  A    between atoms: C_13  and  O_14 
REMARK    4  A    between atoms: O_14  and  C_15 
ROOT
ATOM      1  C   UNL d   1      25.085 -17.688  -0.443  0.00  0.00     0.036 A 
ATOM      2  C   UNL d   1      24.302 -16.587  -0.807  0.00  0.00     0.032 A 
ATOM      3  C   UNL d   1      22.892 -16.710  -0.890  0.00  0.00     0.039 A 
ATOM      4  C   UNL d   1      22.264 -17.944  -0.666  0.00  0.00     0.076 A 
ATOM      5  C   UNL d   1      23.055 -19.026  -0.295  0.00  0.00     0.039 A 
ATOM      6  C   UNL d   1      24.432 -18.893  -0.170  0.00  0.00     0.032 A 
ENDROOT
BRANCH   1   7
ATOM      7  N   UNL d   1      26.513 -17.628  -0.340  0.00  0.00    -0.309 N 
ATOM      8  C   UNL d   1      27.111 -16.474   0.150  0.00  0.00     0.325 C 
ATOM      9  N   UNL d   1      28.498 -16.442   0.164  0.00  0.00    -0.309 N 
ATOM     10  O   UNL d   1      26.406 -15.544   0.558  0.00  0.00    -0.247 OA
ATOM     11  H   UNL d   1      29.013 -17.239  -0.184  0.00  0.00     0.170 HD
ATOM     12  H   UNL d   1      27.032 -18.491  -0.383  0.00  0.00     0.170 HD
BRANCH   9  13
ATOM     13  C   UNL d   1      29.260 -15.314   0.631  0.00  0.00     0.036 A 
ATOM     14  C   UNL d   1      28.775 -14.469   1.639  0.00  0.00     0.030 A 
ATOM     15  C   UNL d   1      29.546 -13.371   2.096  0.00  0.00     0.009 A 
ATOM     16  C   UNL d   1      30.810 -13.099   1.558  0.00  0.00    -0.062 A 
ATOM     17  C   UNL d   1      31.678 -11.967   2.014  0.00  0.00     0.048 C 
ATOM     18  C   UNL d   1      31.286 -13.928   0.555  0.00  0.00     0.009 A 
ATOM     19  C   UNL d   1      30.523 -15.003   0.107  0.00  0.00     0.030 A 
ENDBRANCH   9  13
ENDBRANCH   1   7
BRANCH   4  20
ATOM     20  O   UNL d   1      20.899 -18.032  -0.895  0.00  0.00    -0.311 OA
BRANCH  20  21
ATOM     21  C   UNL d   1      20.189 -19.010  -0.221  0.00  0.00     0.076 A 
ATOM     22  C   UNL d   1      20.526 -19.324   1.099  0.00  0.00     0.037 A 
ATOM     23  C   UNL d   1      19.801 -20.309   1.783  0.00  0.00     0.003 A 
ATOM     24  C   UNL d   1      18.704 -20.923   1.175  0.00  0.00     0.000 A 
ATOM     25  C   UNL d   1      18.380 -20.617  -0.145  0.00  0.00     0.003 A 
ATOM     26  C   UNL d   1      19.151 -19.700  -0.855  0.00  0.00     0.037 A 
ENDBRANCH  20  21
ENDBRANCH   4  20
TORSDOF 4
ENDMDL
MODEL 6
REMARK VINA RESULT:    -7.847      3.898      9.304
REMARK INTER + INTRA:          -9.685
REMARK INTER:                  -9.041
REMARK INTRA:                  -0.644
REMARK CONF_INDEPENDENT:        1.193
REMARK UNBOUND:                -0.644
REMARK  4 active torsions:
REMARK  status: ('A' for Active; 'I' for Inactive)
REMARK    1  A    between atoms: C_5  and  N_6 
REMARK       I    between atoms: N_6  and  C_7 
REMARK       I    between atoms: C_7  and  N_9 
REMARK    2  A    between atoms: N_9  and  C_10 
REMARK    3  A    between atoms: C_13  and  O_14 
REMARK    4  A    between atoms: O_14  and  C_15 
ROOT
ATOM      1  C   UNL d   1      25.498 -16.529  -1.139  0.00  0.00     0.036 A 
ATOM      2  C   UNL d   1      25.907 -15.297  -1.661  0.00  0.00     0.032 A 
ATOM      3  C   UNL d   1      27.001 -14.605  -1.083  0.00  0.00     0.039 A 
ATOM      4  C   UNL d   1      27.652 -15.109   0.052  0.00  0.00     0.076 A 
ATOM      5  C   UNL d   1      27.240 -16.340   0.553  0.00  0.00     0.039 A 
ATOM      6  C   UNL d   1      26.199 -17.040  -0.043  0.00  0.00     0.032 A 
ENDROOT
BRANCH   1   7
ATOM      7  N   UNL d   1      24.403 -17.278  -1.679  0.00  0.00    -0.309 N 
ATOM      8  C   UNL d   1      23.395 -17.717  -0.831  0.00  0.00     0.325 C 
ATOM      9  N   UNL d   1      22.395 -18.497  -1.393  0.00  0.00    -0.309 N 
ATOM     10  O   UNL d   1      23.414 -17.393   0.362  0.00  0.00    -0.247 OA
ATOM     11  H   UNL d   1      22.440 -18.723  -2.377  0.00  0.00     0.170 HD
ATOM     12  H   UNL d   1      24.257 -17.259  -2.677  0.00  0.00     0.170 HD
BRANCH   9  13
ATOM     13  C   UNL d   1      21.291 -19.033  -0.641  0.00  0.00     0.036 A 
ATOM     14  C   UNL d   1      20.149 -19.540  -1.277  0.00  0.00     0.030 A 
ATOM     15  C   UNL d   1      19.078 -20.076  -0.521  0.00  0.00     0.009 A 
ATOM     16  C   UNL d   1      19.128 -20.118   0.879  0.00  0.00    -0.062 A 
ATOM     17  C   UNL d   1      18.036 -20.691   1.729  0.00  0.00     0.048 C 
ATOM     18  C   UNL d   1      20.251 -19.608   1.509  0.00  0.00     0.009 A 
ATOM     19  C   UNL d   1      21.299 -19.080   0.761  0.00  0.00     0.030 A 
ENDBRANCH   9  13
ENDBRANCH   1   7
BRANCH   4  20
ATOM     20  O   UNL d   1      28.623 -14.322   0.652  0.00  0.00    -0.311 OA
BRANCH  20  21
ATOM     21  C   UNL d   1      28.610 -14.211   2.031  0.00  0.00     0.076 A 
ATOM     22  C   UNL d   1      27.432 -13.836   2.684  0.00  0.00     0.037 A 
ATOM     23  C   UNL d   1      27.418 -13.732   4.082  0.00  0.00     0.003 A 
ATOM     24  C   UNL d   1      28.553 -14.069   4.822  0.00  0.00     0.000 A 
ATOM     25  C   UNL d   1      29.729 -14.429   4.167  0.00  0.00     0.003 A 
ATOM     26  C   UNL d   1      29.770 -14.452   2.775  0.00  0.00     0.037 A 
ENDBRANCH  20  21
ENDBRANCH   4  20
TORSDOF 4
ENDMDL
MODEL 7
REMARK VINA RESULT:    -7.761      2.937      3.726
REMARK INTER + INTRA:          -9.332
REMARK INTER:                  -8.955
REMARK INTRA:                  -0.378
REMARK CONF_INDEPENDENT:        1.193
REMARK UNBOUND:                -0.378
REMARK  4 active torsions:
REMARK  status: ('A' for Active; 'I' for Inactive)
REMARK    1  A    between atoms: C_5  and  N_6 
REMARK       I    between atoms: N_6  and  C_7 
REMARK       I    between atoms: C_7  and  N_9 
REMARK    2  A    between atoms: N_9  and  C_10 
REMARK    3  A    between atoms: C_13  and  O_14 
REMARK    4  A    between atoms: O_14  and  C_15 
ROOT
ATOM      1  C   UNL d   1      25.013 -16.321  -1.937  0.00  0.00     0.036 A 
ATOM      2  C   UNL d   1      23.705 -15.968  -1.587  0.00  0.00     0.032 A 
ATOM      3  C   UNL d   1      23.018 -16.684  -0.575  0.00  0.00     0.039 A 
ATOM      4  C   UNL d   1      23.610 -17.792   0.050  0.00  0.00     0.076 A 
ATOM      5  C   UNL d   1      24.914 -18.124  -0.301  0.00  0.00     0.039 A 
ATOM      6  C   UNL d   1      25.603 -17.392  -1.260  0.00  0.00     0.032 A 
ENDROOT
BRANCH   1   7
ATOM      7  N   UNL d   1      25.761 -15.636  -2.947  0.00  0.00    -0.309 N 
ATOM      8  C   UNL d   1      25.554 -14.276  -3.142  0.00  0.00     0.325 C 
ATOM      9  N   UNL d   1      26.253 -13.676  -4.179  0.00  0.00    -0.309 N 
ATOM     10  O   UNL d   1      24.785 -13.660  -2.395  0.00  0.00    -0.247 OA
ATOM     11  H   UNL d   1      26.868 -14.238  -4.751  0.00  0.00     0.170 HD
ATOM     12  H   UNL d   1      26.585 -16.084  -3.319  0.00  0.00     0.170 HD
BRANCH   9  13
ATOM     13  C   UNL d   1      26.136 -12.280  -4.511  0.00  0.00     0.036 A 
ATOM     14  C   UNL d   1      26.268 -11.827  -5.831  0.00  0.00     0.030 A 
ATOM     15  C   UNL d   1      26.136 -10.451  -6.140  0.00  0.00     0.009 A 
ATOM     16  C   UNL d   1      25.868  -9.506  -5.142  0.00  0.00    -0.062 A 
ATOM     17  C   UNL d   1      25.697  -8.042  -5.411  0.00  0.00     0.048 C 
ATOM     18  C   UNL d   1      25.747  -9.951  -3.835  0.00  0.00     0.009 A 
ATOM     19  C   UNL d   1      25.882 -11.304  -3.537  0.00  0.00     0.030 A 
ENDBRANCH   9  13
ENDBRANCH   1   7
BRANCH   4  20
ATOM     20  O   UNL d   1      22.838 -18.533   0.932  0.00  0.00    -0.311 OA
BRANCH  20  21
ATOM     21  C   UNL d   1      21.588 -18.949   0.510  0.00  0.00     0.076 A 
ATOM     22  C   UNL d   1      20.629 -19.325   1.454  0.00  0.00     0.037 A 
ATOM     23  C   UNL d   1      19.360 -19.740   1.026  0.00  0.00     0.003 A 
ATOM     24  C   UNL d   1      19.033 -19.710  -0.331  0.00  0.00     0.000 A 
ATOM     25  C   UNL d   1      19.996 -19.348  -1.270  0.00  0.00     0.003 A 
ATOM     26  C   UNL d   1      21.283 -19.017  -0.853  0.00  0.00     0.037 A 
ENDBRANCH  20  21
ENDBRANCH   4  20
TORSDOF 4
ENDMDL
MODEL 8
REMARK VINA RESULT:    -7.475      6.970      8.891
REMARK INTER + INTRA:          -9.288
REMARK INTER:                  -8.668
REMARK INTRA:                  -0.620
REMARK CONF_INDEPENDENT:        1.193
REMARK UNBOUND:                -0.620
REMARK  4 active torsions:
REMARK  status: ('A' for Active; 'I' for Inactive)
REMARK    1  A    between atoms: C_5  and  N_6 
REMARK       I    between atoms: N_6  and  C_7 
REMARK       I    between atoms: C_7  and  N_9 
REMARK    2  A    between atoms: N_9  and  C_10 
REMARK    3  A    between atoms: C_13  and  O_14 
REMARK    4  A    between atoms: O_14  and  C_15 
ROOT
ATOM      1  C   UNL d   1      28.268 -14.778   1.733  0.00  0.00     0.036 A 
ATOM      2  C   UNL d   1      28.303 -15.938   0.952  0.00  0.00     0.032 A 
ATOM      3  C   UNL d   1      27.335 -16.146  -0.063  0.00  0.00     0.039 A 
ATOM      4  C   UNL d   1      26.295 -15.226  -0.264  0.00  0.00     0.076 A 
ATOM      5  C   UNL d   1      26.280 -14.073   0.514  0.00  0.00     0.039 A 
ATOM      6  C   UNL d   1      27.256 -13.848   1.477  0.00  0.00     0.032 A 
ENDROOT
BRANCH   1   7
ATOM      7  N   UNL d   1      29.217 -14.509   2.771  0.00  0.00    -0.309 N 
ATOM      8  C   UNL d   1      28.762 -14.197   4.045  0.00  0.00     0.325 C 
ATOM      9  N   UNL d   1      29.721 -13.876   4.995  0.00  0.00    -0.309 N 
ATOM     10  O   UNL d   1      27.549 -14.229   4.288  0.00  0.00    -0.247 OA
ATOM     11  H   UNL d   1      30.696 -13.871   4.730  0.00  0.00     0.170 HD
ATOM     12  H   UNL d   1      30.175 -14.789   2.627  0.00  0.00     0.170 HD
BRANCH   9  13
ATOM     13  C   UNL d   1      29.403 -13.522   6.354  0.00  0.00     0.036 A 
ATOM     14  C   UNL d   1      28.464 -12.524   6.650  0.00  0.00     0.030 A 
ATOM     15  C   UNL d   1      28.155 -12.198   7.994  0.00  0.00     0.009 A 
ATOM     16  C   UNL d   1      28.773 -12.862   9.061  0.00  0.00    -0.062 A 
ATOM     17  C   UNL d   1      28.472 -12.575  10.500  0.00  0.00     0.048 C 
ATOM     18  C   UNL d   1      29.709 -13.841   8.770  0.00  0.00     0.009 A 
ATOM     19  C   UNL d   1      30.011 -14.154   7.448  0.00  0.00     0.030 A 
ENDBRANCH   9  13
ENDBRANCH   1   7
BRANCH   4  20
ATOM     20  O   UNL d   1      25.304 -15.551  -1.177  0.00  0.00    -0.311 OA
BRANCH  20  21
ATOM     21  C   UNL d   1      24.427 -16.570  -0.850  0.00  0.00     0.076 A 
ATOM     22  C   UNL d   1      23.051 -16.325  -0.847  0.00  0.00     0.037 A 
ATOM     23  C   UNL d   1      22.163 -17.360  -0.523  0.00  0.00     0.003 A 
ATOM     24  C   UNL d   1      22.646 -18.646  -0.274  0.00  0.00     0.000 A 
ATOM     25  C   UNL d   1      24.019 -18.884  -0.264  0.00  0.00     0.003 A 
ATOM     26  C   UNL d   1      24.907 -17.837  -0.502  0.00  0.00     0.037 A 
ENDBRANCH  20  21
ENDBRANCH   4  20
TORSDOF 4
ENDMDL
MODEL 9
REMARK VINA RESULT:    -7.471      5.924      9.475
REMARK INTER + INTRA:          -9.358
REMARK INTER:                  -8.665
REMARK INTRA:                  -0.694
REMARK CONF_INDEPENDENT:        1.193
REMARK UNBOUND:                -0.694
REMARK  4 active torsions:
REMARK  status: ('A' for Active; 'I' for Inactive)
REMARK    1  A    between atoms: C_5  and  N_6 
REMARK       I    between atoms: N_6  and  C_7 
REMARK       I    between atoms: C_7  and  N_9 
REMARK    2  A    between atoms: N_9  and  C_10 
REMARK    3  A    between atoms: C_13  and  O_14 
REMARK    4  A    between atoms: O_14  and  C_15 
ROOT
ATOM      1  C   UNL d   1      27.265 -15.254   0.369  0.00  0.00     0.036 A 
ATOM      2  C   UNL d   1      27.304 -14.050  -0.342  0.00  0.00     0.032 A 
ATOM      3  C   UNL d   1      26.543 -13.895  -1.528  0.00  0.00     0.039 A 
ATOM      4  C   UNL d   1      25.787 -14.960  -2.041  0.00  0.00     0.076 A 
ATOM      5  C   UNL d   1      25.750 -16.147  -1.318  0.00  0.00     0.039 A 
ATOM      6  C   UNL d   1      26.459 -16.282  -0.131  0.00  0.00     0.032 A 
ENDROOT
BRANCH   1   7
ATOM      7  N   UNL d   1      28.007 -15.472   1.574  0.00  0.00    -0.309 N 
ATOM      8  C   UNL d   1      27.854 -14.589   2.636  0.00  0.00     0.325 C 
ATOM      9  N   UNL d   1      28.648 -14.805   3.753  0.00  0.00    -0.309 N 
ATOM     10  O   UNL d   1      27.028 -13.672   2.556  0.00  0.00    -0.247 OA
ATOM     11  H   UNL d   1      29.302 -15.575   3.752  0.00  0.00     0.170 HD
ATOM     12  H   UNL d   1      28.424 -16.378   1.722  0.00  0.00     0.170 HD
BRANCH   9  13
ATOM     13  C   UNL d   1      28.611 -13.970   4.925  0.00  0.00     0.036 A 
ATOM     14  C   UNL d   1      28.201 -12.631   4.858  0.00  0.00     0.030 A 
ATOM     15  C   UNL d   1      28.158 -11.829   6.025  0.00  0.00     0.009 A 
ATOM     16  C   UNL d   1      28.520 -12.347   7.275  0.00  0.00    -0.062 A 
ATOM     17  C   UNL d   1      28.475 -11.554   8.545  0.00  0.00     0.048 C 
ATOM     18  C   UNL d   1      28.935 -13.668   7.341  0.00  0.00     0.009 A 
ATOM     19  C   UNL d   1      28.979 -14.450   6.190  0.00  0.00     0.030 A 
ENDBRANCH   9  13
ENDBRANCH   1   7
BRANCH   4  20
ATOM     20  O   UNL d   1      25.176 -14.791  -3.274  0.00  0.00    -0.311 OA
BRANCH  20  21
ATOM     21  C   UNL d   1      25.851 -14.068  -4.241  0.00  0.00     0.076 A 
ATOM     22  C   UNL d   1      25.530 -12.723  -4.449  0.00  0.00     0.037 A 
ATOM     23  C   UNL d   1      26.219 -11.989  -5.424  0.00  0.00     0.003 A 
ATOM     24  C   UNL d   1      27.269 -12.577  -6.133  0.00  0.00     0.000 A 
ATOM     25  C   UNL d   1      27.577 -13.921  -5.933  0.00  0.00     0.003 A 
ATOM     26  C   UNL d   1      26.836 -14.675  -5.025  0.00  0.00     0.037 A 
ENDBRANCH  20  21
ENDBRANCH   4  20
TORSDOF 4
ENDMDL
