MODEL 1
REMARK VINA RESULT:   -11.018      0.000      0.000
REMARK INTER + INTRA:         -14.228
REMARK INTER:                 -12.510
REMARK INTRA:                  -1.718
REMARK CONF_INDEPENDENT:        1.492
REMARK UNBOUND:                -1.718
REMARK  5 active torsions:
REMARK  status: ('A' for Active; 'I' for Inactive)
REMARK    1  A    between atoms: C_5  and  N_6 
REMARK       I    between atoms: N_6  and  C_7 
REMARK       I    between atoms: C_7  and  N_9 
REMARK    2  A    between atoms: N_9  and  C_10 
REMARK    3  A    between atoms: C_12  and  N_13 
REMARK       I    between atoms: N_13  and  C_14 
REMARK    4  A    between atoms: C_14  and  C_16 
REMARK    5  A    between atoms: C_25  and  N_26 
ROOT
ATOM      1  C   UNL d   1      24.737 -15.995  -1.600  0.00  0.00     0.065 A 
ATOM      2  C   UNL d   1      23.659 -16.880  -1.265  0.00  0.00     0.061 A 
ATOM      3  C   UNL d   1      23.870 -18.013  -0.439  0.00  0.00     0.037 A 
ATOM      4  C   UNL d   1      25.180 -18.308  -0.081  0.00  0.00     0.032 A 
ATOM      5  C   UNL d   1      26.231 -17.458  -0.400  0.00  0.00     0.034 A 
ATOM      6  C   UNL d   1      26.051 -16.282  -1.132  0.00  0.00     0.057 A 
ENDROOT
BRANCH   1   7
ATOM      7  N   UNL d   1      24.486 -14.809  -2.395  0.00  0.00    -0.306 N 
ATOM      8  C   UNL d   1      25.256 -14.574  -3.532  0.00  0.00     0.325 C 
ATOM      9  N   UNL d   1      25.164 -13.291  -4.088  0.00  0.00    -0.309 N 
ATOM     10  O   UNL d   1      25.988 -15.452  -3.988  0.00  0.00    -0.247 OA
ATOM     11  H   UNL d   1      24.431 -12.669  -3.777  0.00  0.00     0.170 HD
ATOM     12  H   UNL d   1      23.577 -14.381  -2.325  0.00  0.00     0.170 HD
BRANCH   9  13
ATOM     13  C   UNL d   1      26.083 -12.784  -5.087  0.00  0.00     0.036 A 
ATOM     14  C   UNL d   1      25.891 -11.542  -5.710  0.00  0.00     0.030 A 
ATOM     15  C   UNL d   1      26.688 -11.075  -6.752  0.00  0.00     0.009 A 
ATOM     16  C   UNL d   1      27.780 -11.811  -7.181  0.00  0.00    -0.056 A 
ATOM     17  C   UNL d   1      28.638 -11.236  -8.273  0.00  0.00     0.049 C 
ATOM     18  C   UNL d   1      28.043 -13.049  -6.554  0.00  0.00    -0.054 A 
ATOM     19  C   UNL d   1      27.174 -13.540  -5.536  0.00  0.00     0.037 A 
ATOM     20  C   UNL d   1      29.270 -13.828  -6.951  0.00  0.00     0.049 C 
ENDBRANCH   9  13
ENDBRANCH   1   7
BRANCH   6  21
ATOM     21  N   UNL d   1      27.175 -15.487  -1.257  0.00  0.00    -0.379 N 
ATOM     22  C   UNL d   1      27.248 -14.081  -0.917  0.00  0.00     0.123 C 
ATOM     23  C   UNL d   1      28.019 -13.467  -2.068  0.00  0.00     0.021 C 
ATOM     24  C   UNL d   1      28.947 -14.571  -2.545  0.00  0.00     0.021 C 
ATOM     25  C   UNL d   1      28.237 -15.881  -2.186  0.00  0.00     0.123 C 
ENDBRANCH   6  21
BRANCH   3  26
ATOM     26  N   UNL d   1      22.788 -18.807   0.074  0.00  0.00    -0.323 N 
ATOM     27  C   UNL d   1      21.438 -18.584  -0.221  0.00  0.00     0.256 C 
ATOM     28  O   UNL d   1      20.964 -17.661  -0.895  0.00  0.00    -0.267 OA
ATOM     29  H   UNL d   1      23.034 -19.671   0.542  0.00  0.00     0.169 HD
BRANCH  27  30
ATOM     30  C   UNL d   1      20.416 -19.520   0.304  0.00  0.00     0.032 A 
ATOM     31  C   UNL d   1      19.451 -20.035  -0.589  0.00  0.00     0.020 A 
ATOM     32  C   UNL d   1      18.333 -20.718  -0.106  0.00  0.00     0.043 A 
ATOM     33  C   UNL d   1      18.219 -20.940   1.260  0.00  0.00     0.116 A 
ATOM     34  F   UNL d   1      17.177 -21.639   1.730  0.00  0.00    -0.206 F 
ATOM     35  C   UNL d   1      19.171 -20.445   2.150  0.00  0.00     0.043 A 
ATOM     36  C   UNL d   1      20.269 -19.723   1.676  0.00  0.00     0.020 A 
ENDBRANCH  27  30
ENDBRANCH   3  26
TORSDOF 5
ENDMDL
MODEL 2
REMARK VINA RESULT:   -10.878      0.277      1.199
REMARK INTER + INTRA:         -14.072
REMARK INTER:                 -12.369
REMARK INTRA:                  -1.703
REMARK CONF_INDEPENDENT:        1.492
REMARK UNBOUND:                -1.703
REMARK  5 active torsions:
REMARK  status: ('A' for Active; 'I' for Inactive)
REMARK    1  A    between atoms: C_5  and  N_6 
REMARK       I    between atoms: N_6  and  C_7 
REMARK       I    between atoms: C_7  and  N_9 
REMARK    2  A    between atoms: N_9  and  C_10 
REMARK    3  A    between atoms: C_12  and  N_13 
REMARK       I    between atoms: N_13  and  C_14 
REMARK    4  A    between atoms: C_14  and  C_16 
REMARK    5  A    between atoms: C_25  and  N_26 
ROOT
ATOM      1  C   UNL d   1      24.725 -15.962  -1.593  0.00  0.00     0.065 A 
ATOM      2  C   UNL d   1      23.650 -16.850  -1.258  0.00  0.00     0.061 A 
ATOM      3  C   UNL d   1      23.863 -17.978  -0.426  0.00  0.00     0.037 A 
ATOM      4  C   UNL d   1      25.173 -18.265  -0.061  0.00  0.00     0.032 A 
ATOM      5  C   UNL d   1      26.221 -17.411  -0.379  0.00  0.00     0.034 A 
ATOM      6  C   UNL d   1      26.038 -16.239  -1.117  0.00  0.00     0.057 A 
ENDROOT
BRANCH   1   7
ATOM      7  N   UNL d   1      24.472 -14.781  -2.395  0.00  0.00    -0.306 N 
ATOM      8  C   UNL d   1      25.221 -14.566  -3.549  0.00  0.00     0.325 C 
ATOM      9  N   UNL d   1      25.132 -13.288  -4.116  0.00  0.00    -0.309 N 
ATOM     10  O   UNL d   1      25.933 -15.457  -4.012  0.00  0.00    -0.247 OA
ATOM     11  H   UNL d   1      24.413 -12.655  -3.798  0.00  0.00     0.170 HD
ATOM     12  H   UNL d   1      23.569 -14.341  -2.311  0.00  0.00     0.170 HD
BRANCH   9  13
ATOM     13  C   UNL d   1      26.036 -12.802  -5.140  0.00  0.00     0.036 A 
ATOM     14  C   UNL d   1      27.135 -13.554  -5.578  0.00  0.00     0.030 A 
ATOM     15  C   UNL d   1      28.086 -13.074  -6.474  0.00  0.00     0.009 A 
ATOM     16  C   UNL d   1      27.940 -11.818  -7.041  0.00  0.00    -0.056 A 
ATOM     17  C   UNL d   1      28.966 -11.370  -8.044  0.00  0.00     0.049 C 
ATOM     18  C   UNL d   1      26.824 -11.038  -6.668  0.00  0.00    -0.054 A 
ATOM     19  C   UNL d   1      25.899 -11.523  -5.695  0.00  0.00     0.037 A 
ATOM     20  C   UNL d   1      26.604  -9.704  -7.330  0.00  0.00     0.049 C 
ENDBRANCH   9  13
ENDBRANCH   1   7
BRANCH   6  21
ATOM     21  N   UNL d   1      27.158 -15.439  -1.241  0.00  0.00    -0.379 N 
ATOM     22  C   UNL d   1      27.222 -14.031  -0.909  0.00  0.00     0.123 C 
ATOM     23  C   UNL d   1      27.996 -13.419  -2.059  0.00  0.00     0.021 C 
ATOM     24  C   UNL d   1      28.932 -14.520  -2.525  0.00  0.00     0.021 C 
ATOM     25  C   UNL d   1      28.228 -15.833  -2.162  0.00  0.00     0.123 C 
ENDBRANCH   6  21
BRANCH   3  26
ATOM     26  N   UNL d   1      22.784 -18.776   0.085  0.00  0.00    -0.323 N 
ATOM     27  C   UNL d   1      21.435 -18.577  -0.236  0.00  0.00     0.256 C 
ATOM     28  O   UNL d   1      20.961 -17.674  -0.937  0.00  0.00    -0.267 OA
ATOM     29  H   UNL d   1      23.033 -19.627   0.575  0.00  0.00     0.169 HD
BRANCH  27  30
ATOM     30  C   UNL d   1      20.417 -19.515   0.291  0.00  0.00     0.032 A 
ATOM     31  C   UNL d   1      19.446 -20.026  -0.597  0.00  0.00     0.020 A 
ATOM     32  C   UNL d   1      18.331 -20.711  -0.109  0.00  0.00     0.043 A 
ATOM     33  C   UNL d   1      18.227 -20.939   1.256  0.00  0.00     0.116 A 
ATOM     34  F   UNL d   1      17.188 -21.640   1.730  0.00  0.00    -0.206 F 
ATOM     35  C   UNL d   1      19.184 -20.448   2.142  0.00  0.00     0.043 A 
ATOM     36  C   UNL d   1      20.280 -19.724   1.663  0.00  0.00     0.020 A 
ENDBRANCH  27  30
ENDBRANCH   3  26
TORSDOF 5
ENDMDL
MODEL 3
REMARK VINA RESULT:    -9.783      2.799      5.021
REMARK INTER + INTRA:         -12.577
REMARK INTER:                 -11.275
REMARK INTRA:                  -1.302
REMARK CONF_INDEPENDENT:        1.492
REMARK UNBOUND:                -1.302
REMARK  5 active torsions:
REMARK  status: ('A' for Active; 'I' for Inactive)
REMARK    1  A    between atoms: C_5  and  N_6 
REMARK       I    between atoms: N_6  and  C_7 
REMARK       I    between atoms: C_7  and  N_9 
REMARK    2  A    between atoms: N_9  and  C_10 
REMARK    3  A    between atoms: C_12  and  N_13 
REMARK       I    between atoms: N_13  and  C_14 
REMARK    4  A    between atoms: C_14  and  C_16 
REMARK    5  A    between atoms: C_25  and  N_26 
ROOT
ATOM      1  C   UNL d   1      26.245 -17.326  -0.516  0.00  0.00     0.065 A 
ATOM      2  C   UNL d   1      25.183 -18.041   0.130  0.00  0.00     0.061 A 
ATOM      3  C   UNL d   1      23.829 -17.830  -0.233  0.00  0.00     0.037 A 
ATOM      4  C   UNL d   1      23.561 -16.809  -1.138  0.00  0.00     0.032 A 
ATOM      5  C   UNL d   1      24.581 -16.111  -1.770  0.00  0.00     0.034 A 
ATOM      6  C   UNL d   1      25.932 -16.355  -1.511  0.00  0.00     0.057 A 
ENDROOT
BRANCH   1   7
ATOM      7  N   UNL d   1      27.625 -17.601  -0.172  0.00  0.00    -0.306 N 
ATOM      8  C   UNL d   1      28.462 -16.549   0.189  0.00  0.00     0.325 C 
ATOM      9  N   UNL d   1      29.834 -16.835   0.230  0.00  0.00    -0.309 N 
ATOM     10  O   UNL d   1      28.002 -15.433   0.428  0.00  0.00    -0.247 OA
ATOM     11  H   UNL d   1      30.140 -17.796   0.189  0.00  0.00     0.170 HD
ATOM     12  H   UNL d   1      27.856 -18.534   0.132  0.00  0.00     0.170 HD
BRANCH   9  13
ATOM     13  C   UNL d   1      30.861 -15.816   0.313  0.00  0.00     0.036 A 
ATOM     14  C   UNL d   1      30.922 -14.747  -0.593  0.00  0.00     0.030 A 
ATOM     15  C   UNL d   1      31.957 -13.816  -0.613  0.00  0.00     0.009 A 
ATOM     16  C   UNL d   1      32.964 -13.869   0.337  0.00  0.00    -0.056 A 
ATOM     17  C   UNL d   1      34.028 -12.808   0.302  0.00  0.00     0.049 C 
ATOM     18  C   UNL d   1      32.924 -14.900   1.300  0.00  0.00    -0.054 A 
ATOM     19  C   UNL d   1      31.891 -15.885   1.260  0.00  0.00     0.037 A 
ATOM     20  C   UNL d   1      33.964 -14.931   2.389  0.00  0.00     0.049 C 
ENDBRANCH   9  13
ENDBRANCH   1   7
BRANCH   6  21
ATOM     21  N   UNL d   1      26.820 -15.663  -2.312  0.00  0.00    -0.379 N 
ATOM     22  C   UNL d   1      26.489 -14.520  -3.137  0.00  0.00     0.123 C 
ATOM     23  C   UNL d   1      27.209 -14.790  -4.443  0.00  0.00     0.021 C 
ATOM     24  C   UNL d   1      28.440 -15.588  -4.048  0.00  0.00     0.021 C 
ATOM     25  C   UNL d   1      28.052 -16.320  -2.757  0.00  0.00     0.123 C 
ENDBRANCH   6  21
BRANCH   3  26
ATOM     26  N   UNL d   1      22.760 -18.660   0.251  0.00  0.00    -0.323 N 
ATOM     27  C   UNL d   1      21.425 -18.540  -0.152  0.00  0.00     0.256 C 
ATOM     28  O   UNL d   1      20.950 -17.691  -0.916  0.00  0.00    -0.267 OA
ATOM     29  H   UNL d   1      23.021 -19.476   0.790  0.00  0.00     0.169 HD
BRANCH  27  30
ATOM     30  C   UNL d   1      20.423 -19.506   0.357  0.00  0.00     0.032 A 
ATOM     31  C   UNL d   1      19.494 -20.058  -0.553  0.00  0.00     0.020 A 
ATOM     32  C   UNL d   1      18.390 -20.774  -0.088  0.00  0.00     0.043 A 
ATOM     33  C   UNL d   1      18.255 -20.992   1.276  0.00  0.00     0.116 A 
ATOM     34  F   UNL d   1      17.227 -21.722   1.729  0.00  0.00    -0.206 F 
ATOM     35  C   UNL d   1      19.171 -20.461   2.183  0.00  0.00     0.043 A 
ATOM     36  C   UNL d   1      20.255 -19.706   1.726  0.00  0.00     0.020 A 
ENDBRANCH  27  30
ENDBRANCH   3  26
TORSDOF 5
ENDMDL
MODEL 4
REMARK VINA RESULT:    -9.686      1.625      2.365
REMARK INTER + INTRA:         -12.660
REMARK INTER:                 -11.177
REMARK INTRA:                  -1.483
REMARK CONF_INDEPENDENT:        1.492
REMARK UNBOUND:                -1.483
REMARK  5 active torsions:
REMARK  status: ('A' for Active; 'I' for Inactive)
REMARK    1  A    between atoms: C_5  and  N_6 
REMARK       I    between atoms: N_6  and  C_7 
REMARK       I    between atoms: C_7  and  N_9 
REMARK    2  A    between atoms: N_9  and  C_10 
REMARK    3  A    between atoms: C_12  and  N_13 
REMARK       I    between atoms: N_13  and  C_14 
REMARK    4  A    between atoms: C_14  and  C_16 
REMARK    5  A    between atoms: C_25  and  N_26 
ROOT
ATOM      1  C   UNL d   1      25.863 -16.678  -1.743  0.00  0.00     0.065 A 
ATOM      2  C   UNL d   1      24.574 -17.218  -1.420  0.00  0.00     0.061 A 
ATOM      3  C   UNL d   1      24.350 -17.899  -0.197  0.00  0.00     0.037 A 
ATOM      4  C   UNL d   1      25.454 -18.141   0.612  0.00  0.00     0.032 A 
ATOM      5  C   UNL d   1      26.706 -17.623   0.309  0.00  0.00     0.034 A 
ATOM      6  C   UNL d   1      26.948 -16.865  -0.839  0.00  0.00     0.057 A 
ENDROOT
BRANCH   1   7
ATOM      7  N   UNL d   1      26.055 -15.933  -2.971  0.00  0.00    -0.306 N 
ATOM      8  C   UNL d   1      26.221 -14.552  -2.913  0.00  0.00     0.325 C 
ATOM      9  N   UNL d   1      26.116 -13.864  -4.129  0.00  0.00    -0.309 N 
ATOM     10  O   UNL d   1      26.422 -13.987  -1.838  0.00  0.00    -0.247 OA
ATOM     11  H   UNL d   1      26.117 -14.385  -4.994  0.00  0.00     0.170 HD
ATOM     12  H   UNL d   1      26.405 -16.433  -3.773  0.00  0.00     0.170 HD
BRANCH   9  13
ATOM     13  C   UNL d   1      25.985 -12.424  -4.225  0.00  0.00     0.036 A 
ATOM     14  C   UNL d   1      25.774 -11.620  -3.095  0.00  0.00     0.030 A 
ATOM     15  C   UNL d   1      25.532 -10.250  -3.162  0.00  0.00     0.009 A 
ATOM     16  C   UNL d   1      25.562  -9.594  -4.382  0.00  0.00    -0.056 A 
ATOM     17  C   UNL d   1      25.347  -8.106  -4.391  0.00  0.00     0.049 C 
ATOM     18  C   UNL d   1      25.816 -10.351  -5.546  0.00  0.00    -0.054 A 
ATOM     19  C   UNL d   1      25.993 -11.764  -5.462  0.00  0.00     0.037 A 
ATOM     20  C   UNL d   1      25.930  -9.646  -6.871  0.00  0.00     0.049 C 
ENDBRANCH   9  13
ENDBRANCH   1   7
BRANCH   6  21
ATOM     21  N   UNL d   1      28.215 -16.321  -0.930  0.00  0.00    -0.379 N 
ATOM     22  C   UNL d   1      28.632 -15.068  -0.334  0.00  0.00     0.123 C 
ATOM     23  C   UNL d   1      29.451 -14.401  -1.420  0.00  0.00     0.021 C 
ATOM     24  C   UNL d   1      30.066 -15.549  -2.201  0.00  0.00     0.021 C 
ATOM     25  C   UNL d   1      29.097 -16.724  -2.028  0.00  0.00     0.123 C 
ENDBRANCH   6  21
BRANCH   3  26
ATOM     26  N   UNL d   1      23.037 -18.281   0.245  0.00  0.00    -0.323 N 
ATOM     27  C   UNL d   1      22.046 -18.808  -0.592  0.00  0.00     0.256 C 
ATOM     28  O   UNL d   1      22.111 -18.966  -1.818  0.00  0.00    -0.267 OA
ATOM     29  H   UNL d   1      22.882 -18.320   1.245  0.00  0.00     0.169 HD
BRANCH  27  30
ATOM     30  C   UNL d   1      20.755 -19.240  -0.007  0.00  0.00     0.032 A 
ATOM     31  C   UNL d   1      20.654 -19.350   1.397  0.00  0.00     0.020 A 
ATOM     32  C   UNL d   1      19.553 -19.980   1.980  0.00  0.00     0.043 A 
ATOM     33  C   UNL d   1      18.528 -20.436   1.161  0.00  0.00     0.116 A 
ATOM     34  F   UNL d   1      17.443 -20.996   1.713  0.00  0.00    -0.206 F 
ATOM     35  C   UNL d   1      18.612 -20.324  -0.225  0.00  0.00     0.043 A 
ATOM     36  C   UNL d   1      19.733 -19.734  -0.817  0.00  0.00     0.020 A 
ENDBRANCH  27  30
ENDBRANCH   3  26
TORSDOF 5
ENDMDL
MODEL 5
REMARK VINA RESULT:    -9.644      2.951      5.368
REMARK INTER + INTRA:         -12.540
REMARK INTER:                 -11.135
REMARK INTRA:                  -1.405
REMARK CONF_INDEPENDENT:        1.492
REMARK UNBOUND:                -1.405
REMARK  5 active torsions:
REMARK  status: ('A' for Active; 'I' for Inactive)
REMARK    1  A    between atoms: C_5  and  N_6 
REMARK       I    between atoms: N_6  and  C_7 
REMARK       I    between atoms: C_7  and  N_9 
REMARK    2  A    between atoms: N_9  and  C_10 
REMARK    3  A    between atoms: C_12  and  N_13 
REMARK       I    between atoms: N_13  and  C_14 
REMARK    4  A    between atoms: C_14  and  C_16 
REMARK    5  A    between atoms: C_25  and  N_26 
ROOT
ATOM      1  C   UNL d   1      26.249 -16.749  -0.295  0.00  0.00     0.065 A 
ATOM      2  C   UNL d   1      25.095 -17.412   0.240  0.00  0.00     0.061 A 
ATOM      3  C   UNL d   1      24.008 -17.778  -0.593  0.00  0.00     0.037 A 
ATOM      4  C   UNL d   1      24.043 -17.350  -1.915  0.00  0.00     0.032 A 
ATOM      5  C   UNL d   1      25.155 -16.708  -2.443  0.00  0.00     0.034 A 
ATOM      6  C   UNL d   1      26.287 -16.414  -1.679  0.00  0.00     0.057 A 
ENDROOT
BRANCH   1   7
ATOM      7  N   UNL d   1      27.375 -16.439   0.563  0.00  0.00    -0.306 N 
ATOM      8  C   UNL d   1      27.490 -15.161   1.104  0.00  0.00     0.325 C 
ATOM      9  N   UNL d   1      28.727 -14.841   1.680  0.00  0.00    -0.309 N 
ATOM     10  O   UNL d   1      26.553 -14.365   1.043  0.00  0.00    -0.247 OA
ATOM     11  H   UNL d   1      29.397 -15.576   1.851  0.00  0.00     0.170 HD
ATOM     12  H   UNL d   1      27.840 -17.206   1.023  0.00  0.00     0.170 HD
BRANCH   9  13
ATOM     13  C   UNL d   1      29.119 -13.492   2.037  0.00  0.00     0.036 A 
ATOM     14  C   UNL d   1      30.344 -12.943   1.632  0.00  0.00     0.030 A 
ATOM     15  C   UNL d   1      30.802 -11.696   2.050  0.00  0.00     0.009 A 
ATOM     16  C   UNL d   1      30.007 -10.892   2.851  0.00  0.00    -0.056 A 
ATOM     17  C   UNL d   1      30.527  -9.534   3.229  0.00  0.00     0.049 C 
ATOM     18  C   UNL d   1      28.744 -11.381   3.249  0.00  0.00    -0.054 A 
ATOM     19  C   UNL d   1      28.324 -12.690   2.867  0.00  0.00     0.037 A 
ATOM     20  C   UNL d   1      27.832 -10.493   4.055  0.00  0.00     0.049 C 
ENDBRANCH   9  13
ENDBRANCH   1   7
BRANCH   6  21
ATOM     21  N   UNL d   1      27.352 -15.886  -2.382  0.00  0.00    -0.379 N 
ATOM     22  C   UNL d   1      27.246 -15.032  -3.546  0.00  0.00     0.123 C 
ATOM     23  C   UNL d   1      28.295 -15.575  -4.496  0.00  0.00     0.021 C 
ATOM     24  C   UNL d   1      29.380 -16.138  -3.594  0.00  0.00     0.021 C 
ATOM     25  C   UNL d   1      28.664 -16.534  -2.297  0.00  0.00     0.123 C 
ENDBRANCH   6  21
BRANCH   3  26
ATOM     26  N   UNL d   1      22.928 -18.608  -0.134  0.00  0.00    -0.323 N 
ATOM     27  C   UNL d   1      21.577 -18.372  -0.418  0.00  0.00     0.256 C 
ATOM     28  O   UNL d   1      21.102 -17.411  -1.034  0.00  0.00    -0.267 OA
ATOM     29  H   UNL d   1      23.177 -19.498   0.279  0.00  0.00     0.169 HD
BRANCH  27  30
ATOM     30  C   UNL d   1      20.559 -19.344   0.043  0.00  0.00     0.032 A 
ATOM     31  C   UNL d   1      19.543 -19.736  -0.857  0.00  0.00     0.020 A 
ATOM     32  C   UNL d   1      18.433 -20.450  -0.403  0.00  0.00     0.043 A 
ATOM     33  C   UNL d   1      18.374 -20.825   0.932  0.00  0.00     0.116 A 
ATOM     34  F   UNL d   1      17.338 -21.554   1.368  0.00  0.00    -0.206 F 
ATOM     35  C   UNL d   1      19.375 -20.453   1.828  0.00  0.00     0.043 A 
ATOM     36  C   UNL d   1      20.468 -19.701   1.388  0.00  0.00     0.020 A 
ENDBRANCH  27  30
ENDBRANCH   3  26
TORSDOF 5
ENDMDL
MODEL 6
REMARK VINA RESULT:    -9.630      2.904      5.059
REMARK INTER + INTRA:         -12.225
REMARK INTER:                 -11.121
REMARK INTRA:                  -1.104
REMARK CONF_INDEPENDENT:        1.492
REMARK UNBOUND:                -1.104
REMARK  5 active torsions:
REMARK  status: ('A' for Active; 'I' for Inactive)
REMARK    1  A    between atoms: C_5  and  N_6 
REMARK       I    between atoms: N_6  and  C_7 
REMARK       I    between atoms: C_7  and  N_9 
REMARK    2  A    between atoms: N_9  and  C_10 
REMARK    3  A    between atoms: C_12  and  N_13 
REMARK       I    between atoms: N_13  and  C_14 
REMARK    4  A    between atoms: C_14  and  C_16 
REMARK    5  A    between atoms: C_25  and  N_26 
ROOT
ATOM      1  C   UNL d   1      26.270 -16.886  -0.471  0.00  0.00     0.065 A 
ATOM      2  C   UNL d   1      25.200 -17.650   0.101  0.00  0.00     0.061 A 
ATOM      3  C   UNL d   1      23.863 -17.486  -0.343  0.00  0.00     0.037 A 
ATOM      4  C   UNL d   1      23.612 -16.465  -1.252  0.00  0.00     0.032 A 
ATOM      5  C   UNL d   1      24.641 -15.720  -1.813  0.00  0.00     0.034 A 
ATOM      6  C   UNL d   1      25.982 -15.916  -1.473  0.00  0.00     0.057 A 
ENDROOT
BRANCH   1   7
ATOM      7  N   UNL d   1      27.637 -17.114  -0.045  0.00  0.00    -0.306 N 
ATOM      8  C   UNL d   1      28.616 -17.369  -1.002  0.00  0.00     0.325 C 
ATOM      9  N   UNL d   1      29.839 -17.857  -0.521  0.00  0.00    -0.309 N 
ATOM     10  O   UNL d   1      28.388 -17.193  -2.198  0.00  0.00    -0.247 OA
ATOM     11  H   UNL d   1      30.028 -17.825   0.470  0.00  0.00     0.170 HD
ATOM     12  H   UNL d   1      27.915 -16.751   0.852  0.00  0.00     0.170 HD
BRANCH   9  13
ATOM     13  C   UNL d   1      30.861 -18.432  -1.372  0.00  0.00     0.036 A 
ATOM     14  C   UNL d   1      31.766 -19.394  -0.899  0.00  0.00     0.030 A 
ATOM     15  C   UNL d   1      32.830 -19.884  -1.653  0.00  0.00     0.009 A 
ATOM     16  C   UNL d   1      32.999 -19.479  -2.968  0.00  0.00    -0.056 A 
ATOM     17  C   UNL d   1      34.131 -20.079  -3.753  0.00  0.00     0.049 C 
ATOM     18  C   UNL d   1      32.087 -18.546  -3.505  0.00  0.00    -0.054 A 
ATOM     19  C   UNL d   1      31.046 -18.005  -2.694  0.00  0.00     0.037 A 
ATOM     20  C   UNL d   1      32.205 -18.152  -4.954  0.00  0.00     0.049 C 
ENDBRANCH   9  13
ENDBRANCH   1   7
BRANCH   6  21
ATOM     21  N   UNL d   1      26.890 -15.181  -2.210  0.00  0.00    -0.379 N 
ATOM     22  C   UNL d   1      27.651 -14.052  -1.716  0.00  0.00     0.123 C 
ATOM     23  C   UNL d   1      27.569 -13.036  -2.838  0.00  0.00     0.021 C 
ATOM     24  C   UNL d   1      27.460 -13.866  -4.105  0.00  0.00     0.021 C 
ATOM     25  C   UNL d   1      26.801 -15.182  -3.673  0.00  0.00     0.123 C 
ENDBRANCH   6  21
BRANCH   3  26
ATOM     26  N   UNL d   1      22.800 -18.362   0.066  0.00  0.00    -0.323 N 
ATOM     27  C   UNL d   1      21.489 -18.291  -0.421  0.00  0.00     0.256 C 
ATOM     28  O   UNL d   1      21.030 -17.453  -1.207  0.00  0.00    -0.267 OA
ATOM     29  H   UNL d   1      23.058 -19.173   0.614  0.00  0.00     0.169 HD
BRANCH  27  30
ATOM     30  C   UNL d   1      20.497 -19.301   0.015  0.00  0.00     0.032 A 
ATOM     31  C   UNL d   1      19.491 -19.696  -0.894  0.00  0.00     0.020 A 
ATOM     32  C   UNL d   1      18.400 -20.450  -0.458  0.00  0.00     0.043 A 
ATOM     33  C   UNL d   1      18.353 -20.861   0.868  0.00  0.00     0.116 A 
ATOM     34  F   UNL d   1      17.337 -21.629   1.284  0.00  0.00    -0.206 F 
ATOM     35  C   UNL d   1      19.345 -20.486   1.772  0.00  0.00     0.043 A 
ATOM     36  C   UNL d   1      20.417 -19.694   1.351  0.00  0.00     0.020 A 
ENDBRANCH  27  30
ENDBRANCH   3  26
TORSDOF 5
ENDMDL
MODEL 7
REMARK VINA RESULT:    -9.055      4.964     10.396
REMARK INTER + INTRA:         -11.916
REMARK INTER:                 -10.547
REMARK INTRA:                  -1.369
REMARK CONF_INDEPENDENT:        1.492
REMARK UNBOUND:                -1.369
REMARK  5 active torsions:
REMARK  status: ('A' for Active; 'I' for Inactive)
REMARK    1  A    between atoms: C_5  and  N_6 
REMARK       I    between atoms: N_6  and  C_7 
REMARK       I    between atoms: C_7  and  N_9 
REMARK    2  A    between atoms: N_9  and  C_10 
REMARK    3  A    between atoms: C_12  and  N_13 
REMARK       I    between atoms: N_13  and  C_14 
REMARK    4  A    between atoms: C_14  and  C_16 
REMARK    5  A    between atoms: C_25  and  N_26 
ROOT
ATOM      1  C   UNL d   1      27.045 -15.620  -1.448  0.00  0.00     0.065 A 
ATOM      2  C   UNL d   1      27.766 -14.915  -2.467  0.00  0.00     0.061 A 
ATOM      3  C   UNL d   1      27.160 -14.600  -3.709  0.00  0.00     0.037 A 
ATOM      4  C   UNL d   1      25.893 -15.117  -3.952  0.00  0.00     0.032 A 
ATOM      5  C   UNL d   1      25.186 -15.801  -2.973  0.00  0.00     0.034 A 
ATOM      6  C   UNL d   1      25.710 -16.050  -1.702  0.00  0.00     0.057 A 
ENDROOT
BRANCH   1   7
ATOM      7  N   UNL d   1      27.663 -15.879  -0.163  0.00  0.00    -0.306 N 
ATOM      8  C   UNL d   1      27.327 -15.083   0.929  0.00  0.00     0.325 C 
ATOM      9  N   UNL d   1      28.155 -15.192   2.054  0.00  0.00    -0.309 N 
ATOM     10  O   UNL d   1      26.367 -14.314   0.876  0.00  0.00    -0.247 OA
ATOM     11  H   UNL d   1      28.821 -15.950   2.106  0.00  0.00     0.170 HD
ATOM     12  H   UNL d   1      28.035 -16.800   0.003  0.00  0.00     0.170 HD
BRANCH   9  13
ATOM     13  C   UNL d   1      28.128 -14.258   3.162  0.00  0.00     0.036 A 
ATOM     14  C   UNL d   1      27.712 -12.928   3.003  0.00  0.00     0.030 A 
ATOM     15  C   UNL d   1      27.780 -11.976   4.016  0.00  0.00     0.009 A 
ATOM     16  C   UNL d   1      28.209 -12.334   5.284  0.00  0.00    -0.056 A 
ATOM     17  C   UNL d   1      28.213 -11.279   6.355  0.00  0.00     0.049 C 
ATOM     18  C   UNL d   1      28.597 -13.673   5.508  0.00  0.00    -0.054 A 
ATOM     19  C   UNL d   1      28.584 -14.616   4.438  0.00  0.00     0.037 A 
ATOM     20  C   UNL d   1      28.992 -14.101   6.897  0.00  0.00     0.049 C 
ENDBRANCH   9  13
ENDBRANCH   1   7
BRANCH   6  21
ATOM     21  N   UNL d   1      24.834 -16.631  -0.806  0.00  0.00    -0.379 N 
ATOM     22  C   UNL d   1      25.082 -17.850  -0.064  0.00  0.00     0.123 C 
ATOM     23  C   UNL d   1      23.774 -18.610  -0.162  0.00  0.00     0.021 C 
ATOM     24  C   UNL d   1      22.707 -17.533  -0.256  0.00  0.00     0.021 C 
ATOM     25  C   UNL d   1      23.404 -16.325  -0.893  0.00  0.00     0.123 C 
ENDBRANCH   6  21
BRANCH   3  26
ATOM     26  N   UNL d   1      27.780 -13.733  -4.673  0.00  0.00    -0.323 N 
ATOM     27  C   UNL d   1      28.052 -14.095  -5.999  0.00  0.00     0.256 C 
ATOM     28  O   UNL d   1      27.869 -15.201  -6.522  0.00  0.00    -0.267 OA
ATOM     29  H   UNL d   1      27.875 -12.757  -4.420  0.00  0.00     0.169 HD
BRANCH  27  30
ATOM     30  C   UNL d   1      28.622 -13.088  -6.924  0.00  0.00     0.032 A 
ATOM     31  C   UNL d   1      27.783 -12.057  -7.400  0.00  0.00     0.020 A 
ATOM     32  C   UNL d   1      28.197 -11.237  -8.451  0.00  0.00     0.043 A 
ATOM     33  C   UNL d   1      29.472 -11.407  -8.975  0.00  0.00     0.116 A 
ATOM     34  F   UNL d   1      29.899 -10.591  -9.948  0.00  0.00    -0.206 F 
ATOM     35  C   UNL d   1      30.313 -12.414  -8.505  0.00  0.00     0.043 A 
ATOM     36  C   UNL d   1      29.887 -13.267  -7.483  0.00  0.00     0.020 A 
ENDBRANCH  27  30
ENDBRANCH   3  26
TORSDOF 5
ENDMDL
MODEL 8
REMARK VINA RESULT:    -8.773      5.088      9.430
REMARK INTER + INTRA:         -11.679
REMARK INTER:                 -10.265
REMARK INTRA:                  -1.414
REMARK CONF_INDEPENDENT:        1.492
REMARK UNBOUND:                -1.414
REMARK  5 active torsions:
REMARK  status: ('A' for Active; 'I' for Inactive)
REMARK    1  A    between atoms: C_5  and  N_6 
REMARK       I    between atoms: N_6  and  C_7 
REMARK       I    between atoms: C_7  and  N_9 
REMARK    2  A    between atoms: N_9  and  C_10 
REMARK    3  A    between atoms: C_12  and  N_13 
REMARK       I    between atoms: N_13  and  C_14 
REMARK    4  A    between atoms: C_14  and  C_16 
REMARK    5  A    between atoms: C_25  and  N_26 
ROOT
ATOM      1  C   UNL d   1      26.809 -15.604  -0.166  0.00  0.00     0.065 A 
ATOM      2  C   UNL d   1      27.411 -15.618   1.136  0.00  0.00     0.061 A 
ATOM      3  C   UNL d   1      27.944 -14.435   1.709  0.00  0.00     0.037 A 
ATOM      4  C   UNL d   1      27.983 -13.299   0.910  0.00  0.00     0.032 A 
ATOM      5  C   UNL d   1      27.403 -13.275  -0.351  0.00  0.00     0.034 A 
ATOM      6  C   UNL d   1      26.783 -14.392  -0.915  0.00  0.00     0.057 A 
ENDROOT
BRANCH   1   7
ATOM      7  N   UNL d   1      26.216 -16.811  -0.708  0.00  0.00    -0.306 N 
ATOM      8  C   UNL d   1      24.832 -16.966  -0.674  0.00  0.00     0.325 C 
ATOM      9  N   UNL d   1      24.347 -18.253  -0.944  0.00  0.00    -0.309 N 
ATOM     10  O   UNL d   1      24.100 -16.018  -0.395  0.00  0.00    -0.247 OA
ATOM     11  H   UNL d   1      24.973 -18.947  -1.327  0.00  0.00     0.170 HD
ATOM     12  H   UNL d   1      26.748 -17.332  -1.386  0.00  0.00     0.170 HD
BRANCH   9  13
ATOM     13  C   UNL d   1      22.981 -18.663  -0.687  0.00  0.00     0.036 A 
ATOM     14  C   UNL d   1      22.105 -19.018  -1.724  0.00  0.00     0.030 A 
ATOM     15  C   UNL d   1      20.758 -19.308  -1.525  0.00  0.00     0.009 A 
ATOM     16  C   UNL d   1      20.229 -19.325  -0.244  0.00  0.00    -0.056 A 
ATOM     17  C   UNL d   1      18.781 -19.696  -0.081  0.00  0.00     0.049 C 
ATOM     18  C   UNL d   1      21.081 -19.019   0.839  0.00  0.00    -0.054 A 
ATOM     19  C   UNL d   1      22.441 -18.658   0.606  0.00  0.00     0.037 A 
ATOM     20  C   UNL d   1      20.546 -19.109   2.244  0.00  0.00     0.049 C 
ENDBRANCH   9  13
ENDBRANCH   1   7
BRANCH   6  21
ATOM     21  N   UNL d   1      26.148 -14.169  -2.121  0.00  0.00    -0.379 N 
ATOM     22  C   UNL d   1      26.112 -15.096  -3.233  0.00  0.00     0.123 C 
ATOM     23  C   UNL d   1      26.363 -14.223  -4.446  0.00  0.00     0.021 C 
ATOM     24  C   UNL d   1      25.782 -12.870  -4.076  0.00  0.00     0.021 C 
ATOM     25  C   UNL d   1      25.870 -12.795  -2.547  0.00  0.00     0.123 C 
ENDBRANCH   6  21
BRANCH   3  26
ATOM     26  N   UNL d   1      28.377 -14.368   3.077  0.00  0.00    -0.323 N 
ATOM     27  C   UNL d   1      27.941 -13.403   3.995  0.00  0.00     0.256 C 
ATOM     28  O   UNL d   1      27.189 -12.447   3.771  0.00  0.00    -0.267 OA
ATOM     29  H   UNL d   1      28.899 -15.158   3.434  0.00  0.00     0.169 HD
BRANCH  27  30
ATOM     30  C   UNL d   1      28.397 -13.482   5.402  0.00  0.00     0.032 A 
ATOM     31  C   UNL d   1      27.780 -12.648   6.360  0.00  0.00     0.020 A 
ATOM     32  C   UNL d   1      28.330 -12.507   7.635  0.00  0.00     0.043 A 
ATOM     33  C   UNL d   1      29.455 -13.249   7.968  0.00  0.00     0.116 A 
ATOM     34  F   UNL d   1      29.961 -13.160   9.205  0.00  0.00    -0.206 F 
ATOM     35  C   UNL d   1      30.067 -14.084   7.035  0.00  0.00     0.043 A 
ATOM     36  C   UNL d   1      29.546 -14.196   5.743  0.00  0.00     0.020 A 
ENDBRANCH  27  30
ENDBRANCH   3  26
TORSDOF 5
ENDMDL
MODEL 9
REMARK VINA RESULT:    -8.700      1.414      2.280
REMARK INTER + INTRA:         -11.725
REMARK INTER:                 -10.191
REMARK INTRA:                  -1.534
REMARK CONF_INDEPENDENT:        1.492
REMARK UNBOUND:                -1.534
REMARK  5 active torsions:
REMARK  status: ('A' for Active; 'I' for Inactive)
REMARK    1  A    between atoms: C_5  and  N_6 
REMARK       I    between atoms: N_6  and  C_7 
REMARK       I    between atoms: C_7  and  N_9 
REMARK    2  A    between atoms: N_9  and  C_10 
REMARK    3  A    between atoms: C_12  and  N_13 
REMARK       I    between atoms: N_13  and  C_14 
REMARK    4  A    between atoms: C_14  and  C_16 
REMARK    5  A    between atoms: C_25  and  N_26 
ROOT
ATOM      1  C   UNL d   1      25.731 -15.363  -2.171  0.00  0.00     0.065 A 
ATOM      2  C   UNL d   1      24.428 -15.924  -1.961  0.00  0.00     0.061 A 
ATOM      3  C   UNL d   1      24.227 -16.994  -1.052  0.00  0.00     0.037 A 
ATOM      4  C   UNL d   1      25.357 -17.565  -0.478  0.00  0.00     0.032 A 
ATOM      5  C   UNL d   1      26.624 -17.030  -0.674  0.00  0.00     0.034 A 
ATOM      6  C   UNL d   1      26.851 -15.917  -1.487  0.00  0.00     0.057 A 
ENDROOT
BRANCH   1   7
ATOM      7  N   UNL d   1      25.903 -14.230  -3.058  0.00  0.00    -0.306 N 
ATOM      8  C   UNL d   1      26.627 -14.390  -4.237  0.00  0.00     0.325 C 
ATOM      9  N   UNL d   1      26.998 -13.212  -4.900  0.00  0.00    -0.309 N 
ATOM     10  O   UNL d   1      26.935 -15.512  -4.639  0.00  0.00    -0.247 OA
ATOM     11  H   UNL d   1      26.582 -12.336  -4.620  0.00  0.00     0.170 HD
ATOM     12  H   UNL d   1      25.234 -13.479  -2.995  0.00  0.00     0.170 HD
BRANCH   9  13
ATOM     13  C   UNL d   1      27.973 -13.170  -5.971  0.00  0.00     0.036 A 
ATOM     14  C   UNL d   1      29.192 -13.860  -5.893  0.00  0.00     0.030 A 
ATOM     15  C   UNL d   1      30.197 -13.752  -6.851  0.00  0.00     0.009 A 
ATOM     16  C   UNL d   1      29.998 -12.989  -7.990  0.00  0.00    -0.056 A 
ATOM     17  C   UNL d   1      31.096 -12.949  -9.016  0.00  0.00     0.049 C 
ATOM     18  C   UNL d   1      28.769 -12.311  -8.137  0.00  0.00    -0.054 A 
ATOM     19  C   UNL d   1      27.780 -12.380  -7.112  0.00  0.00     0.037 A 
ATOM     20  C   UNL d   1      28.502 -11.540  -9.403  0.00  0.00     0.049 C 
ENDBRANCH   9  13
ENDBRANCH   1   7
BRANCH   6  21
ATOM     21  N   UNL d   1      28.146 -15.435  -1.478  0.00  0.00    -0.379 N 
ATOM     22  C   UNL d   1      29.147 -15.704  -2.490  0.00  0.00     0.123 C 
ATOM     23  C   UNL d   1      30.404 -15.989  -1.694  0.00  0.00     0.021 C 
ATOM     24  C   UNL d   1      30.260 -15.158  -0.431  0.00  0.00     0.021 C 
ATOM     25  C   UNL d   1      28.750 -15.013  -0.211  0.00  0.00     0.123 C 
ENDBRANCH   6  21
BRANCH   3  26
ATOM     26  N   UNL d   1      22.919 -17.451  -0.673  0.00  0.00    -0.323 N 
ATOM     27  C   UNL d   1      22.546 -18.799  -0.600  0.00  0.00     0.256 C 
ATOM     28  O   UNL d   1      23.235 -19.781  -0.900  0.00  0.00    -0.267 OA
ATOM     29  H   UNL d   1      22.287 -16.763  -0.283  0.00  0.00     0.169 HD
BRANCH  27  30
ATOM     30  C   UNL d   1      21.190 -19.151  -0.119  0.00  0.00     0.032 A 
ATOM     31  C   UNL d   1      20.980 -19.286   1.271  0.00  0.00     0.020 A 
ATOM     32  C   UNL d   1      19.799 -19.849   1.757  0.00  0.00     0.043 A 
ATOM     33  C   UNL d   1      18.807 -20.213   0.857  0.00  0.00     0.116 A 
ATOM     34  F   UNL d   1      17.649 -20.706   1.315  0.00  0.00    -0.206 F 
ATOM     35  C   UNL d   1      18.997 -20.074  -0.517  0.00  0.00     0.043 A 
ATOM     36  C   UNL d   1      20.196 -19.552  -1.012  0.00  0.00     0.020 A 
ENDBRANCH  27  30
ENDBRANCH   3  26
TORSDOF 5
ENDMDL
