MODEL 1
REMARK VINA RESULT:    -8.266      0.000      0.000
REMARK INTER + INTRA:         -12.274
REMARK INTER:                 -10.354
REMARK INTRA:                  -1.920
REMARK CONF_INDEPENDENT:        2.088
REMARK UNBOUND:                -1.920
REMARK  7 active torsions:
REMARK  status: ('A' for Active; 'I' for Inactive)
REMARK    1  A    between atoms: C_2  and  O_3 
REMARK    2  A    between atoms: C_2  and  C_14 
REMARK    3  A    between atoms: O_3  and  C_4 
REMARK    4  A    between atoms: C_4  and  C_6 
REMARK       I    between atoms: C_14  and  N_16 
REMARK    5  A    between atoms: N_16  and  C_17 
REMARK    6  A    between atoms: C_20  and  S_21 
REMARK    7  A    between atoms: S_21  and  N_22 
ROOT
ATOM      1  C   UNL d   1      26.967 -16.766  -0.464  0.00  0.00     0.251 C 
ATOM      2  O   UNL d   1      27.086 -17.820  -1.099  0.00  0.00    -0.270 OA
ATOM      3  N   UNL d   1      25.716 -16.280  -0.072  0.00  0.00    -0.325 N 
ATOM      4  H   UNL d   1      25.631 -15.321   0.239  0.00  0.00     0.169 HD
ENDROOT
BRANCH   1   5
ATOM      5  C   UNL d   1      28.236 -15.946  -0.072  0.00  0.00     0.220 C 
ATOM      6  C   UNL d   1      29.437 -16.901  -0.201  0.00  0.00     0.050 C 
BRANCH   5   7
ATOM      7  O   UNL d   1      28.417 -14.790  -0.920  0.00  0.00    -0.302 OA
BRANCH   7   8
ATOM      8  C   UNL d   1      27.326 -14.352  -1.620  0.00  0.00     0.314 C 
ATOM      9  O   UNL d   1      26.325 -13.841  -1.142  0.00  0.00    -0.257 OA
BRANCH   8  10
ATOM     10  C   UNL d   1      27.480 -14.589  -3.088  0.00  0.00     0.155 A 
ATOM     11  N   UNL d   1      28.487 -15.445  -3.450  0.00  0.00    -0.229 NA
ATOM     12  C   UNL d   1      28.715 -15.593  -4.773  0.00  0.00     0.127 A 
ATOM     13 CL   UNL d   1      29.979 -16.675  -5.193  0.00  0.00    -0.062 Cl
ATOM     14  C   UNL d   1      28.008 -14.935  -5.764  0.00  0.00     0.046 A 
ATOM     15  C   UNL d   1      26.998 -14.059  -5.372  0.00  0.00     0.030 A 
ATOM     16  C   UNL d   1      26.725 -13.872  -4.015  0.00  0.00     0.069 A 
ATOM     17 CL   UNL d   1      25.525 -12.705  -3.600  0.00  0.00    -0.082 Cl
ENDBRANCH   8  10
ENDBRANCH   7   8
ENDBRANCH   5   7
ENDBRANCH   1   5
BRANCH   3  18
ATOM     18  C   UNL d   1      24.528 -17.024  -0.346  0.00  0.00     0.034 A 
ATOM     19  C   UNL d   1      24.487 -18.424  -0.281  0.00  0.00     0.031 A 
ATOM     20  C   UNL d   1      23.272 -19.113  -0.503  0.00  0.00     0.027 A 
ATOM     21  C   UNL d   1      22.098 -18.394  -0.768  0.00  0.00     0.079 A 
ATOM     22  C   UNL d   1      22.146 -17.010  -0.895  0.00  0.00     0.027 A 
ATOM     23  C   UNL d   1      23.353 -16.341  -0.687  0.00  0.00     0.031 A 
BRANCH  21  24
ATOM     24  S   UNL d   1      20.511 -19.203  -0.802  0.00  0.00     0.256 S 
ATOM     25  O   UNL d   1      19.501 -18.200  -0.529  0.00  0.00    -0.201 OA
ATOM     26  O   UNL d   1      20.459 -20.071  -1.949  0.00  0.00    -0.201 OA
BRANCH  24  27
ATOM     27  N   UNL d   1      20.596 -20.190   0.534  0.00  0.00    -0.324 N 
ATOM     28  H   UNL d   1      20.075 -19.897   1.351  0.00  0.00     0.169 HD
ATOM     29  H   UNL d   1      21.419 -20.779   0.606  0.00  0.00     0.169 HD
ENDBRANCH  24  27
ENDBRANCH  21  24
ENDBRANCH   3  18
TORSDOF 7
ENDMDL
MODEL 2
REMARK VINA RESULT:    -8.145      1.663      2.104
REMARK INTER + INTRA:         -12.012
REMARK INTER:                 -10.233
REMARK INTRA:                  -1.779
REMARK CONF_INDEPENDENT:        2.088
REMARK UNBOUND:                -1.779
REMARK  7 active torsions:
REMARK  status: ('A' for Active; 'I' for Inactive)
REMARK    1  A    between atoms: C_2  and  O_3 
REMARK    2  A    between atoms: C_2  and  C_14 
REMARK    3  A    between atoms: O_3  and  C_4 
REMARK    4  A    between atoms: C_4  and  C_6 
REMARK       I    between atoms: C_14  and  N_16 
REMARK    5  A    between atoms: N_16  and  C_17 
REMARK    6  A    between atoms: C_20  and  S_21 
REMARK    7  A    between atoms: S_21  and  N_22 
ROOT
ATOM      1  C   UNL d   1      26.423 -16.077  -1.450  0.00  0.00     0.251 C 
ATOM      2  O   UNL d   1      26.584 -16.607  -0.346  0.00  0.00    -0.270 OA
ATOM      3  N   UNL d   1      25.224 -16.199  -2.159  0.00  0.00    -0.325 N 
ATOM      4  H   UNL d   1      25.200 -15.953  -3.141  0.00  0.00     0.169 HD
ENDROOT
BRANCH   1   5
ATOM      5  C   UNL d   1      27.576 -15.236  -2.086  0.00  0.00     0.220 C 
ATOM      6  C   UNL d   1      28.499 -16.230  -2.812  0.00  0.00     0.050 C 
BRANCH   5   7
ATOM      7  O   UNL d   1      27.076 -14.243  -3.009  0.00  0.00    -0.302 OA
BRANCH   7   8
ATOM      8  C   UNL d   1      26.665 -14.684  -4.237  0.00  0.00     0.314 C 
ATOM      9  O   UNL d   1      25.583 -15.191  -4.491  0.00  0.00    -0.257 OA
BRANCH   8  10
ATOM     10  C   UNL d   1      27.721 -14.492  -5.277  0.00  0.00     0.155 A 
ATOM     11  N   UNL d   1      28.525 -15.577  -5.515  0.00  0.00    -0.229 NA
ATOM     12  C   UNL d   1      29.553 -15.397  -6.372  0.00  0.00     0.127 A 
ATOM     13 CL   UNL d   1      30.537 -16.775  -6.651  0.00  0.00    -0.062 Cl
ATOM     14  C   UNL d   1      29.840 -14.200  -7.004  0.00  0.00     0.046 A 
ATOM     15  C   UNL d   1      29.018 -13.108  -6.737  0.00  0.00     0.030 A 
ATOM     16  C   UNL d   1      27.942 -13.244  -5.856  0.00  0.00     0.069 A 
ATOM     17 CL   UNL d   1      27.022 -11.829  -5.501  0.00  0.00    -0.082 Cl
ENDBRANCH   8  10
ENDBRANCH   7   8
ENDBRANCH   5   7
ENDBRANCH   1   5
BRANCH   3  18
ATOM     18  C   UNL d   1      24.115 -16.900  -1.595  0.00  0.00     0.034 A 
ATOM     19  C   UNL d   1      23.276 -16.327  -0.629  0.00  0.00     0.031 A 
ATOM     20  C   UNL d   1      22.155 -17.040  -0.145  0.00  0.00     0.027 A 
ATOM     21  C   UNL d   1      21.866 -18.316  -0.648  0.00  0.00     0.079 A 
ATOM     22  C   UNL d   1      22.730 -18.914  -1.559  0.00  0.00     0.027 A 
ATOM     23  C   UNL d   1      23.841 -18.207  -2.020  0.00  0.00     0.031 A 
BRANCH  21  24
ATOM     24  S   UNL d   1      20.335 -19.136  -0.253  0.00  0.00     0.256 S 
ATOM     25  O   UNL d   1      19.258 -18.199  -0.506  0.00  0.00    -0.201 OA
ATOM     26  O   UNL d   1      20.363 -20.462  -0.810  0.00  0.00    -0.201 OA
BRANCH  24  27
ATOM     27  N   UNL d   1      20.452 -19.314   1.396  0.00  0.00    -0.324 N 
ATOM     28  H   UNL d   1      20.051 -18.577   1.964  0.00  0.00     0.169 HD
ATOM     29  H   UNL d   1      21.211 -19.897   1.733  0.00  0.00     0.169 HD
ENDBRANCH  24  27
ENDBRANCH  21  24
ENDBRANCH   3  18
TORSDOF 7
ENDMDL
MODEL 3
REMARK VINA RESULT:    -8.110      3.119      4.552
REMARK INTER + INTRA:         -12.155
REMARK INTER:                 -10.199
REMARK INTRA:                  -1.957
REMARK CONF_INDEPENDENT:        2.088
REMARK UNBOUND:                -1.957
REMARK  7 active torsions:
REMARK  status: ('A' for Active; 'I' for Inactive)
REMARK    1  A    between atoms: C_2  and  O_3 
REMARK    2  A    between atoms: C_2  and  C_14 
REMARK    3  A    between atoms: O_3  and  C_4 
REMARK    4  A    between atoms: C_4  and  C_6 
REMARK       I    between atoms: C_14  and  N_16 
REMARK    5  A    between atoms: N_16  and  C_17 
REMARK    6  A    between atoms: C_20  and  S_21 
REMARK    7  A    between atoms: S_21  and  N_22 
ROOT
ATOM      1  C   UNL d   1      26.921 -17.290   0.135  0.00  0.00     0.251 C 
ATOM      2  O   UNL d   1      26.773 -18.434   0.578  0.00  0.00    -0.270 OA
ATOM      3  N   UNL d   1      25.889 -16.616  -0.524  0.00  0.00    -0.325 N 
ATOM      4  H   UNL d   1      26.103 -15.789  -1.067  0.00  0.00     0.169 HD
ENDROOT
BRANCH   1   5
ATOM      5  C   UNL d   1      28.289 -16.558   0.313  0.00  0.00     0.220 C 
ATOM      6  C   UNL d   1      29.315 -17.325  -0.541  0.00  0.00     0.050 C 
BRANCH   5   7
ATOM      7  O   UNL d   1      28.221 -15.175  -0.101  0.00  0.00    -0.302 OA
BRANCH   7   8
ATOM      8  C   UNL d   1      27.414 -14.344   0.629  0.00  0.00     0.314 C 
ATOM      9  O   UNL d   1      26.228 -14.139   0.426  0.00  0.00    -0.257 OA
BRANCH   8  10
ATOM     10  C   UNL d   1      28.166 -13.672   1.731  0.00  0.00     0.155 A 
ATOM     11  N   UNL d   1      27.742 -13.959   3.002  0.00  0.00    -0.229 NA
ATOM     12  C   UNL d   1      28.335 -13.285   4.010  0.00  0.00     0.127 A 
ATOM     13 CL   UNL d   1      27.783 -13.671   5.589  0.00  0.00    -0.062 Cl
ATOM     14  C   UNL d   1      29.322 -12.331   3.835  0.00  0.00     0.046 A 
ATOM     15  C   UNL d   1      29.728 -12.045   2.534  0.00  0.00     0.030 A 
ATOM     16  C   UNL d   1      29.143 -12.717   1.457  0.00  0.00     0.069 A 
ATOM     17 CL   UNL d   1      29.629 -12.247  -0.130  0.00  0.00    -0.082 Cl
ENDBRANCH   8  10
ENDBRANCH   7   8
ENDBRANCH   5   7
ENDBRANCH   1   5
BRANCH   3  18
ATOM     18  C   UNL d   1      24.598 -17.212  -0.656  0.00  0.00     0.034 A 
ATOM     19  C   UNL d   1      24.415 -18.602  -0.713  0.00  0.00     0.031 A 
ATOM     20  C   UNL d   1      23.112 -19.146  -0.783  0.00  0.00     0.027 A 
ATOM     21  C   UNL d   1      21.996 -18.297  -0.774  0.00  0.00     0.079 A 
ATOM     22  C   UNL d   1      22.174 -16.918  -0.780  0.00  0.00     0.027 A 
ATOM     23  C   UNL d   1      23.465 -16.390  -0.725  0.00  0.00     0.031 A 
BRANCH  21  24
ATOM     24  S   UNL d   1      20.347 -18.948  -0.607  0.00  0.00     0.256 S 
ATOM     25  O   UNL d   1      19.420 -17.870  -0.890  0.00  0.00    -0.201 OA
ATOM     26  O   UNL d   1      20.284 -20.224  -1.268  0.00  0.00    -0.201 OA
BRANCH  24  27
ATOM     27  N   UNL d   1      20.258 -19.256   1.024  0.00  0.00    -0.324 N 
ATOM     28  H   UNL d   1      19.722 -18.604   1.584  0.00  0.00     0.169 HD
ATOM     29  H   UNL d   1      21.015 -19.805   1.420  0.00  0.00     0.169 HD
ENDBRANCH  24  27
ENDBRANCH  21  24
ENDBRANCH   3  18
TORSDOF 7
ENDMDL
MODEL 4
REMARK VINA RESULT:    -8.093      2.111      2.618
REMARK INTER + INTRA:         -11.432
REMARK INTER:                 -10.182
REMARK INTRA:                  -1.251
REMARK CONF_INDEPENDENT:        2.088
REMARK UNBOUND:                -1.251
REMARK  7 active torsions:
REMARK  status: ('A' for Active; 'I' for Inactive)
REMARK    1  A    between atoms: C_2  and  O_3 
REMARK    2  A    between atoms: C_2  and  C_14 
REMARK    3  A    between atoms: O_3  and  C_4 
REMARK    4  A    between atoms: C_4  and  C_6 
REMARK       I    between atoms: C_14  and  N_16 
REMARK    5  A    between atoms: N_16  and  C_17 
REMARK    6  A    between atoms: C_20  and  S_21 
REMARK    7  A    between atoms: S_21  and  N_22 
ROOT
ATOM      1  C   UNL d   1      26.016 -16.110  -2.161  0.00  0.00     0.251 C 
ATOM      2  O   UNL d   1      25.361 -16.259  -3.197  0.00  0.00    -0.270 OA
ATOM      3  N   UNL d   1      25.557 -16.575  -0.925  0.00  0.00    -0.325 N 
ATOM      4  H   UNL d   1      25.996 -16.244  -0.075  0.00  0.00     0.169 HD
ENDROOT
BRANCH   1   5
ATOM      5  C   UNL d   1      27.402 -15.392  -2.213  0.00  0.00     0.220 C 
ATOM      6  C   UNL d   1      28.289 -16.067  -1.150  0.00  0.00     0.050 C 
BRANCH   5   7
ATOM      7  O   UNL d   1      28.015 -15.491  -3.518  0.00  0.00    -0.302 OA
BRANCH   7   8
ATOM      8  C   UNL d   1      27.406 -14.822  -4.545  0.00  0.00     0.314 C 
ATOM      9  O   UNL d   1      27.044 -15.312  -5.604  0.00  0.00    -0.257 OA
BRANCH   8  10
ATOM     10  C   UNL d   1      27.238 -13.370  -4.237  0.00  0.00     0.155 A 
ATOM     11  N   UNL d   1      28.398 -12.665  -4.045  0.00  0.00    -0.229 NA
ATOM     12  C   UNL d   1      28.271 -11.376  -3.662  0.00  0.00     0.127 A 
ATOM     13 CL   UNL d   1      29.741 -10.520  -3.435  0.00  0.00    -0.062 Cl
ATOM     14  C   UNL d   1      27.060 -10.742  -3.448  0.00  0.00     0.046 A 
ATOM     15  C   UNL d   1      25.895 -11.482  -3.636  0.00  0.00     0.030 A 
ATOM     16  C   UNL d   1      25.975 -12.820  -4.032  0.00  0.00     0.069 A 
ATOM     17 CL   UNL d   1      24.496 -13.700  -4.156  0.00  0.00    -0.082 Cl
ENDBRANCH   8  10
ENDBRANCH   7   8
ENDBRANCH   5   7
ENDBRANCH   1   5
BRANCH   3  18
ATOM     18  C   UNL d   1      24.328 -17.296  -0.831  0.00  0.00     0.034 A 
ATOM     19  C   UNL d   1      24.281 -18.664  -0.524  0.00  0.00     0.031 A 
ATOM     20  C   UNL d   1      23.037 -19.321  -0.384  0.00  0.00     0.027 A 
ATOM     21  C   UNL d   1      21.844 -18.600  -0.529  0.00  0.00     0.079 A 
ATOM     22  C   UNL d   1      21.884 -17.259  -0.895  0.00  0.00     0.027 A 
ATOM     23  C   UNL d   1      23.118 -16.623  -1.045  0.00  0.00     0.031 A 
BRANCH  21  24
ATOM     24  S   UNL d   1      20.272 -19.328  -0.114  0.00  0.00     0.256 S 
ATOM     25  O   UNL d   1      19.237 -18.396  -0.517  0.00  0.00    -0.201 OA
ATOM     26  O   UNL d   1      20.280 -20.708  -0.521  0.00  0.00    -0.201 OA
BRANCH  24  27
ATOM     27  N   UNL d   1      20.316 -19.324   1.548  0.00  0.00    -0.324 N 
ATOM     28  H   UNL d   1      21.052 -19.866   1.986  0.00  0.00     0.169 HD
ATOM     29  H   UNL d   1      19.440 -19.131   2.020  0.00  0.00     0.169 HD
ENDBRANCH  24  27
ENDBRANCH  21  24
ENDBRANCH   3  18
TORSDOF 7
ENDMDL
MODEL 5
REMARK VINA RESULT:    -8.049      1.164      2.237
REMARK INTER + INTRA:         -12.604
REMARK INTER:                 -10.137
REMARK INTRA:                  -2.466
REMARK CONF_INDEPENDENT:        2.088
REMARK UNBOUND:                -2.466
REMARK  7 active torsions:
REMARK  status: ('A' for Active; 'I' for Inactive)
REMARK    1  A    between atoms: C_2  and  O_3 
REMARK    2  A    between atoms: C_2  and  C_14 
REMARK    3  A    between atoms: O_3  and  C_4 
REMARK    4  A    between atoms: C_4  and  C_6 
REMARK       I    between atoms: C_14  and  N_16 
REMARK    5  A    between atoms: N_16  and  C_17 
REMARK    6  A    between atoms: C_20  and  S_21 
REMARK    7  A    between atoms: S_21  and  N_22 
ROOT
ATOM      1  C   UNL d   1      26.826 -17.191   0.294  0.00  0.00     0.251 C 
ATOM      2  O   UNL d   1      26.628 -18.168   1.024  0.00  0.00    -0.270 OA
ATOM      3  N   UNL d   1      25.860 -16.739  -0.610  0.00  0.00    -0.325 N 
ATOM      4  H   UNL d   1      26.128 -16.093  -1.342  0.00  0.00     0.169 HD
ENDROOT
BRANCH   1   5
ATOM      5  C   UNL d   1      28.182 -16.420   0.375  0.00  0.00     0.220 C 
ATOM      6  C   UNL d   1      29.188 -17.205  -0.487  0.00  0.00     0.050 C 
BRANCH   5   7
ATOM      7  O   UNL d   1      28.062 -15.062  -0.101  0.00  0.00    -0.302 OA
BRANCH   7   8
ATOM      8  C   UNL d   1      28.838 -14.704  -1.171  0.00  0.00     0.314 C 
ATOM      9  O   UNL d   1      29.998 -14.325  -1.119  0.00  0.00    -0.257 OA
BRANCH   8  10
ATOM     10  C   UNL d   1      28.087 -14.810  -2.459  0.00  0.00     0.155 A 
ATOM     11  N   UNL d   1      26.778 -14.408  -2.419  0.00  0.00    -0.229 NA
ATOM     12  C   UNL d   1      26.049 -14.592  -3.540  0.00  0.00     0.127 A 
ATOM     13 CL   UNL d   1      24.415 -14.075  -3.459  0.00  0.00    -0.062 Cl
ATOM     14  C   UNL d   1      26.538 -15.162  -4.703  0.00  0.00     0.046 A 
ATOM     15  C   UNL d   1      27.868 -15.575  -4.716  0.00  0.00     0.030 A 
ATOM     16  C   UNL d   1      28.663 -15.406  -3.579  0.00  0.00     0.069 A 
ATOM     17 CL   UNL d   1      30.272 -16.025  -3.635  0.00  0.00    -0.082 Cl
ENDBRANCH   8  10
ENDBRANCH   7   8
ENDBRANCH   5   7
ENDBRANCH   1   5
BRANCH   3  18
ATOM     18  C   UNL d   1      24.578 -17.365  -0.677  0.00  0.00     0.034 A 
ATOM     19  C   UNL d   1      24.409 -18.749  -0.529  0.00  0.00     0.031 A 
ATOM     20  C   UNL d   1      23.113 -19.314  -0.544  0.00  0.00     0.027 A 
ATOM     21  C   UNL d   1      21.990 -18.488  -0.685  0.00  0.00     0.079 A 
ATOM     22  C   UNL d   1      22.155 -17.123  -0.895  0.00  0.00     0.027 A 
ATOM     23  C   UNL d   1      23.439 -16.577  -0.892  0.00  0.00     0.031 A 
BRANCH  21  24
ATOM     24  S   UNL d   1      20.343 -19.127  -0.457  0.00  0.00     0.256 S 
ATOM     25  O   UNL d   1      19.411 -18.076  -0.815  0.00  0.00    -0.201 OA
ATOM     26  O   UNL d   1      20.279 -20.450  -1.017  0.00  0.00    -0.201 OA
BRANCH  24  27
ATOM     27  N   UNL d   1      20.267 -19.308   1.194  0.00  0.00    -0.324 N 
ATOM     28  H   UNL d   1      19.423 -18.983   1.650  0.00  0.00     0.169 HD
ATOM     29  H   UNL d   1      21.155 -19.358   1.682  0.00  0.00     0.169 HD
ENDBRANCH  24  27
ENDBRANCH  21  24
ENDBRANCH   3  18
TORSDOF 7
ENDMDL
MODEL 6
REMARK VINA RESULT:    -7.786      1.818      2.939
REMARK INTER + INTRA:         -11.810
REMARK INTER:                  -9.874
REMARK INTRA:                  -1.935
REMARK CONF_INDEPENDENT:        2.088
REMARK UNBOUND:                -1.935
REMARK  7 active torsions:
REMARK  status: ('A' for Active; 'I' for Inactive)
REMARK    1  A    between atoms: C_2  and  O_3 
REMARK    2  A    between atoms: C_2  and  C_14 
REMARK    3  A    between atoms: O_3  and  C_4 
REMARK    4  A    between atoms: C_4  and  C_6 
REMARK       I    between atoms: C_14  and  N_16 
REMARK    5  A    between atoms: N_16  and  C_17 
REMARK    6  A    between atoms: C_20  and  S_21 
REMARK    7  A    between atoms: S_21  and  N_22 
ROOT
ATOM      1  C   UNL d   1      26.177 -15.654  -0.992  0.00  0.00     0.251 C 
ATOM      2  O   UNL d   1      25.781 -15.322   0.130  0.00  0.00    -0.270 OA
ATOM      3  N   UNL d   1      25.488 -16.589  -1.770  0.00  0.00    -0.325 N 
ATOM      4  H   UNL d   1      25.949 -17.005  -2.570  0.00  0.00     0.169 HD
ENDROOT
BRANCH   1   5
ATOM      5  C   UNL d   1      27.478 -15.018  -1.577  0.00  0.00     0.220 C 
ATOM      6  C   UNL d   1      28.661 -15.673  -0.840  0.00  0.00     0.050 C 
BRANCH   5   7
ATOM      7  O   UNL d   1      27.591 -15.231  -3.002  0.00  0.00    -0.302 OA
BRANCH   7   8
ATOM      8  C   UNL d   1      26.559 -14.789  -3.783  0.00  0.00     0.314 C 
ATOM      9  O   UNL d   1      25.492 -15.360  -3.952  0.00  0.00    -0.257 OA
BRANCH   8  10
ATOM     10  C   UNL d   1      26.887 -13.492  -4.451  0.00  0.00     0.155 A 
ATOM     11  N   UNL d   1      26.202 -12.397  -3.992  0.00  0.00    -0.229 NA
ATOM     12  C   UNL d   1      26.402 -11.234  -4.649  0.00  0.00     0.127 A 
ATOM     13 CL   UNL d   1      25.534  -9.882  -4.047  0.00  0.00    -0.062 Cl
ATOM     14  C   UNL d   1      27.237 -11.091  -5.744  0.00  0.00     0.046 A 
ATOM     15  C   UNL d   1      27.911 -12.221  -6.201  0.00  0.00     0.030 A 
ATOM     16  C   UNL d   1      27.736 -13.447  -5.555  0.00  0.00     0.069 A 
ATOM     17 CL   UNL d   1      28.531 -14.821  -6.230  0.00  0.00    -0.082 Cl
ENDBRANCH   8  10
ENDBRANCH   7   8
ENDBRANCH   5   7
ENDBRANCH   1   5
BRANCH   3  18
ATOM     18  C   UNL d   1      24.259 -17.151  -1.312  0.00  0.00     0.034 A 
ATOM     19  C   UNL d   1      23.174 -16.359  -0.909  0.00  0.00     0.031 A 
ATOM     20  C   UNL d   1      21.956 -16.963  -0.519  0.00  0.00     0.027 A 
ATOM     21  C   UNL d   1      21.823 -18.358  -0.556  0.00  0.00     0.079 A 
ATOM     22  C   UNL d   1      22.914 -19.150  -0.895  0.00  0.00     0.027 A 
ATOM     23  C   UNL d   1      24.116 -18.545  -1.264  0.00  0.00     0.031 A 
BRANCH  21  24
ATOM     24  S   UNL d   1      20.239 -19.137  -0.318  0.00  0.00     0.256 S 
ATOM     25  O   UNL d   1      19.217 -18.168  -0.661  0.00  0.00    -0.201 OA
ATOM     26  O   UNL d   1      20.283 -20.458  -0.887  0.00  0.00    -0.201 OA
BRANCH  24  27
ATOM     27  N   UNL d   1      20.194 -19.335   1.333  0.00  0.00    -0.324 N 
ATOM     28  H   UNL d   1      20.041 -18.502   1.888  0.00  0.00     0.169 HD
ATOM     29  H   UNL d   1      20.686 -20.142   1.702  0.00  0.00     0.169 HD
ENDBRANCH  24  27
ENDBRANCH  21  24
ENDBRANCH   3  18
TORSDOF 7
ENDMDL
MODEL 7
REMARK VINA RESULT:    -7.646      1.493      2.893
REMARK INTER + INTRA:         -12.006
REMARK INTER:                  -9.734
REMARK INTRA:                  -2.272
REMARK CONF_INDEPENDENT:        2.088
REMARK UNBOUND:                -2.272
REMARK  7 active torsions:
REMARK  status: ('A' for Active; 'I' for Inactive)
REMARK    1  A    between atoms: C_2  and  O_3 
REMARK    2  A    between atoms: C_2  and  C_14 
REMARK    3  A    between atoms: O_3  and  C_4 
REMARK    4  A    between atoms: C_4  and  C_6 
REMARK       I    between atoms: C_14  and  N_16 
REMARK    5  A    between atoms: N_16  and  C_17 
REMARK    6  A    between atoms: C_20  and  S_21 
REMARK    7  A    between atoms: S_21  and  N_22 
ROOT
ATOM      1  C   UNL d   1      28.283 -15.643  -0.333  0.00  0.00     0.251 C 
ATOM      2  O   UNL d   1      27.584 -14.804   0.244  0.00  0.00    -0.270 OA
ATOM      3  N   UNL d   1      27.736 -16.810  -0.876  0.00  0.00    -0.325 N 
ATOM      4  H   UNL d   1      28.349 -17.573  -1.134  0.00  0.00     0.169 HD
ENDROOT
BRANCH   1   5
ATOM      5  C   UNL d   1      29.820 -15.409  -0.479  0.00  0.00     0.220 C 
ATOM      6  C   UNL d   1      30.515 -16.609   0.190  0.00  0.00     0.050 C 
BRANCH   5   7
ATOM      7  O   UNL d   1      30.222 -15.300  -1.862  0.00  0.00    -0.302 OA
BRANCH   7   8
ATOM      8  C   UNL d   1      29.723 -16.229  -2.733  0.00  0.00     0.314 C 
ATOM      9  O   UNL d   1      29.896 -17.437  -2.669  0.00  0.00    -0.257 OA
BRANCH   8  10
ATOM     10  C   UNL d   1      28.926 -15.592  -3.826  0.00  0.00     0.155 A 
ATOM     11  N   UNL d   1      27.747 -15.010  -3.440  0.00  0.00    -0.229 NA
ATOM     12  C   UNL d   1      26.960 -14.521  -4.422  0.00  0.00     0.127 A 
ATOM     13 CL   UNL d   1      25.493 -13.795  -3.906  0.00  0.00    -0.062 Cl
ATOM     14  C   UNL d   1      27.266 -14.581  -5.770  0.00  0.00     0.046 A 
ATOM     15  C   UNL d   1      28.464 -15.189  -6.139  0.00  0.00     0.030 A 
ATOM     16  C   UNL d   1      29.312 -15.711  -5.160  0.00  0.00     0.069 A 
ATOM     17 CL   UNL d   1      30.733 -16.531  -5.694  0.00  0.00    -0.082 Cl
ENDBRANCH   8  10
ENDBRANCH   7   8
ENDBRANCH   5   7
ENDBRANCH   1   5
BRANCH   3  18
ATOM     18  C   UNL d   1      26.328 -17.042  -0.829  0.00  0.00     0.034 A 
ATOM     19  C   UNL d   1      25.427 -16.364  -1.663  0.00  0.00     0.031 A 
ATOM     20  C   UNL d   1      24.047 -16.673  -1.621  0.00  0.00     0.027 A 
ATOM     21  C   UNL d   1      23.579 -17.675  -0.760  0.00  0.00     0.079 A 
ATOM     22  C   UNL d   1      24.458 -18.306   0.113  0.00  0.00     0.027 A 
ATOM     23  C   UNL d   1      25.816 -17.985   0.074  0.00  0.00     0.031 A 
BRANCH  21  24
ATOM     24  S   UNL d   1      21.901 -18.263  -0.859  0.00  0.00     0.256 S 
ATOM     25  O   UNL d   1      21.032 -17.104  -0.908  0.00  0.00    -0.201 OA
ATOM     26  O   UNL d   1      21.839 -19.325  -1.828  0.00  0.00    -0.201 OA
BRANCH  24  27
ATOM     27  N   UNL d   1      21.692 -18.971   0.631  0.00  0.00    -0.324 N 
ATOM     28  H   UNL d   1      22.123 -18.506   1.421  0.00  0.00     0.169 HD
ATOM     29  H   UNL d   1      21.504 -19.968   0.633  0.00  0.00     0.169 HD
ENDBRANCH  24  27
ENDBRANCH  21  24
ENDBRANCH   3  18
TORSDOF 7
ENDMDL
MODEL 8
REMARK VINA RESULT:    -7.463      4.012      6.821
REMARK INTER + INTRA:         -12.332
REMARK INTER:                  -9.551
REMARK INTRA:                  -2.781
REMARK CONF_INDEPENDENT:        2.088
REMARK UNBOUND:                -2.781
REMARK  7 active torsions:
REMARK  status: ('A' for Active; 'I' for Inactive)
REMARK    1  A    between atoms: C_2  and  O_3 
REMARK    2  A    between atoms: C_2  and  C_14 
REMARK    3  A    between atoms: O_3  and  C_4 
REMARK    4  A    between atoms: C_4  and  C_6 
REMARK       I    between atoms: C_14  and  N_16 
REMARK    5  A    between atoms: N_16  and  C_17 
REMARK    6  A    between atoms: C_20  and  S_21 
REMARK    7  A    between atoms: S_21  and  N_22 
ROOT
ATOM      1  C   UNL d   1      26.438 -12.947  -2.028  0.00  0.00     0.251 C 
ATOM      2  O   UNL d   1      27.344 -12.115  -1.907  0.00  0.00    -0.270 OA
ATOM      3  N   UNL d   1      26.117 -13.842  -1.004  0.00  0.00    -0.325 N 
ATOM      4  H   UNL d   1      25.538 -14.646  -1.210  0.00  0.00     0.169 HD
ENDROOT
BRANCH   1   5
ATOM      5  C   UNL d   1      25.611 -13.009  -3.352  0.00  0.00     0.220 C 
ATOM      6  C   UNL d   1      26.579 -12.649  -4.494  0.00  0.00     0.050 C 
BRANCH   5   7
ATOM      7  O   UNL d   1      25.036 -14.316  -3.570  0.00  0.00    -0.302 OA
BRANCH   7   8
ATOM      8  C   UNL d   1      25.905 -15.355  -3.766  0.00  0.00     0.314 C 
ATOM      9  O   UNL d   1      26.541 -15.575  -4.785  0.00  0.00    -0.257 OA
BRANCH   8  10
ATOM     10  C   UNL d   1      25.986 -16.241  -2.565  0.00  0.00     0.155 A 
ATOM     11  N   UNL d   1      24.789 -16.572  -1.987  0.00  0.00    -0.229 NA
ATOM     12  C   UNL d   1      24.841 -17.283  -0.841  0.00  0.00     0.127 A 
ATOM     13 CL   UNL d   1      23.324 -17.684  -0.145  0.00  0.00    -0.062 Cl
ATOM     14  C   UNL d   1      26.014 -17.683  -0.224  0.00  0.00     0.046 A 
ATOM     15  C   UNL d   1      27.219 -17.324  -0.823  0.00  0.00     0.030 A 
ATOM     16  C   UNL d   1      27.217 -16.587  -2.010  0.00  0.00     0.069 A 
ATOM     17 CL   UNL d   1      28.745 -16.100  -2.645  0.00  0.00    -0.082 Cl
ENDBRANCH   8  10
ENDBRANCH   7   8
ENDBRANCH   5   7
ENDBRANCH   1   5
BRANCH   3  18
ATOM     18  C   UNL d   1      26.797 -13.785   0.251  0.00  0.00     0.034 A 
ATOM     19  C   UNL d   1      26.280 -13.090   1.354  0.00  0.00     0.031 A 
ATOM     20  C   UNL d   1      26.961 -13.112   2.593  0.00  0.00     0.027 A 
ATOM     21  C   UNL d   1      28.145 -13.849   2.728  0.00  0.00     0.079 A 
ATOM     22  C   UNL d   1      28.694 -14.489   1.622  0.00  0.00     0.027 A 
ATOM     23  C   UNL d   1      28.022 -14.449   0.400  0.00  0.00     0.031 A 
BRANCH  21  24
ATOM     24  S   UNL d   1      28.891 -14.107   4.325  0.00  0.00     0.256 S 
ATOM     25  O   UNL d   1      29.113 -12.805   4.921  0.00  0.00    -0.201 OA
ATOM     26  O   UNL d   1      28.185 -15.164   5.000  0.00  0.00    -0.201 OA
BRANCH  24  27
ATOM     27  N   UNL d   1      30.382 -14.720   3.917  0.00  0.00    -0.324 N 
ATOM     28  H   UNL d   1      30.390 -15.575   3.373  0.00  0.00     0.169 HD
ATOM     29  H   UNL d   1      31.155 -14.462   4.521  0.00  0.00     0.169 HD
ENDBRANCH  24  27
ENDBRANCH  21  24
ENDBRANCH   3  18
TORSDOF 7
ENDMDL
MODEL 9
REMARK VINA RESULT:    -6.991      4.218      6.913
REMARK INTER + INTRA:         -11.558
REMARK INTER:                  -9.079
REMARK INTRA:                  -2.479
REMARK CONF_INDEPENDENT:        2.088
REMARK UNBOUND:                -2.479
REMARK  7 active torsions:
REMARK  status: ('A' for Active; 'I' for Inactive)
REMARK    1  A    between atoms: C_2  and  O_3 
REMARK    2  A    between atoms: C_2  and  C_14 
REMARK    3  A    between atoms: O_3  and  C_4 
REMARK    4  A    between atoms: C_4  and  C_6 
REMARK       I    between atoms: C_14  and  N_16 
REMARK    5  A    between atoms: N_16  and  C_17 
REMARK    6  A    between atoms: C_20  and  S_21 
REMARK    7  A    between atoms: S_21  and  N_22 
ROOT
ATOM      1  C   UNL d   1      26.840 -12.963  -1.228  0.00  0.00     0.251 C 
ATOM      2  O   UNL d   1      27.611 -12.013  -1.056  0.00  0.00    -0.270 OA
ATOM      3  N   UNL d   1      26.632 -13.932  -0.242  0.00  0.00    -0.325 N 
ATOM      4  H   UNL d   1      26.181 -14.804  -0.490  0.00  0.00     0.169 HD
ENDROOT
BRANCH   1   5
ATOM      5  C   UNL d   1      26.059 -13.097  -2.574  0.00  0.00     0.220 C 
ATOM      6  C   UNL d   1      27.111 -13.328  -3.674  0.00  0.00     0.050 C 
BRANCH   5   7
ATOM      7  O   UNL d   1      25.112 -14.187  -2.544  0.00  0.00    -0.302 OA
BRANCH   7   8
ATOM      8  C   UNL d   1      25.551 -15.408  -2.980  0.00  0.00     0.314 C 
ATOM      9  O   UNL d   1      25.510 -15.816  -4.130  0.00  0.00    -0.257 OA
BRANCH   8  10
ATOM     10  C   UNL d   1      26.092 -16.234  -1.857  0.00  0.00     0.155 A 
ATOM     11  N   UNL d   1      27.457 -16.254  -1.738  0.00  0.00    -0.229 NA
ATOM     12  C   UNL d   1      27.975 -17.075  -0.800  0.00  0.00     0.127 A 
ATOM     13 CL   UNL d   1      29.686 -17.074  -0.674  0.00  0.00    -0.062 Cl
ATOM     14  C   UNL d   1      27.220 -17.888   0.027  0.00  0.00     0.046 A 
ATOM     15  C   UNL d   1      25.835 -17.860  -0.121  0.00  0.00     0.030 A 
ATOM     16  C   UNL d   1      25.252 -17.027  -1.079  0.00  0.00     0.069 A 
ATOM     17 CL   UNL d   1      23.540 -17.113  -1.270  0.00  0.00    -0.082 Cl
ENDBRANCH   8  10
ENDBRANCH   7   8
ENDBRANCH   5   7
ENDBRANCH   1   5
BRANCH   3  18
ATOM     18  C   UNL d   1      27.268 -13.822   1.031  0.00  0.00     0.034 A 
ATOM     19  C   UNL d   1      26.699 -13.110   2.097  0.00  0.00     0.031 A 
ATOM     20  C   UNL d   1      27.339 -13.080   3.358  0.00  0.00     0.027 A 
ATOM     21  C   UNL d   1      28.538 -13.781   3.551  0.00  0.00     0.079 A 
ATOM     22  C   UNL d   1      29.138 -14.436   2.481  0.00  0.00     0.027 A 
ATOM     23  C   UNL d   1      28.505 -14.448   1.238  0.00  0.00     0.031 A 
BRANCH  21  24
ATOM     24  S   UNL d   1      29.238 -13.975   5.177  0.00  0.00     0.256 S 
ATOM     25  O   UNL d   1      29.924 -12.742   5.509  0.00  0.00    -0.201 OA
ATOM     26  O   UNL d   1      28.253 -14.575   6.037  0.00  0.00    -0.201 OA
BRANCH  24  27
ATOM     27  N   UNL d   1      30.405 -15.130   4.917  0.00  0.00    -0.324 N 
ATOM     28  H   UNL d   1      31.369 -14.825   4.972  0.00  0.00     0.169 HD
ATOM     29  H   UNL d   1      30.127 -15.932   4.361  0.00  0.00     0.169 HD
ENDBRANCH  24  27
ENDBRANCH  21  24
ENDBRANCH   3  18
TORSDOF 7
ENDMDL
