MODEL 1
REMARK VINA RESULT:    -9.048      0.000      0.000
REMARK INTER + INTRA:         -12.129
REMARK INTER:                 -11.136
REMARK INTRA:                  -0.993
REMARK CONF_INDEPENDENT:        2.088
REMARK UNBOUND:                -0.993
REMARK  7 active torsions:
REMARK  status: ('A' for Active; 'I' for Inactive)
REMARK    1  A    between atoms: O_2  and  C_3 
REMARK    2  A    between atoms: C_3  and  C_5 
REMARK    3  A    between atoms: C_8  and  N_9 
REMARK       I    between atoms: N_9  and  C_10 
REMARK    4  A    between atoms: C_10  and  C_12 
REMARK    5  A    between atoms: C_12  and  S_13 
REMARK    6  A    between atoms: S_13  and  C_14 
REMARK    7  A    between atoms: C_17  and  C_18 
ROOT
ATOM      1  C   UNL d   1      28.684 -15.291  -4.206  0.00  0.00     0.172 A 
ATOM      2  N   UNL d   1      28.109 -14.146  -4.474  0.00  0.00    -0.221 NA
ATOM      3  C   UNL d   1      28.282 -13.675  -5.782  0.00  0.00     0.104 A 
ATOM      4  C   UNL d   1      27.786 -12.502  -6.410  0.00  0.00     0.021 A 
ATOM      5  C   UNL d   1      28.269 -12.530  -7.713  0.00  0.00     0.103 A 
ATOM      6  N   UNL d   1      29.009 -13.676  -7.876  0.00  0.00    -0.359 N 
ATOM      7  C   UNL d   1      29.014 -14.370  -6.699  0.00  0.00     0.131 A 
ATOM      8  C   UNL d   1      29.649 -15.601  -6.416  0.00  0.00     0.278 A 
ATOM      9  O   UNL d   1      30.291 -16.221  -7.269  0.00  0.00    -0.265 OA
ATOM     10  N   UNL d   1      29.464 -16.032  -5.105  0.00  0.00    -0.296 N 
ATOM     11  C   UNL d   1      30.128 -17.266  -4.767  0.00  0.00     0.162 C 
ATOM     12  H   UNL d   1      29.485 -13.966  -8.723  0.00  0.00     0.165 HD
ENDROOT
BRANCH   1  13
ATOM     13  S   UNL d   1      28.517 -15.823  -2.527  0.00  0.00    -0.082 SA
BRANCH  13  14
ATOM     14  C   UNL d   1      27.231 -14.850  -1.630  0.00  0.00     0.185 C 
BRANCH  14  15
ATOM     15  C   UNL d   1      25.863 -15.531  -1.756  0.00  0.00     0.231 C 
ATOM     16  N   UNL d   1      25.526 -16.466  -0.756  0.00  0.00    -0.327 N 
ATOM     17  H   UNL d   1      26.205 -16.700  -0.040  0.00  0.00     0.169 HD
ATOM     18  O   UNL d   1      25.116 -15.211  -2.678  0.00  0.00    -0.272 OA
BRANCH  16  19
ATOM     19  C   UNL d   1      24.299 -17.212  -0.749  0.00  0.00     0.034 A 
ATOM     20  C   UNL d   1      23.056 -16.586  -0.934  0.00  0.00     0.030 A 
ATOM     21  C   UNL d   1      21.853 -17.324  -0.789  0.00  0.00     0.020 A 
ATOM     22  C   UNL d   1      21.877 -18.704  -0.526  0.00  0.00     0.039 A 
ATOM     23  C   UNL d   1      23.105 -19.332  -0.392  0.00  0.00     0.020 A 
ATOM     24  C   UNL d   1      24.282 -18.593  -0.518  0.00  0.00     0.030 A 
BRANCH  22  25
ATOM     25  C   UNL d   1      20.634 -19.516  -0.560  0.00  0.00     0.292 C 
ATOM     26  O   UNL d   1      20.000 -19.697  -1.590  0.00  0.00    -0.259 OA
BRANCH  25  27
ATOM     27  O   UNL d   1      20.330 -20.019   0.665  0.00  0.00    -0.323 OA
ATOM     28  C   UNL d   1      19.150 -19.455   1.255  0.00  0.00     0.213 C 
ENDBRANCH  25  27
ENDBRANCH  22  25
ENDBRANCH  16  19
ENDBRANCH  14  15
ENDBRANCH  13  14
ENDBRANCH   1  13
BRANCH   4  29
ATOM     29  C   UNL d   1      27.035 -11.367  -5.906  0.00  0.00    -0.022 A 
ATOM     30  C   UNL d   1      27.350 -10.764  -4.679  0.00  0.00     0.012 A 
ATOM     31  C   UNL d   1      26.548  -9.737  -4.172  0.00  0.00     0.001 A 
ATOM     32  C   UNL d   1      25.466  -9.265  -4.915  0.00  0.00     0.000 A 
ATOM     33  C   UNL d   1      25.149  -9.859  -6.135  0.00  0.00     0.001 A 
ATOM     34  C   UNL d   1      25.923 -10.914  -6.622  0.00  0.00     0.012 A 
ENDBRANCH   4  29
TORSDOF 7
ENDMDL
MODEL 2
REMARK VINA RESULT:    -8.427      3.219      8.471
REMARK INTER + INTRA:         -12.329
REMARK INTER:                 -10.515
REMARK INTRA:                  -1.814
REMARK CONF_INDEPENDENT:        2.088
REMARK UNBOUND:                -1.814
REMARK  7 active torsions:
REMARK  status: ('A' for Active; 'I' for Inactive)
REMARK    1  A    between atoms: O_2  and  C_3 
REMARK    2  A    between atoms: C_3  and  C_5 
REMARK    3  A    between atoms: C_8  and  N_9 
REMARK       I    between atoms: N_9  and  C_10 
REMARK    4  A    between atoms: C_10  and  C_12 
REMARK    5  A    between atoms: C_12  and  S_13 
REMARK    6  A    between atoms: S_13  and  C_14 
REMARK    7  A    between atoms: C_17  and  C_18 
ROOT
ATOM      1  C   UNL d   1      27.016 -14.146  -1.937  0.00  0.00     0.172 A 
ATOM      2  N   UNL d   1      26.089 -15.007  -1.602  0.00  0.00    -0.221 NA
ATOM      3  C   UNL d   1      26.533 -16.120  -0.876  0.00  0.00     0.104 A 
ATOM      4  C   UNL d   1      25.809 -17.217  -0.339  0.00  0.00     0.021 A 
ATOM      5  C   UNL d   1      26.749 -18.032   0.282  0.00  0.00     0.103 A 
ATOM      6  N   UNL d   1      27.984 -17.448   0.146  0.00  0.00    -0.359 N 
ATOM      7  C   UNL d   1      27.849 -16.284  -0.558  0.00  0.00     0.131 A 
ATOM      8  C   UNL d   1      28.859 -15.366  -0.926  0.00  0.00     0.278 A 
ATOM      9  O   UNL d   1      30.042 -15.528  -0.610  0.00  0.00    -0.265 OA
ATOM     10  N   UNL d   1      28.382 -14.280  -1.655  0.00  0.00    -0.296 N 
ATOM     11  C   UNL d   1      29.388 -13.340  -2.081  0.00  0.00     0.162 C 
ATOM     12  H   UNL d   1      28.861 -17.814   0.499  0.00  0.00     0.165 HD
ENDROOT
BRANCH   1  13
ATOM     13  S   UNL d   1      26.440 -12.793  -2.921  0.00  0.00    -0.082 SA
BRANCH  13  14
ATOM     14  C   UNL d   1      25.967 -13.340  -4.620  0.00  0.00     0.185 C 
BRANCH  14  15
ATOM     15  C   UNL d   1      26.778 -14.576  -5.027  0.00  0.00     0.231 C 
ATOM     16  N   UNL d   1      28.177 -14.496  -4.874  0.00  0.00    -0.327 N 
ATOM     17  H   UNL d   1      28.598 -13.624  -4.569  0.00  0.00     0.169 HD
ATOM     18  O   UNL d   1      26.186 -15.579  -5.419  0.00  0.00    -0.272 OA
BRANCH  16  19
ATOM     19  C   UNL d   1      29.077 -15.552  -5.240  0.00  0.00     0.034 A 
ATOM     20  C   UNL d   1      29.658 -15.616  -6.515  0.00  0.00     0.030 A 
ATOM     21  C   UNL d   1      30.437 -16.740  -6.894  0.00  0.00     0.020 A 
ATOM     22  C   UNL d   1      30.701 -17.777  -5.984  0.00  0.00     0.039 A 
ATOM     23  C   UNL d   1      30.169 -17.691  -4.708  0.00  0.00     0.020 A 
ATOM     24  C   UNL d   1      29.389 -16.590  -4.352  0.00  0.00     0.030 A 
BRANCH  22  25
ATOM     25  C   UNL d   1      31.666 -18.859  -6.309  0.00  0.00     0.292 C 
ATOM     26  O   UNL d   1      32.853 -18.781  -6.028  0.00  0.00    -0.259 OA
BRANCH  25  27
ATOM     27  O   UNL d   1      31.057 -19.907  -6.923  0.00  0.00    -0.323 OA
ATOM     28  C   UNL d   1      30.901 -19.749  -8.340  0.00  0.00     0.213 C 
ENDBRANCH  25  27
ENDBRANCH  22  25
ENDBRANCH  16  19
ENDBRANCH  14  15
ENDBRANCH  13  14
ENDBRANCH   1  13
BRANCH   4  29
ATOM     29  C   UNL d   1      24.416 -17.611  -0.439  0.00  0.00    -0.022 A 
ATOM     30  C   UNL d   1      24.020 -18.952  -0.322  0.00  0.00     0.012 A 
ATOM     31  C   UNL d   1      22.684 -19.313  -0.520  0.00  0.00     0.001 A 
ATOM     32  C   UNL d   1      21.727 -18.331  -0.777  0.00  0.00     0.000 A 
ATOM     33  C   UNL d   1      22.114 -16.998  -0.895  0.00  0.00     0.001 A 
ATOM     34  C   UNL d   1      23.454 -16.641  -0.738  0.00  0.00     0.012 A 
ENDBRANCH   4  29
TORSDOF 7
ENDMDL
MODEL 3
REMARK VINA RESULT:    -8.115      2.142      2.883
REMARK INTER + INTRA:         -12.557
REMARK INTER:                 -10.203
REMARK INTRA:                  -2.354
REMARK CONF_INDEPENDENT:        2.088
REMARK UNBOUND:                -2.354
REMARK  7 active torsions:
REMARK  status: ('A' for Active; 'I' for Inactive)
REMARK    1  A    between atoms: O_2  and  C_3 
REMARK    2  A    between atoms: C_3  and  C_5 
REMARK    3  A    between atoms: C_8  and  N_9 
REMARK       I    between atoms: N_9  and  C_10 
REMARK    4  A    between atoms: C_10  and  C_12 
REMARK    5  A    between atoms: C_12  and  S_13 
REMARK    6  A    between atoms: S_13  and  C_14 
REMARK    7  A    between atoms: C_17  and  C_18 
ROOT
ATOM      1  C   UNL d   1      30.294 -17.137  -3.101  0.00  0.00     0.172 A 
ATOM      2  N   UNL d   1      29.321 -16.290  -3.324  0.00  0.00    -0.221 NA
ATOM      3  C   UNL d   1      29.167 -15.884  -4.656  0.00  0.00     0.104 A 
ATOM      4  C   UNL d   1      28.217 -15.010  -5.248  0.00  0.00     0.021 A 
ATOM      5  C   UNL d   1      28.530 -14.961  -6.601  0.00  0.00     0.103 A 
ATOM      6  N   UNL d   1      29.608 -15.782  -6.826  0.00  0.00    -0.359 N 
ATOM      7  C   UNL d   1      29.993 -16.342  -5.640  0.00  0.00     0.131 A 
ATOM      8  C   UNL d   1      31.053 -17.247  -5.407  0.00  0.00     0.278 A 
ATOM      9  O   UNL d   1      31.776 -17.662  -6.319  0.00  0.00    -0.265 OA
ATOM     10  N   UNL d   1      31.182 -17.619  -4.072  0.00  0.00    -0.296 N 
ATOM     11  C   UNL d   1      32.277 -18.513  -3.788  0.00  0.00     0.162 C 
ATOM     12  H   UNL d   1      30.059 -15.946  -7.718  0.00  0.00     0.165 HD
ENDROOT
BRANCH   1  13
ATOM     13  S   UNL d   1      30.516 -17.569  -1.399  0.00  0.00    -0.082 SA
BRANCH  13  14
ATOM     14  C   UNL d   1      29.896 -16.244  -0.274  0.00  0.00     0.185 C 
BRANCH  14  15
ATOM     15  C   UNL d   1      28.395 -16.421  -0.018  0.00  0.00     0.231 C 
ATOM     16  N   UNL d   1      27.658 -17.102  -1.008  0.00  0.00    -0.327 N 
ATOM     17  H   UNL d   1      28.119 -17.391  -1.866  0.00  0.00     0.169 HD
ATOM     18  O   UNL d   1      27.913 -16.009   1.035  0.00  0.00    -0.272 OA
BRANCH  16  19
ATOM     19  C   UNL d   1      26.242 -17.320  -0.935  0.00  0.00     0.034 A 
ATOM     20  C   UNL d   1      25.679 -18.193   0.010  0.00  0.00     0.030 A 
ATOM     21  C   UNL d   1      24.292 -18.493  -0.026  0.00  0.00     0.020 A 
ATOM     22  C   UNL d   1      23.443 -17.873  -0.957  0.00  0.00     0.039 A 
ATOM     23  C   UNL d   1      23.988 -16.974  -1.858  0.00  0.00     0.020 A 
ATOM     24  C   UNL d   1      25.357 -16.701  -1.826  0.00  0.00     0.030 A 
BRANCH  22  25
ATOM     25  C   UNL d   1      21.968 -18.036  -0.880  0.00  0.00     0.292 C 
ATOM     26  O   UNL d   1      21.204 -17.082  -0.897  0.00  0.00    -0.259 OA
BRANCH  25  27
ATOM     27  O   UNL d   1      21.610 -19.345  -0.808  0.00  0.00    -0.323 OA
ATOM     28  C   UNL d   1      20.457 -19.595   0.008  0.00  0.00     0.213 C 
ENDBRANCH  25  27
ENDBRANCH  22  25
ENDBRANCH  16  19
ENDBRANCH  14  15
ENDBRANCH  13  14
ENDBRANCH   1  13
BRANCH   4  29
ATOM     29  C   UNL d   1      27.170 -14.179  -4.683  0.00  0.00    -0.022 A 
ATOM     30  C   UNL d   1      27.396 -12.832  -4.360  0.00  0.00     0.012 A 
ATOM     31  C   UNL d   1      26.399 -12.083  -3.726  0.00  0.00     0.001 A 
ATOM     32  C   UNL d   1      25.155 -12.656  -3.467  0.00  0.00     0.000 A 
ATOM     33  C   UNL d   1      24.925 -13.992  -3.786  0.00  0.00     0.001 A 
ATOM     34  C   UNL d   1      25.933 -14.754  -4.380  0.00  0.00     0.012 A 
ENDBRANCH   4  29
TORSDOF 7
ENDMDL
MODEL 4
REMARK VINA RESULT:    -7.774      3.974      7.546
REMARK INTER + INTRA:         -12.457
REMARK INTER:                  -9.862
REMARK INTRA:                  -2.595
REMARK CONF_INDEPENDENT:        2.088
REMARK UNBOUND:                -2.595
REMARK  7 active torsions:
REMARK  status: ('A' for Active; 'I' for Inactive)
REMARK    1  A    between atoms: O_2  and  C_3 
REMARK    2  A    between atoms: C_3  and  C_5 
REMARK    3  A    between atoms: C_8  and  N_9 
REMARK       I    between atoms: N_9  and  C_10 
REMARK    4  A    between atoms: C_10  and  C_12 
REMARK    5  A    between atoms: C_12  and  S_13 
REMARK    6  A    between atoms: S_13  and  C_14 
REMARK    7  A    between atoms: C_17  and  C_18 
ROOT
ATOM      1  C   UNL d   1      27.537 -15.094  -2.829  0.00  0.00     0.172 A 
ATOM      2  N   UNL d   1      26.520 -15.699  -2.270  0.00  0.00    -0.221 NA
ATOM      3  C   UNL d   1      26.848 -16.702  -1.348  0.00  0.00     0.104 A 
ATOM      4  C   UNL d   1      26.011 -17.529  -0.552  0.00  0.00     0.021 A 
ATOM      5  C   UNL d   1      26.863 -18.349   0.178  0.00  0.00     0.103 A 
ATOM      6  N   UNL d   1      28.158 -18.024  -0.144  0.00  0.00    -0.359 N 
ATOM      7  C   UNL d   1      28.145 -17.020  -1.072  0.00  0.00     0.131 A 
ATOM      8  C   UNL d   1      29.249 -16.381  -1.680  0.00  0.00     0.278 A 
ATOM      9  O   UNL d   1      30.415 -16.675  -1.400  0.00  0.00    -0.265 OA
ATOM     10  N   UNL d   1      28.885 -15.399  -2.597  0.00  0.00    -0.296 N 
ATOM     11  C   UNL d   1      29.984 -14.749  -3.266  0.00  0.00     0.162 C 
ATOM     12  H   UNL d   1      28.995 -18.455   0.232  0.00  0.00     0.165 HD
ENDROOT
BRANCH   1  13
ATOM     13  S   UNL d   1      27.095 -13.889  -4.048  0.00  0.00    -0.082 SA
BRANCH  13  14
ATOM     14  C   UNL d   1      26.712 -12.255  -3.282  0.00  0.00     0.185 C 
BRANCH  14  15
ATOM     15  C   UNL d   1      27.141 -12.243  -1.810  0.00  0.00     0.231 C 
ATOM     16  N   UNL d   1      26.584 -13.234  -0.978  0.00  0.00    -0.327 N 
ATOM     17  H   UNL d   1      25.886 -13.869  -1.353  0.00  0.00     0.169 HD
ATOM     18  O   UNL d   1      27.968 -11.415  -1.433  0.00  0.00    -0.272 OA
BRANCH  16  19
ATOM     19  C   UNL d   1      26.857 -13.338   0.427  0.00  0.00     0.034 A 
ATOM     20  C   UNL d   1      26.633 -12.264   1.302  0.00  0.00     0.030 A 
ATOM     21  C   UNL d   1      27.037 -12.348   2.660  0.00  0.00     0.020 A 
ATOM     22  C   UNL d   1      27.604 -13.525   3.175  0.00  0.00     0.039 A 
ATOM     23  C   UNL d   1      27.780 -14.604   2.323  0.00  0.00     0.020 A 
ATOM     24  C   UNL d   1      27.396 -14.504   0.985  0.00  0.00     0.030 A 
BRANCH  22  25
ATOM     25  C   UNL d   1      27.853 -13.687   4.630  0.00  0.00     0.292 C 
ATOM     26  O   UNL d   1      27.566 -12.820   5.442  0.00  0.00    -0.259 OA
BRANCH  25  27
ATOM     27  O   UNL d   1      28.408 -14.895   4.913  0.00  0.00    -0.323 OA
ATOM     28  C   UNL d   1      29.807 -14.839   5.228  0.00  0.00     0.213 C 
ENDBRANCH  25  27
ENDBRANCH  22  25
ENDBRANCH  16  19
ENDBRANCH  14  15
ENDBRANCH  13  14
ENDBRANCH   1  13
BRANCH   4  29
ATOM     29  C   UNL d   1      24.570 -17.691  -0.493  0.00  0.00    -0.022 A 
ATOM     30  C   UNL d   1      23.978 -18.956  -0.365  0.00  0.00     0.012 A 
ATOM     31  C   UNL d   1      22.586 -19.091  -0.410  0.00  0.00     0.001 A 
ATOM     32  C   UNL d   1      21.779 -17.960  -0.521  0.00  0.00     0.000 A 
ATOM     33  C   UNL d   1      22.362 -16.700  -0.648  0.00  0.00     0.001 A 
ATOM     34  C   UNL d   1      23.751 -16.568  -0.646  0.00  0.00     0.012 A 
ENDBRANCH   4  29
TORSDOF 7
ENDMDL
MODEL 5
REMARK VINA RESULT:    -7.082      3.218      4.816
REMARK INTER + INTRA:         -11.323
REMARK INTER:                  -9.170
REMARK INTRA:                  -2.153
REMARK CONF_INDEPENDENT:        2.088
REMARK UNBOUND:                -2.153
REMARK  7 active torsions:
REMARK  status: ('A' for Active; 'I' for Inactive)
REMARK    1  A    between atoms: O_2  and  C_3 
REMARK    2  A    between atoms: C_3  and  C_5 
REMARK    3  A    between atoms: C_8  and  N_9 
REMARK       I    between atoms: N_9  and  C_10 
REMARK    4  A    between atoms: C_10  and  C_12 
REMARK    5  A    between atoms: C_12  and  S_13 
REMARK    6  A    between atoms: S_13  and  C_14 
REMARK    7  A    between atoms: C_17  and  C_18 
ROOT
ATOM      1  C   UNL d   1      31.060 -18.186  -1.466  0.00  0.00     0.172 A 
ATOM      2  N   UNL d   1      30.571 -17.484  -2.455  0.00  0.00    -0.221 NA
ATOM      3  C   UNL d   1      30.592 -18.110  -3.709  0.00  0.00     0.104 A 
ATOM      4  C   UNL d   1      30.129 -17.656  -4.972  0.00  0.00     0.021 A 
ATOM      5  C   UNL d   1      30.405 -18.677  -5.873  0.00  0.00     0.103 A 
ATOM      6  N   UNL d   1      30.991 -19.713  -5.187  0.00  0.00    -0.359 N 
ATOM      7  C   UNL d   1      31.103 -19.364  -3.870  0.00  0.00     0.131 A 
ATOM      8  C   UNL d   1      31.644 -20.126  -2.809  0.00  0.00     0.278 A 
ATOM      9  O   UNL d   1      32.084 -21.267  -2.978  0.00  0.00    -0.265 OA
ATOM     10  N   UNL d   1      31.616 -19.468  -1.583  0.00  0.00    -0.296 N 
ATOM     11  C   UNL d   1      32.194 -20.198  -0.483  0.00  0.00     0.162 C 
ATOM     12  H   UNL d   1      31.302 -20.593  -5.582  0.00  0.00     0.165 HD
ENDROOT
BRANCH   1  13
ATOM     13  S   UNL d   1      31.095 -17.341   0.089  0.00  0.00    -0.082 SA
BRANCH  13  14
ATOM     14  C   UNL d   1      30.297 -15.681  -0.022  0.00  0.00     0.185 C 
BRANCH  14  15
ATOM     15  C   UNL d   1      28.775 -15.811   0.108  0.00  0.00     0.231 C 
ATOM     16  N   UNL d   1      28.156 -16.815  -0.663  0.00  0.00    -0.327 N 
ATOM     17  H   UNL d   1      28.712 -17.364  -1.310  0.00  0.00     0.169 HD
ATOM     18  O   UNL d   1      28.176 -15.080   0.894  0.00  0.00    -0.272 OA
BRANCH  16  19
ATOM     19  C   UNL d   1      26.739 -17.043  -0.678  0.00  0.00     0.034 A 
ATOM     20  C   UNL d   1      26.119 -17.887   0.256  0.00  0.00     0.030 A 
ATOM     21  C   UNL d   1      24.740 -18.200   0.137  0.00  0.00     0.020 A 
ATOM     22  C   UNL d   1      23.952 -17.622  -0.872  0.00  0.00     0.039 A 
ATOM     23  C   UNL d   1      24.552 -16.750  -1.765  0.00  0.00     0.020 A 
ATOM     24  C   UNL d   1      25.913 -16.464  -1.649  0.00  0.00     0.030 A 
BRANCH  22  25
ATOM     25  C   UNL d   1      22.476 -17.795  -0.890  0.00  0.00     0.292 C 
ATOM     26  O   UNL d   1      21.708 -16.874  -0.656  0.00  0.00    -0.259 OA
BRANCH  25  27
ATOM     27  O   UNL d   1      22.124 -19.069  -1.207  0.00  0.00    -0.323 OA
ATOM     28  C   UNL d   1      20.763 -19.398  -0.895  0.00  0.00     0.213 C 
ENDBRANCH  25  27
ENDBRANCH  22  25
ENDBRANCH  16  19
ENDBRANCH  14  15
ENDBRANCH  13  14
ENDBRANCH   1  13
BRANCH   4  29
ATOM     29  C   UNL d   1      29.582 -16.386  -5.413  0.00  0.00    -0.022 A 
ATOM     30  C   UNL d   1      30.106 -15.706  -6.523  0.00  0.00     0.012 A 
ATOM     31  C   UNL d   1      29.624 -14.439  -6.865  0.00  0.00     0.001 A 
ATOM     32  C   UNL d   1      28.579 -13.870  -6.138  0.00  0.00     0.000 A 
ATOM     33  C   UNL d   1      28.054 -14.540  -5.035  0.00  0.00     0.001 A 
ATOM     34  C   UNL d   1      28.563 -15.787  -4.667  0.00  0.00     0.012 A 
ENDBRANCH   4  29
TORSDOF 7
ENDMDL
MODEL 6
REMARK VINA RESULT:    -7.018      3.814      7.703
REMARK INTER + INTRA:         -11.515
REMARK INTER:                  -9.106
REMARK INTRA:                  -2.409
REMARK CONF_INDEPENDENT:        2.088
REMARK UNBOUND:                -2.409
REMARK  7 active torsions:
REMARK  status: ('A' for Active; 'I' for Inactive)
REMARK    1  A    between atoms: O_2  and  C_3 
REMARK    2  A    between atoms: C_3  and  C_5 
REMARK    3  A    between atoms: C_8  and  N_9 
REMARK       I    between atoms: N_9  and  C_10 
REMARK    4  A    between atoms: C_10  and  C_12 
REMARK    5  A    between atoms: C_12  and  S_13 
REMARK    6  A    between atoms: S_13  and  C_14 
REMARK    7  A    between atoms: C_17  and  C_18 
ROOT
ATOM      1  C   UNL d   1      27.391 -15.462  -3.388  0.00  0.00     0.172 A 
ATOM      2  N   UNL d   1      26.404 -15.993  -2.712  0.00  0.00    -0.221 NA
ATOM      3  C   UNL d   1      26.774 -16.712  -1.568  0.00  0.00     0.104 A 
ATOM      4  C   UNL d   1      25.975 -17.386  -0.607  0.00  0.00     0.021 A 
ATOM      5  C   UNL d   1      26.861 -17.934   0.314  0.00  0.00     0.103 A 
ATOM      6  N   UNL d   1      28.138 -17.593  -0.059  0.00  0.00    -0.359 N 
ATOM      7  C   UNL d   1      28.081 -16.849  -1.204  0.00  0.00     0.131 A 
ATOM      8  C   UNL d   1      29.154 -16.290  -1.934  0.00  0.00     0.278 A 
ATOM      9  O   UNL d   1      30.329 -16.413  -1.574  0.00  0.00    -0.265 OA
ATOM     10  N   UNL d   1      28.750 -15.592  -3.069  0.00  0.00    -0.296 N 
ATOM     11  C   UNL d   1      29.819 -15.038  -3.861  0.00  0.00     0.162 C 
ATOM     12  H   UNL d   1      28.991 -17.852   0.423  0.00  0.00     0.165 HD
ENDROOT
BRANCH   1  13
ATOM     13  S   UNL d   1      26.902 -14.628  -4.870  0.00  0.00    -0.082 SA
BRANCH  13  14
ATOM     14  C   UNL d   1      26.340 -12.904  -4.527  0.00  0.00     0.185 C 
BRANCH  14  15
ATOM     15  C   UNL d   1      26.828 -12.449  -3.147  0.00  0.00     0.231 C 
ATOM     16  N   UNL d   1      26.428 -13.229  -2.044  0.00  0.00    -0.327 N 
ATOM     17  H   UNL d   1      25.795 -14.009  -2.185  0.00  0.00     0.169 HD
ATOM     18  O   UNL d   1      27.567 -11.470  -3.065  0.00  0.00    -0.272 OA
BRANCH  16  19
ATOM     19  C   UNL d   1      26.774 -12.918  -0.685  0.00  0.00     0.034 A 
ATOM     20  C   UNL d   1      26.476 -13.796   0.369  0.00  0.00     0.030 A 
ATOM     21  C   UNL d   1      26.707 -13.406   1.714  0.00  0.00     0.020 A 
ATOM     22  C   UNL d   1      27.299 -12.169   2.017  0.00  0.00     0.039 A 
ATOM     23  C   UNL d   1      27.639 -11.323   0.975  0.00  0.00     0.020 A 
ATOM     24  C   UNL d   1      27.390 -11.709  -0.344  0.00  0.00     0.030 A 
BRANCH  22  25
ATOM     25  C   UNL d   1      27.716 -11.835   3.403  0.00  0.00     0.292 C 
ATOM     26  O   UNL d   1      27.888 -12.692   4.258  0.00  0.00    -0.259 OA
BRANCH  25  27
ATOM     27  O   UNL d   1      27.886 -10.497   3.567  0.00  0.00    -0.323 OA
ATOM     28  C   UNL d   1      26.661  -9.752   3.627  0.00  0.00     0.213 C 
ENDBRANCH  25  27
ENDBRANCH  22  25
ENDBRANCH  16  19
ENDBRANCH  14  15
ENDBRANCH  13  14
ENDBRANCH   1  13
BRANCH   4  29
ATOM     29  C   UNL d   1      24.549 -17.644  -0.530  0.00  0.00    -0.022 A 
ATOM     30  C   UNL d   1      24.039 -18.951  -0.493  0.00  0.00     0.012 A 
ATOM     31  C   UNL d   1      22.658 -19.170  -0.519  0.00  0.00     0.001 A 
ATOM     32  C   UNL d   1      21.780 -18.087  -0.521  0.00  0.00     0.000 A 
ATOM     33  C   UNL d   1      22.280 -16.787  -0.557  0.00  0.00     0.001 A 
ATOM     34  C   UNL d   1      23.659 -16.567  -0.573  0.00  0.00     0.012 A 
ENDBRANCH   4  29
TORSDOF 7
ENDMDL
MODEL 7
REMARK VINA RESULT:    -6.934      3.932      7.664
REMARK INTER + INTRA:         -12.084
REMARK INTER:                  -9.022
REMARK INTRA:                  -3.062
REMARK CONF_INDEPENDENT:        2.088
REMARK UNBOUND:                -3.062
REMARK  7 active torsions:
REMARK  status: ('A' for Active; 'I' for Inactive)
REMARK    1  A    between atoms: O_2  and  C_3 
REMARK    2  A    between atoms: C_3  and  C_5 
REMARK    3  A    between atoms: C_8  and  N_9 
REMARK       I    between atoms: N_9  and  C_10 
REMARK    4  A    between atoms: C_10  and  C_12 
REMARK    5  A    between atoms: C_12  and  S_13 
REMARK    6  A    between atoms: S_13  and  C_14 
REMARK    7  A    between atoms: C_17  and  C_18 
ROOT
ATOM      1  C   UNL d   1      28.287 -13.846   1.891  0.00  0.00     0.172 A 
ATOM      2  N   UNL d   1      27.376 -14.637   1.386  0.00  0.00    -0.221 NA
ATOM      3  C   UNL d   1      27.862 -15.758   0.700  0.00  0.00     0.104 A 
ATOM      4  C   UNL d   1      27.167 -16.818   0.060  0.00  0.00     0.021 A 
ATOM      5  C   UNL d   1      28.144 -17.657  -0.464  0.00  0.00     0.103 A 
ATOM      6  N   UNL d   1      29.375 -17.142  -0.141  0.00  0.00    -0.359 N 
ATOM      7  C   UNL d   1      29.200 -15.987   0.568  0.00  0.00     0.131 A 
ATOM      8  C   UNL d   1      30.192 -15.131   1.099  0.00  0.00     0.278 A 
ATOM      9  O   UNL d   1      31.398 -15.370   0.982  0.00  0.00    -0.265 OA
ATOM     10  N   UNL d   1      29.671 -14.024   1.764  0.00  0.00    -0.296 N 
ATOM     11  C   UNL d   1      30.653 -13.108   2.288  0.00  0.00     0.162 C 
ATOM     12  H   UNL d   1      30.274 -17.540  -0.389  0.00  0.00     0.165 HD
ENDROOT
BRANCH   1  13
ATOM     13  S   UNL d   1      27.646 -12.398   2.681  0.00  0.00    -0.082 SA
BRANCH  13  14
ATOM     14  C   UNL d   1      27.402 -11.019   1.480  0.00  0.00     0.185 C 
BRANCH  14  15
ATOM     15  C   UNL d   1      27.448 -11.549   0.042  0.00  0.00     0.231 C 
ATOM     16  N   UNL d   1      26.658 -12.681  -0.242  0.00  0.00    -0.327 N 
ATOM     17  H   UNL d   1      26.147 -13.136   0.507  0.00  0.00     0.169 HD
ATOM     18  O   UNL d   1      28.124 -10.954  -0.795  0.00  0.00    -0.272 OA
BRANCH  16  19
ATOM     19  C   UNL d   1      26.617 -13.317  -1.528  0.00  0.00     0.034 A 
ATOM     20  C   UNL d   1      25.539 -13.131  -2.407  0.00  0.00     0.030 A 
ATOM     21  C   UNL d   1      25.460 -13.875  -3.613  0.00  0.00     0.020 A 
ATOM     22  C   UNL d   1      26.485 -14.759  -3.987  0.00  0.00     0.039 A 
ATOM     23  C   UNL d   1      27.574 -14.907  -3.143  0.00  0.00     0.020 A 
ATOM     24  C   UNL d   1      27.632 -14.184  -1.950  0.00  0.00     0.030 A 
BRANCH  22  25
ATOM     25  C   UNL d   1      26.501 -15.396  -5.329  0.00  0.00     0.292 C 
ATOM     26  O   UNL d   1      25.542 -16.012  -5.771  0.00  0.00    -0.259 OA
BRANCH  25  27
ATOM     27  O   UNL d   1      27.681 -15.187  -5.969  0.00  0.00    -0.323 OA
ATOM     28  C   UNL d   1      27.987 -13.804  -6.202  0.00  0.00     0.213 C 
ENDBRANCH  25  27
ENDBRANCH  22  25
ENDBRANCH  16  19
ENDBRANCH  14  15
ENDBRANCH  13  14
ENDBRANCH   1  13
BRANCH   4  29
ATOM     29  C   UNL d   1      25.757 -17.052  -0.188  0.00  0.00    -0.022 A 
ATOM     30  C   UNL d   1      24.970 -16.125  -0.889  0.00  0.00     0.012 A 
ATOM     31  C   UNL d   1      23.594 -16.331  -1.027  0.00  0.00     0.001 A 
ATOM     32  C   UNL d   1      23.007 -17.489  -0.521  0.00  0.00     0.000 A 
ATOM     33  C   UNL d   1      23.783 -18.414   0.175  0.00  0.00     0.001 A 
ATOM     34  C   UNL d   1      25.150 -18.190   0.351  0.00  0.00     0.012 A 
ENDBRANCH   4  29
TORSDOF 7
ENDMDL
MODEL 8
REMARK VINA RESULT:    -6.746      3.613      6.672
REMARK INTER + INTRA:         -12.010
REMARK INTER:                  -8.834
REMARK INTRA:                  -3.175
REMARK CONF_INDEPENDENT:        2.088
REMARK UNBOUND:                -3.175
REMARK  7 active torsions:
REMARK  status: ('A' for Active; 'I' for Inactive)
REMARK    1  A    between atoms: O_2  and  C_3 
REMARK    2  A    between atoms: C_3  and  C_5 
REMARK    3  A    between atoms: C_8  and  N_9 
REMARK       I    between atoms: N_9  and  C_10 
REMARK    4  A    between atoms: C_10  and  C_12 
REMARK    5  A    between atoms: C_12  and  S_13 
REMARK    6  A    between atoms: S_13  and  C_14 
REMARK    7  A    between atoms: C_17  and  C_18 
ROOT
ATOM      1  C   UNL d   1      28.300 -15.152  -5.471  0.00  0.00     0.172 A 
ATOM      2  N   UNL d   1      27.562 -15.614  -4.494  0.00  0.00    -0.221 NA
ATOM      3  C   UNL d   1      26.495 -14.794  -4.103  0.00  0.00     0.104 A 
ATOM      4  C   UNL d   1      25.498 -14.992  -3.111  0.00  0.00     0.021 A 
ATOM      5  C   UNL d   1      24.693 -13.860  -3.144  0.00  0.00     0.103 A 
ATOM      6  N   UNL d   1      25.166 -13.021  -4.123  0.00  0.00    -0.359 N 
ATOM      7  C   UNL d   1      26.262 -13.593  -4.705  0.00  0.00     0.131 A 
ATOM      8  C   UNL d   1      27.060 -13.080  -5.753  0.00  0.00     0.278 A 
ATOM      9  O   UNL d   1      26.817 -11.997  -6.295  0.00  0.00    -0.265 OA
ATOM     10  N   UNL d   1      28.116 -13.917  -6.107  0.00  0.00    -0.296 N 
ATOM     11  C   UNL d   1      28.975 -13.410  -7.148  0.00  0.00     0.162 C 
ATOM     12  H   UNL d   1      24.779 -12.118  -4.377  0.00  0.00     0.165 HD
ENDROOT
BRANCH   1  13
ATOM     13  S   UNL d   1      29.686 -16.169  -5.889  0.00  0.00    -0.082 SA
BRANCH  13  14
ATOM     14  C   UNL d   1      31.179 -15.724  -4.900  0.00  0.00     0.185 C 
BRANCH  14  15
ATOM     15  C   UNL d   1      30.767 -15.043  -3.590  0.00  0.00     0.231 C 
ATOM     16  N   UNL d   1      29.693 -15.622  -2.885  0.00  0.00    -0.327 N 
ATOM     17  H   UNL d   1      29.197 -16.411  -3.286  0.00  0.00     0.169 HD
ATOM     18  O   UNL d   1      31.403 -14.068  -3.195  0.00  0.00    -0.272 OA
BRANCH  16  19
ATOM     19  C   UNL d   1      29.166 -15.086  -1.662  0.00  0.00     0.034 A 
ATOM     20  C   UNL d   1      29.267 -15.785  -0.448  0.00  0.00     0.030 A 
ATOM     21  C   UNL d   1      28.622 -15.296   0.718  0.00  0.00     0.020 A 
ATOM     22  C   UNL d   1      27.929 -14.074   0.702  0.00  0.00     0.039 A 
ATOM     23  C   UNL d   1      27.870 -13.360  -0.483  0.00  0.00     0.020 A 
ATOM     24  C   UNL d   1      28.492 -13.859  -1.628  0.00  0.00     0.030 A 
BRANCH  22  25
ATOM     25  C   UNL d   1      27.415 -13.466   1.956  0.00  0.00     0.292 C 
ATOM     26  O   UNL d   1      26.275 -13.034   2.053  0.00  0.00    -0.259 OA
BRANCH  25  27
ATOM     27  O   UNL d   1      28.353 -13.475   2.940  0.00  0.00    -0.323 OA
ATOM     28  C   UNL d   1      28.120 -14.452   3.965  0.00  0.00     0.213 C 
ENDBRANCH  25  27
ENDBRANCH  22  25
ENDBRANCH  16  19
ENDBRANCH  14  15
ENDBRANCH  13  14
ENDBRANCH   1  13
BRANCH   4  29
ATOM     29  C   UNL d   1      25.302 -16.031  -2.117  0.00  0.00    -0.022 A 
ATOM     30  C   UNL d   1      24.030 -16.325  -1.603  0.00  0.00     0.012 A 
ATOM     31  C   UNL d   1      23.885 -17.263  -0.576  0.00  0.00     0.001 A 
ATOM     32  C   UNL d   1      24.998 -17.953  -0.099  0.00  0.00     0.000 A 
ATOM     33  C   UNL d   1      26.264 -17.666  -0.607  0.00  0.00     0.001 A 
ATOM     34  C   UNL d   1      26.416 -16.701  -1.603  0.00  0.00     0.012 A 
ENDBRANCH   4  29
TORSDOF 7
ENDMDL
