MODEL 1
REMARK VINA RESULT:    -7.992      0.000      0.000
REMARK INTER + INTRA:         -16.606
REMARK INTER:                 -11.572
REMARK INTRA:                  -5.034
REMARK CONF_INDEPENDENT:        3.580
REMARK UNBOUND:                -5.034
REMARK  12 active torsions:
REMARK  status: ('A' for Active; 'I' for Inactive)
REMARK    1  A    between atoms: C_2  and  C_3 
REMARK    2  A    between atoms: C_3  and  C_4 
REMARK    3  A    between atoms: C_4  and  N_5 
REMARK       I    between atoms: N_5  and  C_6 
REMARK    4  A    between atoms: C_6  and  C_8 
REMARK    5  A    between atoms: C_8  and  C_9 
REMARK    6  A    between atoms: C_8  and  N_22 
REMARK    7  A    between atoms: C_9  and  C_10 
REMARK    8  A    between atoms: C_9  and  C_16 
REMARK       I    between atoms: N_22  and  C_23 
REMARK    9  A    between atoms: N_22  and  C_33 
REMARK   10  A    between atoms: C_23  and  C_25 
REMARK   11  A    between atoms: C_29  and  O_30 
REMARK   12  A    between atoms: C_31  and  O_32 
ROOT
ATOM      1  C   UNL d   1      28.719 -15.991  -1.172  0.00  0.00     0.193 C 
ENDROOT
BRANCH   1   2
ATOM      2  C   UNL d   1      29.673 -14.949  -0.484  0.00  0.00     0.241 C 
ATOM      3  N   UNL d   1      30.447 -15.359   0.601  0.00  0.00    -0.359 N 
ATOM      4  H   UNL d   1      29.998 -15.992   1.258  0.00  0.00     0.162 HD
ATOM      5  O   UNL d   1      29.679 -13.750  -0.839  0.00  0.00    -0.271 OA
BRANCH   3   6
ATOM      6  C   UNL d   1      31.430 -14.453   1.169  0.00  0.00     0.122 C 
BRANCH   6   7
ATOM      7  C   UNL d   1      31.910 -14.783   2.563  0.00  0.00     0.019 C 
BRANCH   7   8
ATOM      8  C   UNL d   1      30.828 -14.456   3.592  0.00  0.00    -0.003 C 
ATOM      9  C   UNL d   1      30.793 -12.959   3.826  0.00  0.00     0.005 C 
ENDBRANCH   7   8
ENDBRANCH   6   7
ENDBRANCH   3   6
ENDBRANCH   1   2
BRANCH   1  10
ATOM     10  C   UNL d   1      27.283 -15.345  -0.708  0.00  0.00     0.084 C 
BRANCH  10  11
ATOM     11  C   UNL d   1      26.036 -16.211  -0.459  0.00  0.00    -0.047 C 
ATOM     12  C   UNL d   1      26.178 -17.467   0.179  0.00  0.00     0.008 C 
ATOM     13  C   UNL d   1      25.185 -18.427   0.194  0.00  0.00     0.001 C 
ATOM     14  C   UNL d   1      24.050 -18.209  -0.563  0.00  0.00     0.000 C 
ATOM     15  C   UNL d   1      23.887 -17.001  -1.256  0.00  0.00     0.001 C 
ATOM     16  C   UNL d   1      24.819 -15.949  -1.125  0.00  0.00     0.008 C 
ENDBRANCH  10  11
BRANCH  10  17
ATOM     17  C   UNL d   1      27.466 -14.556   0.606  0.00  0.00    -0.047 A 
ATOM     18  C   UNL d   1      27.780 -15.197   1.804  0.00  0.00     0.008 A 
ATOM     19  C   UNL d   1      27.772 -14.455   2.986  0.00  0.00     0.001 A 
ATOM     20  C   UNL d   1      27.557 -13.072   2.979  0.00  0.00     0.000 A 
ATOM     21  C   UNL d   1      27.283 -12.423   1.800  0.00  0.00     0.001 A 
ATOM     22  C   UNL d   1      27.190 -13.174   0.656  0.00  0.00     0.008 A 
ENDBRANCH  10  17
ENDBRANCH   1  10
BRANCH   1  23
ATOM     23  N   UNL d   1      29.038 -16.180  -2.733  0.00  0.00    -0.325 N 
ATOM     24  C   UNL d   1      28.315 -15.560  -3.792  0.00  0.00     0.258 C 
ATOM     25  O   UNL d   1      28.428 -15.876  -4.979  0.00  0.00    -0.267 OA
BRANCH  24  26
ATOM     26  C   UNL d   1      27.304 -14.515  -3.646  0.00  0.00     0.068 A 
ATOM     27  C   UNL d   1      27.761 -13.294  -3.114  0.00  0.00     0.020 A 
ATOM     28  C   UNL d   1      26.893 -12.220  -2.961  0.00  0.00     0.004 A 
ATOM     29  C   UNL d   1      25.580 -12.335  -3.409  0.00  0.00     0.039 A 
ATOM     30  C   UNL d   1      25.117 -13.563  -3.883  0.00  0.00     0.099 A 
ATOM     31  C   UNL d   1      25.967 -14.667  -3.986  0.00  0.00     0.114 A 
BRANCH  30  32
ATOM     32  O   UNL d   1      23.831 -13.699  -4.338  0.00  0.00    -0.358 OA
ATOM     33  H   UNL d   1      23.824 -14.393  -5.020  0.00  0.00     0.217 HD
ENDBRANCH  30  32
BRANCH  31  34
ATOM     34  O   UNL d   1      25.516 -15.810  -4.595  0.00  0.00    -0.357 OA
ATOM     35  H   UNL d   1      24.791 -15.499  -5.174  0.00  0.00     0.217 HD
ENDBRANCH  31  34
ENDBRANCH  24  26
BRANCH  23  36
ATOM     36  C   UNL d   1      30.298 -16.900  -3.202  0.00  0.00     0.025 C 
ATOM     37  C   UNL d   1      31.414 -15.905  -3.610  0.00  0.00     0.037 C 
ATOM     38  C   UNL d   1      30.783 -17.774  -2.100  0.00  0.00     0.037 C 
ATOM     39  C   UNL d   1      30.206 -18.012  -4.258  0.00  0.00     0.037 C 
ENDBRANCH  23  36
ENDBRANCH   1  23
TORSDOF 12
ENDMDL
MODEL 2
REMARK VINA RESULT:    -7.973      2.257      5.132
REMARK INTER + INTRA:         -17.078
REMARK INTER:                 -11.552
REMARK INTRA:                  -5.526
REMARK CONF_INDEPENDENT:        3.580
REMARK UNBOUND:                -5.526
REMARK  12 active torsions:
REMARK  status: ('A' for Active; 'I' for Inactive)
REMARK    1  A    between atoms: C_2  and  C_3 
REMARK    2  A    between atoms: C_3  and  C_4 
REMARK    3  A    between atoms: C_4  and  N_5 
REMARK       I    between atoms: N_5  and  C_6 
REMARK    4  A    between atoms: C_6  and  C_8 
REMARK    5  A    between atoms: C_8  and  C_9 
REMARK    6  A    between atoms: C_8  and  N_22 
REMARK    7  A    between atoms: C_9  and  C_10 
REMARK    8  A    between atoms: C_9  and  C_16 
REMARK       I    between atoms: N_22  and  C_23 
REMARK    9  A    between atoms: N_22  and  C_33 
REMARK   10  A    between atoms: C_23  and  C_25 
REMARK   11  A    between atoms: C_29  and  O_30 
REMARK   12  A    between atoms: C_31  and  O_32 
ROOT
ATOM      1  C   UNL d   1      28.132 -15.093  -0.433  0.00  0.00     0.193 C 
ENDROOT
BRANCH   1   2
ATOM      2  C   UNL d   1      27.994 -14.567   1.043  0.00  0.00     0.241 C 
ATOM      3  N   UNL d   1      29.078 -14.704   1.909  0.00  0.00    -0.359 N 
ATOM      4  H   UNL d   1      29.604 -15.572   1.835  0.00  0.00     0.162 HD
ATOM      5  O   UNL d   1      26.908 -14.115   1.465  0.00  0.00    -0.271 OA
BRANCH   3   6
ATOM      6  C   UNL d   1      29.021 -14.111   3.234  0.00  0.00     0.122 C 
BRANCH   6   7
ATOM      7  C   UNL d   1      28.155 -14.826   4.244  0.00  0.00     0.019 C 
BRANCH   7   8
ATOM      8  C   UNL d   1      28.524 -14.393   5.663  0.00  0.00    -0.003 C 
ATOM      9  C   UNL d   1      27.977 -13.004   5.923  0.00  0.00     0.005 C 
ENDBRANCH   7   8
ENDBRANCH   6   7
ENDBRANCH   3   6
ENDBRANCH   1   2
BRANCH   1  10
ATOM     10  C   UNL d   1      26.560 -14.953  -0.885  0.00  0.00     0.084 C 
BRANCH  10  11
ATOM     11  C   UNL d   1      26.146 -14.699  -2.345  0.00  0.00    -0.047 C 
ATOM     12  C   UNL d   1      26.824 -15.376  -3.388  0.00  0.00     0.008 C 
ATOM     13  C   UNL d   1      26.726 -15.015  -4.717  0.00  0.00     0.001 C 
ATOM     14  C   UNL d   1      26.044 -13.856  -5.033  0.00  0.00     0.000 C 
ATOM     15  C   UNL d   1      25.400 -13.122  -4.027  0.00  0.00     0.001 C 
ATOM     16  C   UNL d   1      25.349 -13.588  -2.697  0.00  0.00     0.008 C 
ENDBRANCH  10  11
BRANCH  10  17
ATOM     17  C   UNL d   1      25.787 -16.228  -0.487  0.00  0.00    -0.047 A 
ATOM     18  C   UNL d   1      26.438 -17.341   0.043  0.00  0.00     0.008 A 
ATOM     19  C   UNL d   1      25.713 -18.518   0.230  0.00  0.00     0.001 A 
ATOM     20  C   UNL d   1      24.334 -18.574  -0.006  0.00  0.00     0.000 A 
ATOM     21  C   UNL d   1      23.674 -17.473  -0.494  0.00  0.00     0.001 A 
ATOM     22  C   UNL d   1      24.411 -16.349  -0.774  0.00  0.00     0.008 A 
ENDBRANCH  10  17
ENDBRANCH   1  10
BRANCH   1  23
ATOM     23  N   UNL d   1      29.269 -14.317  -1.258  0.00  0.00    -0.325 N 
ATOM     24  C   UNL d   1      30.390 -14.939  -1.878  0.00  0.00     0.258 C 
ATOM     25  O   UNL d   1      31.361 -14.320  -2.320  0.00  0.00    -0.267 OA
BRANCH  24  26
ATOM     26  C   UNL d   1      30.598 -16.376  -2.038  0.00  0.00     0.068 A 
ATOM     27  C   UNL d   1      30.791 -16.821  -3.361  0.00  0.00     0.020 A 
ATOM     28  C   UNL d   1      31.030 -18.164  -3.628  0.00  0.00     0.004 A 
ATOM     29  C   UNL d   1      31.152 -19.058  -2.568  0.00  0.00     0.039 A 
ATOM     30  C   UNL d   1      30.903 -18.624  -1.265  0.00  0.00     0.099 A 
ATOM     31  C   UNL d   1      30.604 -17.287  -0.991  0.00  0.00     0.114 A 
BRANCH  30  32
ATOM     32  O   UNL d   1      31.025 -19.484  -0.205  0.00  0.00    -0.358 OA
ATOM     33  H   UNL d   1      30.780 -19.003   0.605  0.00  0.00     0.217 HD
ENDBRANCH  30  32
BRANCH  31  34
ATOM     34  O   UNL d   1      30.516 -16.870   0.312  0.00  0.00    -0.357 OA
ATOM     35  H   UNL d   1      30.345 -17.693   0.812  0.00  0.00     0.217 HD
ENDBRANCH  31  34
ENDBRANCH  24  26
BRANCH  23  36
ATOM     36  C   UNL d   1      29.122 -12.842  -1.614  0.00  0.00     0.025 C 
ATOM     37  C   UNL d   1      30.336 -12.008  -1.133  0.00  0.00     0.037 C 
ATOM     38  C   UNL d   1      28.984 -12.722  -3.091  0.00  0.00     0.037 C 
ATOM     39  C   UNL d   1      27.827 -12.089  -1.272  0.00  0.00     0.037 C 
ENDBRANCH  23  36
ENDBRANCH   1  23
TORSDOF 12
ENDMDL
MODEL 3
REMARK VINA RESULT:    -7.288      1.983      4.202
REMARK INTER + INTRA:         -16.265
REMARK INTER:                 -10.868
REMARK INTRA:                  -5.398
REMARK CONF_INDEPENDENT:        3.580
REMARK UNBOUND:                -5.398
REMARK  12 active torsions:
REMARK  status: ('A' for Active; 'I' for Inactive)
REMARK    1  A    between atoms: C_2  and  C_3 
REMARK    2  A    between atoms: C_3  and  C_4 
REMARK    3  A    between atoms: C_4  and  N_5 
REMARK       I    between atoms: N_5  and  C_6 
REMARK    4  A    between atoms: C_6  and  C_8 
REMARK    5  A    between atoms: C_8  and  C_9 
REMARK    6  A    between atoms: C_8  and  N_22 
REMARK    7  A    between atoms: C_9  and  C_10 
REMARK    8  A    between atoms: C_9  and  C_16 
REMARK       I    between atoms: N_22  and  C_23 
REMARK    9  A    between atoms: N_22  and  C_33 
REMARK   10  A    between atoms: C_23  and  C_25 
REMARK   11  A    between atoms: C_29  and  O_30 
REMARK   12  A    between atoms: C_31  and  O_32 
ROOT
ATOM      1  C   UNL d   1      27.224 -15.569  -0.068  0.00  0.00     0.193 C 
ENDROOT
BRANCH   1   2
ATOM      2  C   UNL d   1      27.039 -14.532   1.099  0.00  0.00     0.241 C 
ATOM      3  N   UNL d   1      27.864 -14.626   2.219  0.00  0.00    -0.359 N 
ATOM      4  H   UNL d   1      28.076 -15.567   2.542  0.00  0.00     0.162 HD
ATOM      5  O   UNL d   1      26.113 -13.692   1.072  0.00  0.00    -0.271 OA
BRANCH   3   6
ATOM      6  C   UNL d   1      27.799 -13.604   3.249  0.00  0.00     0.122 C 
BRANCH   6   7
ATOM      7  C   UNL d   1      27.400 -14.075   4.628  0.00  0.00     0.019 C 
BRANCH   7   8
ATOM      8  C   UNL d   1      28.389 -15.121   5.141  0.00  0.00    -0.003 C 
ATOM      9  C   UNL d   1      29.518 -14.428   5.876  0.00  0.00     0.005 C 
ENDBRANCH   7   8
ENDBRANCH   6   7
ENDBRANCH   3   6
ENDBRANCH   1   2
BRANCH   1  10
ATOM     10  C   UNL d   1      25.802 -15.311  -0.847  0.00  0.00     0.084 C 
BRANCH  10  11
ATOM     11  C   UNL d   1      25.726 -15.113  -2.371  0.00  0.00    -0.047 C 
ATOM     12  C   UNL d   1      26.789 -15.573  -3.185  0.00  0.00     0.008 C 
ATOM     13  C   UNL d   1      26.948 -15.201  -4.506  0.00  0.00     0.001 C 
ATOM     14  C   UNL d   1      26.112 -14.229  -5.019  0.00  0.00     0.000 C 
ATOM     15  C   UNL d   1      25.076 -13.704  -4.233  0.00  0.00     0.001 C 
ATOM     16  C   UNL d   1      24.802 -14.214  -2.947  0.00  0.00     0.008 C 
ENDBRANCH  10  11
BRANCH  10  17
ATOM     17  C   UNL d   1      24.834 -16.479  -0.566  0.00  0.00    -0.047 A 
ATOM     18  C   UNL d   1      25.301 -17.748  -0.226  0.00  0.00     0.008 A 
ATOM     19  C   UNL d   1      24.388 -18.801  -0.144  0.00  0.00     0.001 A 
ATOM     20  C   UNL d   1      23.012 -18.589  -0.295  0.00  0.00     0.000 A 
ATOM     21  C   UNL d   1      22.537 -17.336  -0.593  0.00  0.00     0.001 A 
ATOM     22  C   UNL d   1      23.448 -16.326  -0.775  0.00  0.00     0.008 A 
ENDBRANCH  10  17
ENDBRANCH   1  10
BRANCH   1  23
ATOM     23  N   UNL d   1      28.609 -15.368  -0.854  0.00  0.00    -0.325 N 
ATOM     24  C   UNL d   1      29.135 -14.110  -1.266  0.00  0.00     0.258 C 
ATOM     25  O   UNL d   1      30.079 -13.983  -2.049  0.00  0.00    -0.267 OA
BRANCH  24  26
ATOM     26  C   UNL d   1      28.620 -12.797  -0.887  0.00  0.00     0.068 A 
ATOM     27  C   UNL d   1      29.059 -12.306   0.359  0.00  0.00     0.020 A 
ATOM     28  C   UNL d   1      28.659 -11.053   0.807  0.00  0.00     0.004 A 
ATOM     29  C   UNL d   1      27.877 -10.251  -0.020  0.00  0.00     0.039 A 
ATOM     30  C   UNL d   1      27.398 -10.763  -1.227  0.00  0.00     0.099 A 
ATOM     31  C   UNL d   1      27.747 -12.044  -1.660  0.00  0.00     0.114 A 
BRANCH  30  32
ATOM     32  O   UNL d   1      26.634  -9.990  -2.062  0.00  0.00    -0.358 OA
ATOM     33  H   UNL d   1      26.660 -10.388  -2.950  0.00  0.00     0.217 HD
ENDBRANCH  30  32
BRANCH  31  34
ATOM     34  O   UNL d   1      27.381 -12.454  -2.916  0.00  0.00    -0.357 OA
ATOM     35  H   UNL d   1      26.633 -11.867  -3.148  0.00  0.00     0.217 HD
ENDBRANCH  31  34
ENDBRANCH  24  26
BRANCH  23  36
ATOM     36  C   UNL d   1      29.584 -16.524  -1.048  0.00  0.00     0.025 C 
ATOM     37  C   UNL d   1      30.931 -16.270  -0.325  0.00  0.00     0.037 C 
ATOM     38  C   UNL d   1      28.959 -17.767  -0.520  0.00  0.00     0.037 C 
ATOM     39  C   UNL d   1      29.865 -17.072  -2.455  0.00  0.00     0.037 C 
ENDBRANCH  23  36
ENDBRANCH   1  23
TORSDOF 12
ENDMDL
MODEL 4
REMARK VINA RESULT:    -7.237      2.040      6.062
REMARK INTER + INTRA:         -15.342
REMARK INTER:                 -10.816
REMARK INTRA:                  -4.526
REMARK CONF_INDEPENDENT:        3.580
REMARK UNBOUND:                -4.526
REMARK  12 active torsions:
REMARK  status: ('A' for Active; 'I' for Inactive)
REMARK    1  A    between atoms: C_2  and  C_3 
REMARK    2  A    between atoms: C_3  and  C_4 
REMARK    3  A    between atoms: C_4  and  N_5 
REMARK       I    between atoms: N_5  and  C_6 
REMARK    4  A    between atoms: C_6  and  C_8 
REMARK    5  A    between atoms: C_8  and  C_9 
REMARK    6  A    between atoms: C_8  and  N_22 
REMARK    7  A    between atoms: C_9  and  C_10 
REMARK    8  A    between atoms: C_9  and  C_16 
REMARK       I    between atoms: N_22  and  C_23 
REMARK    9  A    between atoms: N_22  and  C_33 
REMARK   10  A    between atoms: C_23  and  C_25 
REMARK   11  A    between atoms: C_29  and  O_30 
REMARK   12  A    between atoms: C_31  and  O_32 
ROOT
ATOM      1  C   UNL d   1      26.469 -14.774  -2.628  0.00  0.00     0.193 C 
ENDROOT
BRANCH   1   2
ATOM      2  C   UNL d   1      25.006 -15.270  -2.335  0.00  0.00     0.241 C 
ATOM      3  N   UNL d   1      24.827 -16.480  -1.665  0.00  0.00    -0.359 N 
ATOM      4  H   UNL d   1      25.467 -17.230  -1.916  0.00  0.00     0.162 HD
ATOM      5  O   UNL d   1      24.016 -14.643  -2.770  0.00  0.00    -0.271 OA
BRANCH   3   6
ATOM      6  C   UNL d   1      23.492 -16.894  -1.270  0.00  0.00     0.122 C 
BRANCH   6   7
ATOM      7  C   UNL d   1      23.414 -17.878  -0.127  0.00  0.00     0.019 C 
BRANCH   7   8
ATOM      8  C   UNL d   1      22.653 -19.133  -0.555  0.00  0.00    -0.003 C 
ATOM      9  C   UNL d   1      21.221 -18.763  -0.886  0.00  0.00     0.005 C 
ENDBRANCH   7   8
ENDBRANCH   6   7
ENDBRANCH   3   6
ENDBRANCH   1   2
BRANCH   1  10
ATOM     10  C   UNL d   1      26.339 -13.261  -2.005  0.00  0.00     0.084 C 
BRANCH  10  11
ATOM     11  C   UNL d   1      27.384 -12.680  -1.036  0.00  0.00    -0.047 C 
ATOM     12  C   UNL d   1      28.759 -12.763  -1.366  0.00  0.00     0.008 C 
ATOM     13  C   UNL d   1      29.772 -12.533  -0.456  0.00  0.00     0.001 C 
ATOM     14  C   UNL d   1      29.433 -12.347   0.871  0.00  0.00     0.000 C 
ATOM     15  C   UNL d   1      28.085 -12.310   1.254  0.00  0.00     0.001 C 
ATOM     16  C   UNL d   1      27.049 -12.364   0.298  0.00  0.00     0.008 C 
ENDBRANCH  10  11
BRANCH  10  17
ATOM     17  C   UNL d   1      26.267 -12.229  -3.151  0.00  0.00    -0.047 A 
ATOM     18  C   UNL d   1      26.278 -10.858  -2.899  0.00  0.00     0.008 A 
ATOM     19  C   UNL d   1      26.047  -9.979  -3.958  0.00  0.00     0.001 A 
ATOM     20  C   UNL d   1      25.908 -10.438  -5.273  0.00  0.00     0.000 A 
ATOM     21  C   UNL d   1      25.933 -11.785  -5.539  0.00  0.00     0.001 A 
ATOM     22  C   UNL d   1      26.057 -12.650  -4.480  0.00  0.00     0.008 A 
ENDBRANCH  10  17
ENDBRANCH   1  10
BRANCH   1  23
ATOM     23  N   UNL d   1      27.584 -15.777  -2.054  0.00  0.00    -0.325 N 
ATOM     24  C   UNL d   1      28.773 -16.150  -2.743  0.00  0.00     0.258 C 
ATOM     25  O   UNL d   1      29.508 -17.076  -2.393  0.00  0.00    -0.267 OA
BRANCH  24  26
ATOM     26  C   UNL d   1      29.275 -15.554  -3.979  0.00  0.00     0.068 A 
ATOM     27  C   UNL d   1      30.659 -15.289  -4.010  0.00  0.00     0.020 A 
ATOM     28  C   UNL d   1      31.250 -14.752  -5.147  0.00  0.00     0.004 A 
ATOM     29  C   UNL d   1      30.477 -14.546  -6.286  0.00  0.00     0.039 A 
ATOM     30  C   UNL d   1      29.098 -14.756  -6.232  0.00  0.00     0.099 A 
ATOM     31  C   UNL d   1      28.483 -15.240  -5.075  0.00  0.00     0.114 A 
BRANCH  30  32
ATOM     32  O   UNL d   1      28.317 -14.567  -7.342  0.00  0.00    -0.358 OA
ATOM     33  H   UNL d   1      28.902 -14.509  -8.117  0.00  0.00     0.217 HD
ENDBRANCH  30  32
BRANCH  31  34
ATOM     34  O   UNL d   1      27.155 -15.575  -5.108  0.00  0.00    -0.357 OA
ATOM     35  H   UNL d   1      26.801 -15.064  -5.864  0.00  0.00     0.217 HD
ENDBRANCH  31  34
ENDBRANCH  24  26
BRANCH  23  36
ATOM     36  C   UNL d   1      27.545 -16.261  -0.609  0.00  0.00     0.025 C 
ATOM     37  C   UNL d   1      27.304 -17.789  -0.518  0.00  0.00     0.037 C 
ATOM     38  C   UNL d   1      28.839 -15.917   0.042  0.00  0.00     0.037 C 
ATOM     39  C   UNL d   1      26.655 -15.550   0.422  0.00  0.00     0.037 C 
ENDBRANCH  23  36
ENDBRANCH   1  23
TORSDOF 12
ENDMDL
MODEL 5
REMARK VINA RESULT:    -7.165      1.519      2.437
REMARK INTER + INTRA:         -15.946
REMARK INTER:                 -10.745
REMARK INTRA:                  -5.202
REMARK CONF_INDEPENDENT:        3.580
REMARK UNBOUND:                -5.202
REMARK  12 active torsions:
REMARK  status: ('A' for Active; 'I' for Inactive)
REMARK    1  A    between atoms: C_2  and  C_3 
REMARK    2  A    between atoms: C_3  and  C_4 
REMARK    3  A    between atoms: C_4  and  N_5 
REMARK       I    between atoms: N_5  and  C_6 
REMARK    4  A    between atoms: C_6  and  C_8 
REMARK    5  A    between atoms: C_8  and  C_9 
REMARK    6  A    between atoms: C_8  and  N_22 
REMARK    7  A    between atoms: C_9  and  C_10 
REMARK    8  A    between atoms: C_9  and  C_16 
REMARK       I    between atoms: N_22  and  C_23 
REMARK    9  A    between atoms: N_22  and  C_33 
REMARK   10  A    between atoms: C_23  and  C_25 
REMARK   11  A    between atoms: C_29  and  O_30 
REMARK   12  A    between atoms: C_31  and  O_32 
ROOT
ATOM      1  C   UNL d   1      28.861 -15.590  -1.803  0.00  0.00     0.193 C 
ENDROOT
BRANCH   1   2
ATOM      2  C   UNL d   1      29.527 -14.235  -1.366  0.00  0.00     0.241 C 
ATOM      3  N   UNL d   1      29.417 -13.129  -2.209  0.00  0.00    -0.359 N 
ATOM      4  H   UNL d   1      29.494 -13.316  -3.206  0.00  0.00     0.162 HD
ATOM      5  O   UNL d   1      30.220 -14.164  -0.328  0.00  0.00    -0.271 OA
BRANCH   3   6
ATOM      6  C   UNL d   1      29.910 -11.836  -1.769  0.00  0.00     0.122 C 
BRANCH   6   7
ATOM      7  C   UNL d   1      29.034 -11.089  -0.791  0.00  0.00     0.019 C 
BRANCH   7   8
ATOM      8  C   UNL d   1      27.736 -10.648  -1.467  0.00  0.00    -0.003 C 
ATOM      9  C   UNL d   1      28.053  -9.646  -2.559  0.00  0.00     0.005 C 
ENDBRANCH   7   8
ENDBRANCH   6   7
ENDBRANCH   3   6
ENDBRANCH   1   2
BRANCH   1  10
ATOM     10  C   UNL d   1      27.329 -15.275  -1.307  0.00  0.00     0.084 C 
BRANCH  10  11
ATOM     11  C   UNL d   1      26.288 -16.390  -1.099  0.00  0.00    -0.047 C 
ATOM     12  C   UNL d   1      24.910 -16.077  -1.177  0.00  0.00     0.008 C 
ATOM     13  C   UNL d   1      23.913 -16.926  -0.735  0.00  0.00     0.001 C 
ATOM     14  C   UNL d   1      24.280 -18.073  -0.060  0.00  0.00     0.000 C 
ATOM     15  C   UNL d   1      25.636 -18.399   0.089  0.00  0.00     0.001 C 
ATOM     16  C   UNL d   1      26.647 -17.626  -0.519  0.00  0.00     0.008 C 
ENDBRANCH  10  11
BRANCH  10  17
ATOM     17  C   UNL d   1      27.360 -14.528   0.043  0.00  0.00    -0.047 A 
ATOM     18  C   UNL d   1      27.925 -15.102   1.182  0.00  0.00     0.008 A 
ATOM     19  C   UNL d   1      27.779 -14.449   2.406  0.00  0.00     0.001 A 
ATOM     20  C   UNL d   1      27.171 -13.191   2.497  0.00  0.00     0.000 A 
ATOM     21  C   UNL d   1      26.642 -12.599   1.376  0.00  0.00     0.001 A 
ATOM     22  C   UNL d   1      26.697 -13.292   0.193  0.00  0.00     0.008 A 
ENDBRANCH  10  17
ENDBRANCH   1  10
BRANCH   1  23
ATOM     23  N   UNL d   1      29.142 -15.945  -3.343  0.00  0.00    -0.325 N 
ATOM     24  C   UNL d   1      28.376 -15.461  -4.441  0.00  0.00     0.258 C 
ATOM     25  O   UNL d   1      28.463 -15.904  -5.588  0.00  0.00    -0.267 OA
BRANCH  24  26
ATOM     26  C   UNL d   1      27.345 -14.426  -4.381  0.00  0.00     0.068 A 
ATOM     27  C   UNL d   1      27.790 -13.109  -4.608  0.00  0.00     0.020 A 
ATOM     28  C   UNL d   1      26.891 -12.049  -4.607  0.00  0.00     0.004 A 
ATOM     29  C   UNL d   1      25.532 -12.307  -4.455  0.00  0.00     0.039 A 
ATOM     30  C   UNL d   1      25.103 -13.606  -4.175  0.00  0.00     0.099 A 
ATOM     31  C   UNL d   1      26.005 -14.670  -4.115  0.00  0.00     0.114 A 
BRANCH  30  32
ATOM     32  O   UNL d   1      23.769 -13.887  -4.029  0.00  0.00    -0.358 OA
ATOM     33  H   UNL d   1      23.283 -13.413  -4.726  0.00  0.00     0.217 HD
ENDBRANCH  30  32
BRANCH  31  34
ATOM     34  O   UNL d   1      25.530 -15.950  -3.988  0.00  0.00    -0.357 OA
ATOM     35  H   UNL d   1      24.677 -15.840  -3.520  0.00  0.00     0.217 HD
ENDBRANCH  31  34
ENDBRANCH  24  26
BRANCH  23  36
ATOM     36  C   UNL d   1      30.404 -16.688  -3.767  0.00  0.00     0.025 C 
ATOM     37  C   UNL d   1      31.433 -15.742  -4.435  0.00  0.00     0.037 C 
ATOM     38  C   UNL d   1      31.010 -17.320  -2.564  0.00  0.00     0.037 C 
ATOM     39  C   UNL d   1      30.301 -17.981  -4.590  0.00  0.00     0.037 C 
ENDBRANCH  23  36
ENDBRANCH   1  23
TORSDOF 12
ENDMDL
MODEL 6
REMARK VINA RESULT:    -7.160      2.103      4.362
REMARK INTER + INTRA:         -16.344
REMARK INTER:                 -10.740
REMARK INTRA:                  -5.604
REMARK CONF_INDEPENDENT:        3.580
REMARK UNBOUND:                -5.604
REMARK  12 active torsions:
REMARK  status: ('A' for Active; 'I' for Inactive)
REMARK    1  A    between atoms: C_2  and  C_3 
REMARK    2  A    between atoms: C_3  and  C_4 
REMARK    3  A    between atoms: C_4  and  N_5 
REMARK       I    between atoms: N_5  and  C_6 
REMARK    4  A    between atoms: C_6  and  C_8 
REMARK    5  A    between atoms: C_8  and  C_9 
REMARK    6  A    between atoms: C_8  and  N_22 
REMARK    7  A    between atoms: C_9  and  C_10 
REMARK    8  A    between atoms: C_9  and  C_16 
REMARK       I    between atoms: N_22  and  C_23 
REMARK    9  A    between atoms: N_22  and  C_33 
REMARK   10  A    between atoms: C_23  and  C_25 
REMARK   11  A    between atoms: C_29  and  O_30 
REMARK   12  A    between atoms: C_31  and  O_32 
ROOT
ATOM      1  C   UNL d   1      27.420 -15.580  -0.153  0.00  0.00     0.193 C 
ENDROOT
BRANCH   1   2
ATOM      2  C   UNL d   1      27.311 -14.540   1.021  0.00  0.00     0.241 C 
ATOM      3  N   UNL d   1      28.289 -14.543   2.015  0.00  0.00    -0.359 N 
ATOM      4  H   UNL d   1      28.623 -15.456   2.312  0.00  0.00     0.162 HD
ATOM      5  O   UNL d   1      26.323 -13.781   1.118  0.00  0.00    -0.271 OA
BRANCH   3   6
ATOM      6  C   UNL d   1      28.282 -13.510   3.036  0.00  0.00     0.122 C 
BRANCH   6   7
ATOM      7  C   UNL d   1      27.325 -13.719   4.185  0.00  0.00     0.019 C 
BRANCH   7   8
ATOM      8  C   UNL d   1      27.829 -14.832   5.104  0.00  0.00    -0.003 C 
ATOM      9  C   UNL d   1      29.114 -14.388   5.773  0.00  0.00     0.005 C 
ENDBRANCH   7   8
ENDBRANCH   6   7
ENDBRANCH   3   6
ENDBRANCH   1   2
BRANCH   1  10
ATOM     10  C   UNL d   1      25.967 -15.295  -0.861  0.00  0.00     0.084 C 
BRANCH  10  11
ATOM     11  C   UNL d   1      25.826 -15.046  -2.373  0.00  0.00    -0.047 C 
ATOM     12  C   UNL d   1      26.804 -15.566  -3.257  0.00  0.00     0.008 C 
ATOM     13  C   UNL d   1      26.923 -15.168  -4.574  0.00  0.00     0.001 C 
ATOM     14  C   UNL d   1      26.144 -14.116  -5.015  0.00  0.00     0.000 C 
ATOM     15  C   UNL d   1      25.197 -13.535  -4.160  0.00  0.00     0.001 C 
ATOM     16  C   UNL d   1      24.950 -14.059  -2.874  0.00  0.00     0.008 C 
ENDBRANCH  10  11
BRANCH  10  17
ATOM     17  C   UNL d   1      25.009 -16.472  -0.579  0.00  0.00    -0.047 A 
ATOM     18  C   UNL d   1      25.487 -17.736  -0.236  0.00  0.00     0.008 A 
ATOM     19  C   UNL d   1      24.583 -18.796  -0.153  0.00  0.00     0.001 A 
ATOM     20  C   UNL d   1      23.206 -18.598  -0.306  0.00  0.00     0.000 A 
ATOM     21  C   UNL d   1      22.719 -17.350  -0.608  0.00  0.00     0.001 A 
ATOM     22  C   UNL d   1      23.621 -16.332  -0.791  0.00  0.00     0.008 A 
ENDBRANCH  10  17
ENDBRANCH   1  10
BRANCH   1  23
ATOM     23  N   UNL d   1      28.768 -15.406  -1.005  0.00  0.00    -0.325 N 
ATOM     24  C   UNL d   1      29.226 -14.177  -1.560  0.00  0.00     0.258 C 
ATOM     25  O   UNL d   1      30.138 -14.094  -2.386  0.00  0.00    -0.267 OA
BRANCH  24  26
ATOM     26  C   UNL d   1      28.668 -12.853  -1.295  0.00  0.00     0.068 A 
ATOM     27  C   UNL d   1      27.725 -12.390  -2.235  0.00  0.00     0.020 A 
ATOM     28  C   UNL d   1      27.106 -11.157  -2.066  0.00  0.00     0.004 A 
ATOM     29  C   UNL d   1      27.368 -10.414  -0.919  0.00  0.00     0.039 A 
ATOM     30  C   UNL d   1      28.343 -10.850  -0.021  0.00  0.00     0.099 A 
ATOM     31  C   UNL d   1      29.015 -12.060  -0.211  0.00  0.00     0.114 A 
BRANCH  30  32
ATOM     32  O   UNL d   1      28.613 -10.140   1.120  0.00  0.00    -0.358 OA
ATOM     33  H   UNL d   1      29.467 -10.445   1.472  0.00  0.00     0.217 HD
ENDBRANCH  30  32
BRANCH  31  34
ATOM     34  O   UNL d   1      29.854 -12.525   0.767  0.00  0.00    -0.357 OA
ATOM     35  H   UNL d   1      29.650 -11.963   1.542  0.00  0.00     0.217 HD
ENDBRANCH  31  34
ENDBRANCH  24  26
BRANCH  23  36
ATOM     36  C   UNL d   1      29.785 -16.537  -1.119  0.00  0.00     0.025 C 
ATOM     37  C   UNL d   1      31.104 -16.203  -0.376  0.00  0.00     0.037 C 
ATOM     38  C   UNL d   1      29.186 -17.773  -0.547  0.00  0.00     0.037 C 
ATOM     39  C   UNL d   1      30.120 -17.142  -2.490  0.00  0.00     0.037 C 
ENDBRANCH  23  36
ENDBRANCH   1  23
TORSDOF 12
ENDMDL
MODEL 7
REMARK VINA RESULT:    -6.260      1.856      4.620
REMARK INTER + INTRA:         -15.404
REMARK INTER:                  -9.839
REMARK INTRA:                  -5.565
REMARK CONF_INDEPENDENT:        3.580
REMARK UNBOUND:                -5.565
REMARK  12 active torsions:
REMARK  status: ('A' for Active; 'I' for Inactive)
REMARK    1  A    between atoms: C_2  and  C_3 
REMARK    2  A    between atoms: C_3  and  C_4 
REMARK    3  A    between atoms: C_4  and  N_5 
REMARK       I    between atoms: N_5  and  C_6 
REMARK    4  A    between atoms: C_6  and  C_8 
REMARK    5  A    between atoms: C_8  and  C_9 
REMARK    6  A    between atoms: C_8  and  N_22 
REMARK    7  A    between atoms: C_9  and  C_10 
REMARK    8  A    between atoms: C_9  and  C_16 
REMARK       I    between atoms: N_22  and  C_23 
REMARK    9  A    between atoms: N_22  and  C_33 
REMARK   10  A    between atoms: C_23  and  C_25 
REMARK   11  A    between atoms: C_29  and  O_30 
REMARK   12  A    between atoms: C_31  and  O_32 
ROOT
ATOM      1  C   UNL d   1      27.765 -14.402  -0.214  0.00  0.00     0.193 C 
ENDROOT
BRANCH   1   2
ATOM      2  C   UNL d   1      27.453 -14.215   1.315  0.00  0.00     0.241 C 
ATOM      3  N   UNL d   1      28.351 -14.724   2.252  0.00  0.00    -0.359 N 
ATOM      4  H   UNL d   1      28.767 -15.625   2.031  0.00  0.00     0.162 HD
ATOM      5  O   UNL d   1      26.378 -13.700   1.693  0.00  0.00    -0.271 OA
BRANCH   3   6
ATOM      6  C   UNL d   1      28.151 -14.451   3.665  0.00  0.00     0.122 C 
BRANCH   6   7
ATOM      7  C   UNL d   1      29.390 -14.104   4.456  0.00  0.00     0.019 C 
BRANCH   7   8
ATOM      8  C   UNL d   1      30.518 -13.673   3.519  0.00  0.00    -0.003 C 
ATOM      9  C   UNL d   1      31.036 -12.315   3.948  0.00  0.00     0.005 C 
ENDBRANCH   7   8
ENDBRANCH   6   7
ENDBRANCH   3   6
ENDBRANCH   1   2
BRANCH   1  10
ATOM     10  C   UNL d   1      26.224 -14.561  -0.757  0.00  0.00     0.084 C 
BRANCH  10  11
ATOM     11  C   UNL d   1      25.844 -14.325  -2.229  0.00  0.00    -0.047 C 
ATOM     12  C   UNL d   1      25.949 -15.394  -3.153  0.00  0.00     0.008 C 
ATOM     13  C   UNL d   1      25.906 -15.219  -4.523  0.00  0.00     0.001 C 
ATOM     14  C   UNL d   1      25.898 -13.930  -5.020  0.00  0.00     0.000 C 
ATOM     15  C   UNL d   1      25.849 -12.837  -4.142  0.00  0.00     0.001 C 
ATOM     16  C   UNL d   1      25.710 -13.020  -2.750  0.00  0.00     0.008 C 
ENDBRANCH  10  11
BRANCH  10  17
ATOM     17  C   UNL d   1      25.709 -15.984  -0.454  0.00  0.00    -0.047 A 
ATOM     18  C   UNL d   1      26.582 -17.024  -0.139  0.00  0.00     0.008 A 
ATOM     19  C   UNL d   1      26.074 -18.320  -0.036  0.00  0.00     0.001 A 
ATOM     20  C   UNL d   1      24.702 -18.579  -0.142  0.00  0.00     0.000 A 
ATOM     21  C   UNL d   1      23.828 -17.556  -0.417  0.00  0.00     0.001 A 
ATOM     22  C   UNL d   1      24.345 -16.301  -0.619  0.00  0.00     0.008 A 
ENDBRANCH  10  17
ENDBRANCH   1  10
BRANCH   1  23
ATOM     23  N   UNL d   1      28.697 -13.233  -0.798  0.00  0.00    -0.325 N 
ATOM     24  C   UNL d   1      29.491 -13.337  -1.976  0.00  0.00     0.258 C 
ATOM     25  O   UNL d   1      30.359 -12.522  -2.294  0.00  0.00    -0.267 OA
BRANCH  24  26
ATOM     26  C   UNL d   1      29.450 -14.429  -2.946  0.00  0.00     0.068 A 
ATOM     27  C   UNL d   1      29.703 -15.715  -2.428  0.00  0.00     0.020 A 
ATOM     28  C   UNL d   1      29.659 -16.831  -3.254  0.00  0.00     0.004 A 
ATOM     29  C   UNL d   1      29.287 -16.679  -4.587  0.00  0.00     0.039 A 
ATOM     30  C   UNL d   1      29.093 -15.399  -5.108  0.00  0.00     0.099 A 
ATOM     31  C   UNL d   1      29.193 -14.264  -4.300  0.00  0.00     0.114 A 
BRANCH  30  32
ATOM     32  O   UNL d   1      28.719 -15.224  -6.415  0.00  0.00    -0.358 OA
ATOM     33  H   UNL d   1      28.657 -14.268  -6.587  0.00  0.00     0.217 HD
ENDBRANCH  30  32
BRANCH  31  34
ATOM     34  O   UNL d   1      28.849 -13.040  -4.812  0.00  0.00    -0.357 OA
ATOM     35  H   UNL d   1      29.264 -12.402  -4.196  0.00  0.00     0.217 HD
ENDBRANCH  31  34
ENDBRANCH  24  26
BRANCH  23  36
ATOM     36  C   UNL d   1      28.646 -11.820  -0.227  0.00  0.00     0.025 C 
ATOM     37  C   UNL d   1      29.939 -11.464   0.548  0.00  0.00     0.037 C 
ATOM     38  C   UNL d   1      28.453 -10.861  -1.349  0.00  0.00     0.037 C 
ATOM     39  C   UNL d   1      27.428 -11.358   0.588  0.00  0.00     0.037 C 
ENDBRANCH  23  36
ENDBRANCH   1  23
TORSDOF 12
ENDMDL
MODEL 8
REMARK VINA RESULT:    -5.741      1.563      3.566
REMARK INTER + INTRA:         -15.238
REMARK INTER:                  -9.321
REMARK INTRA:                  -5.918
REMARK CONF_INDEPENDENT:        3.580
REMARK UNBOUND:                -5.918
REMARK  12 active torsions:
REMARK  status: ('A' for Active; 'I' for Inactive)
REMARK    1  A    between atoms: C_2  and  C_3 
REMARK    2  A    between atoms: C_3  and  C_4 
REMARK    3  A    between atoms: C_4  and  N_5 
REMARK       I    between atoms: N_5  and  C_6 
REMARK    4  A    between atoms: C_6  and  C_8 
REMARK    5  A    between atoms: C_8  and  C_9 
REMARK    6  A    between atoms: C_8  and  N_22 
REMARK    7  A    between atoms: C_9  and  C_10 
REMARK    8  A    between atoms: C_9  and  C_16 
REMARK       I    between atoms: N_22  and  C_23 
REMARK    9  A    between atoms: N_22  and  C_33 
REMARK   10  A    between atoms: C_23  and  C_25 
REMARK   11  A    between atoms: C_29  and  O_30 
REMARK   12  A    between atoms: C_31  and  O_32 
ROOT
ATOM      1  C   UNL d   1      29.028 -14.702  -0.809  0.00  0.00     0.193 C 
ENDROOT
BRANCH   1   2
ATOM      2  C   UNL d   1      28.843 -13.441  -1.730  0.00  0.00     0.241 C 
ATOM      3  N   UNL d   1      27.551 -13.028  -2.054  0.00  0.00    -0.359 N 
ATOM      4  H   UNL d   1      26.878 -13.768  -2.240  0.00  0.00     0.162 HD
ATOM      5  O   UNL d   1      29.830 -12.865  -2.238  0.00  0.00    -0.271 OA
BRANCH   3   6
ATOM      6  C   UNL d   1      27.354 -11.794  -2.794  0.00  0.00     0.122 C 
BRANCH   6   7
ATOM      7  C   UNL d   1      25.933 -11.487  -3.206  0.00  0.00     0.019 C 
BRANCH   7   8
ATOM      8  C   UNL d   1      25.914 -10.756  -4.548  0.00  0.00    -0.003 C 
ATOM      9  C   UNL d   1      25.568  -9.298  -4.321  0.00  0.00     0.005 C 
ENDBRANCH   7   8
ENDBRANCH   6   7
ENDBRANCH   3   6
ENDBRANCH   1   2
BRANCH   1  10
ATOM     10  C   UNL d   1      27.534 -14.724  -0.130  0.00  0.00     0.084 C 
BRANCH  10  11
ATOM     11  C   UNL d   1      26.764 -16.034   0.116  0.00  0.00    -0.047 C 
ATOM     12  C   UNL d   1      27.484 -17.241   0.289  0.00  0.00     0.008 C 
ATOM     13  C   UNL d   1      26.896 -18.489   0.233  0.00  0.00     0.001 C 
ATOM     14  C   UNL d   1      25.570 -18.574  -0.144  0.00  0.00     0.000 C 
ATOM     15  C   UNL d   1      24.829 -17.406  -0.378  0.00  0.00     0.001 C 
ATOM     16  C   UNL d   1      25.380 -16.129  -0.145  0.00  0.00     0.008 C 
ENDBRANCH  10  11
BRANCH  10  17
ATOM     17  C   UNL d   1      27.580 -14.044   1.255  0.00  0.00    -0.047 A 
ATOM     18  C   UNL d   1      28.004 -14.732   2.391  0.00  0.00     0.008 A 
ATOM     19  C   UNL d   1      27.870 -14.118   3.637  0.00  0.00     0.001 A 
ATOM     20  C   UNL d   1      27.416 -12.799   3.758  0.00  0.00     0.000 A 
ATOM     21  C   UNL d   1      27.029 -12.099   2.642  0.00  0.00     0.001 A 
ATOM     22  C   UNL d   1      27.066 -12.743   1.431  0.00  0.00     0.008 A 
ENDBRANCH  10  17
ENDBRANCH   1  10
BRANCH   1  23
ATOM     23  N   UNL d   1      29.552 -15.983  -1.621  0.00  0.00    -0.325 N 
ATOM     24  C   UNL d   1      29.149 -16.330  -2.942  0.00  0.00     0.258 C 
ATOM     25  O   UNL d   1      29.387 -17.418  -3.470  0.00  0.00    -0.267 OA
BRANCH  24  26
ATOM     26  C   UNL d   1      28.358 -15.497  -3.846  0.00  0.00     0.068 A 
ATOM     27  C   UNL d   1      29.074 -14.883  -4.892  0.00  0.00     0.020 A 
ATOM     28  C   UNL d   1      28.418 -14.095  -5.831  0.00  0.00     0.004 A 
ATOM     29  C   UNL d   1      27.032 -13.978  -5.773  0.00  0.00     0.039 A 
ATOM     30  C   UNL d   1      26.335 -14.541  -4.703  0.00  0.00     0.099 A 
ATOM     31  C   UNL d   1      26.992 -15.286  -3.721  0.00  0.00     0.114 A 
BRANCH  30  32
ATOM     32  O   UNL d   1      24.969 -14.446  -4.629  0.00  0.00    -0.358 OA
ATOM     33  H   UNL d   1      24.690 -14.778  -3.758  0.00  0.00     0.217 HD
ENDBRANCH  30  32
BRANCH  31  34
ATOM     34  O   UNL d   1      26.257 -15.947  -2.772  0.00  0.00    -0.357 OA
ATOM     35  H   UNL d   1      25.376 -16.053  -3.187  0.00  0.00     0.217 HD
ENDBRANCH  31  34
ENDBRANCH  24  26
BRANCH  23  36
ATOM     36  C   UNL d   1      30.700 -16.838  -1.095  0.00  0.00     0.025 C 
ATOM     37  C   UNL d   1      32.012 -16.588  -1.881  0.00  0.00     0.037 C 
ATOM     38  C   UNL d   1      30.909 -16.520   0.343  0.00  0.00     0.037 C 
ATOM     39  C   UNL d   1      30.513 -18.350  -0.898  0.00  0.00     0.037 C 
ENDBRANCH  23  36
ENDBRANCH   1  23
TORSDOF 12
ENDMDL
MODEL 9
REMARK VINA RESULT:    -5.285      2.449      5.883
REMARK INTER + INTRA:         -15.305
REMARK INTER:                  -8.865
REMARK INTRA:                  -6.440
REMARK CONF_INDEPENDENT:        3.580
REMARK UNBOUND:                -6.440
REMARK  12 active torsions:
REMARK  status: ('A' for Active; 'I' for Inactive)
REMARK    1  A    between atoms: C_2  and  C_3 
REMARK    2  A    between atoms: C_3  and  C_4 
REMARK    3  A    between atoms: C_4  and  N_5 
REMARK       I    between atoms: N_5  and  C_6 
REMARK    4  A    between atoms: C_6  and  C_8 
REMARK    5  A    between atoms: C_8  and  C_9 
REMARK    6  A    between atoms: C_8  and  N_22 
REMARK    7  A    between atoms: C_9  and  C_10 
REMARK    8  A    between atoms: C_9  and  C_16 
REMARK       I    between atoms: N_22  and  C_23 
REMARK    9  A    between atoms: N_22  and  C_33 
REMARK   10  A    between atoms: C_23  and  C_25 
REMARK   11  A    between atoms: C_29  and  O_30 
REMARK   12  A    between atoms: C_31  and  O_32 
ROOT
ATOM      1  C   UNL d   1      27.168 -14.778  -4.033  0.00  0.00     0.193 C 
ENDROOT
BRANCH   1   2
ATOM      2  C   UNL d   1      28.094 -15.575  -5.023  0.00  0.00     0.241 C 
ATOM      3  N   UNL d   1      29.232 -16.205  -4.520  0.00  0.00    -0.359 N 
ATOM      4  H   UNL d   1      29.746 -15.697  -3.804  0.00  0.00     0.162 HD
ATOM      5  O   UNL d   1      27.871 -15.575  -6.253  0.00  0.00    -0.271 OA
BRANCH   3   6
ATOM      6  C   UNL d   1      30.030 -17.053  -5.388  0.00  0.00     0.122 C 
BRANCH   6   7
ATOM      7  C   UNL d   1      30.760 -18.192  -4.716  0.00  0.00     0.019 C 
BRANCH   7   8
ATOM      8  C   UNL d   1      30.778 -17.993  -3.201  0.00  0.00    -0.003 C 
ATOM      9  C   UNL d   1      31.775 -16.908  -2.849  0.00  0.00     0.005 C 
ENDBRANCH   7   8
ENDBRANCH   6   7
ENDBRANCH   3   6
ENDBRANCH   1   2
BRANCH   1  10
ATOM     10  C   UNL d   1      27.750 -15.382  -2.622  0.00  0.00     0.084 C 
BRANCH  10  11
ATOM     11  C   UNL d   1      28.241 -14.473  -1.481  0.00  0.00    -0.047 C 
ATOM     12  C   UNL d   1      27.349 -13.535  -0.907  0.00  0.00     0.008 C 
ATOM     13  C   UNL d   1      27.761 -12.499  -0.091  0.00  0.00     0.001 C 
ATOM     14  C   UNL d   1      29.116 -12.284   0.063  0.00  0.00     0.000 C 
ATOM     15  C   UNL d   1      30.040 -13.156  -0.530  0.00  0.00     0.001 C 
ATOM     16  C   UNL d   1      29.618 -14.317  -1.213  0.00  0.00     0.008 C 
ENDBRANCH  10  11
BRANCH  10  17
ATOM     17  C   UNL d   1      26.683 -16.279  -1.959  0.00  0.00    -0.047 A 
ATOM     18  C   UNL d   1      25.352 -16.260  -2.376  0.00  0.00     0.008 A 
ATOM     19  C   UNL d   1      24.406 -16.969  -1.635  0.00  0.00     0.001 A 
ATOM     20  C   UNL d   1      24.778 -17.774  -0.552  0.00  0.00     0.000 A 
ATOM     21  C   UNL d   1      26.091 -17.830  -0.154  0.00  0.00     0.001 A 
ATOM     22  C   UNL d   1      27.002 -17.050  -0.822  0.00  0.00     0.008 A 
ENDBRANCH  10  17
ENDBRANCH   1  10
BRANCH   1  23
ATOM     23  N   UNL d   1      27.206 -13.195  -4.296  0.00  0.00    -0.325 N 
ATOM     24  C   UNL d   1      28.351 -12.471  -4.732  0.00  0.00     0.258 C 
ATOM     25  O   UNL d   1      28.430 -11.240  -4.724  0.00  0.00    -0.267 OA
BRANCH  24  26
ATOM     26  C   UNL d   1      29.611 -13.050  -5.194  0.00  0.00     0.068 A 
ATOM     27  C   UNL d   1      30.641 -13.112  -4.234  0.00  0.00     0.020 A 
ATOM     28  C   UNL d   1      31.872 -13.673  -4.553  0.00  0.00     0.004 A 
ATOM     29  C   UNL d   1      32.056 -14.243  -5.810  0.00  0.00     0.039 A 
ATOM     30  C   UNL d   1      31.054 -14.128  -6.774  0.00  0.00     0.099 A 
ATOM     31  C   UNL d   1      29.834 -13.514  -6.483  0.00  0.00     0.114 A 
BRANCH  30  32
ATOM     32  O   UNL d   1      31.209 -14.689  -8.016  0.00  0.00    -0.358 OA
ATOM     33  H   UNL d   1      30.451 -14.422  -8.565  0.00  0.00     0.217 HD
ENDBRANCH  30  32
BRANCH  31  34
ATOM     34  O   UNL d   1      28.821 -13.554  -7.406  0.00  0.00    -0.357 OA
ATOM     35  H   UNL d   1      28.945 -14.415  -7.855  0.00  0.00     0.217 HD
ENDBRANCH  31  34
ENDBRANCH  24  26
BRANCH  23  36
ATOM     36  C   UNL d   1      25.930 -12.361  -4.288  0.00  0.00     0.025 C 
ATOM     37  C   UNL d   1      25.692 -11.656  -5.648  0.00  0.00     0.037 C 
ATOM     38  C   UNL d   1      24.780 -13.254  -3.979  0.00  0.00     0.037 C 
ATOM     39  C   UNL d   1      25.665 -11.362  -3.151  0.00  0.00     0.037 C 
ENDBRANCH  23  36
ENDBRANCH   1  23
TORSDOF 12
ENDMDL
