MODEL 1
REMARK VINA RESULT:    -8.871      0.000      0.000
REMARK INTER + INTRA:         -10.974
REMARK INTER:                 -10.363
REMARK INTRA:                  -0.611
REMARK CONF_INDEPENDENT:        1.492
REMARK UNBOUND:                -0.611
REMARK  5 active torsions:
REMARK  status: ('A' for Active; 'I' for Inactive)
REMARK    1  A    between atoms: C_5  and  N_6 
REMARK    2  A    between atoms: N_6  and  C_7 
REMARK    3  A    between atoms: C_9  and  C_10 
REMARK       I    between atoms: C_10  and  N_12 
REMARK    4  A    between atoms: N_12  and  C_13 
REMARK    5  A    between atoms: C_16  and  C_17 
REMARK       I    between atoms: C_17  and  N_18 
ROOT
ATOM      1  C   UNL d   1      27.035 -15.602  -0.414  0.00  0.00     0.171 A 
ATOM      2  N   UNL d   1      26.795 -14.871   0.661  0.00  0.00    -0.218 NA
ATOM      3  C   UNL d   1      27.979 -14.579   1.333  0.00  0.00     0.134 A 
ATOM      4  C   UNL d   1      29.111 -15.089   0.719  0.00  0.00     0.090 A 
ATOM      5  S   UNL d   1      28.694 -16.009  -0.660  0.00  0.00    -0.061 SA
ENDROOT
BRANCH   3   6
ATOM      6  C   UNL d   1      28.044 -13.796   2.578  0.00  0.00     0.275 C 
ATOM      7  O   UNL d   1      27.730 -12.601   2.567  0.00  0.00    -0.266 OA
ATOM      8  N   UNL d   1      28.524 -14.457   3.699  0.00  0.00    -0.322 N 
ATOM      9  H   UNL d   1      28.903 -15.390   3.556  0.00  0.00     0.169 HD
BRANCH   8  10
ATOM     10  C   UNL d   1      28.576 -13.893   4.999  0.00  0.00     0.035 A 
ATOM     11  C   UNL d   1      29.341 -14.506   5.994  0.00  0.00     0.030 A 
ATOM     12  C   UNL d   1      29.300 -14.043   7.323  0.00  0.00     0.019 A 
ATOM     13  C   UNL d   1      28.536 -12.922   7.671  0.00  0.00     0.032 A 
ATOM     14  C   UNL d   1      27.779 -12.301   6.670  0.00  0.00     0.019 A 
ATOM     15  C   UNL d   1      27.810 -12.774   5.347  0.00  0.00     0.030 A 
BRANCH  13  16
ATOM     16  C   UNL d   1      28.531 -12.336   9.048  0.00  0.00     0.249 C 
ATOM     17  N   UNL d   1      29.045 -11.081   9.229  0.00  0.00    -0.366 N 
ATOM     18  H   UNL d   1      29.413 -10.491   8.501  0.00  0.00     0.159 HD
ATOM     19  H   UNL d   1      28.982 -10.685  10.160  0.00  0.00     0.159 HD
ATOM     20  O   UNL d   1      28.056 -12.943  10.006  0.00  0.00    -0.268 OA
ENDBRANCH  13  16
ENDBRANCH   8  10
ENDBRANCH   3   6
BRANCH   1  21
ATOM     21  N   UNL d   1      26.088 -16.011  -1.294  0.00  0.00    -0.335 N 
ATOM     22  H   UNL d   1      26.034 -15.528  -2.179  0.00  0.00     0.168 HD
BRANCH  21  23
ATOM     23  C   UNL d   1      24.962 -16.790  -0.938  0.00  0.00     0.040 A 
ATOM     24  C   UNL d   1      23.669 -16.346  -1.270  0.00  0.00     0.030 A 
ATOM     25  C   UNL d   1      22.522 -17.039  -0.897  0.00  0.00     0.009 A 
ATOM     26  C   UNL d   1      22.624 -18.218  -0.171  0.00  0.00    -0.061 A 
ATOM     27  C   UNL d   1      21.376 -18.948   0.227  0.00  0.00     0.048 C 
ATOM     28  C   UNL d   1      23.900 -18.689   0.171  0.00  0.00     0.015 A 
ATOM     29  C   UNL d   1      25.076 -17.986  -0.197  0.00  0.00    -0.035 A 
ATOM     30  C   UNL d   1      26.401 -18.573   0.221  0.00  0.00     0.050 C 
ENDBRANCH  21  23
ENDBRANCH   1  21
TORSDOF 5
ENDMDL
MODEL 2
REMARK VINA RESULT:    -8.633      6.149      9.669
REMARK INTER + INTRA:         -11.106
REMARK INTER:                 -10.125
REMARK INTRA:                  -0.981
REMARK CONF_INDEPENDENT:        1.492
REMARK UNBOUND:                -0.981
REMARK  5 active torsions:
REMARK  status: ('A' for Active; 'I' for Inactive)
REMARK    1  A    between atoms: C_5  and  N_6 
REMARK    2  A    between atoms: N_6  and  C_7 
REMARK    3  A    between atoms: C_9  and  C_10 
REMARK       I    between atoms: C_10  and  N_12 
REMARK    4  A    between atoms: N_12  and  C_13 
REMARK    5  A    between atoms: C_16  and  C_17 
REMARK       I    between atoms: C_17  and  N_18 
ROOT
ATOM      1  C   UNL d   1      25.786 -15.071  -1.752  0.00  0.00     0.171 A 
ATOM      2  N   UNL d   1      24.732 -15.861  -1.647  0.00  0.00    -0.218 NA
ATOM      3  C   UNL d   1      25.005 -16.939  -0.809  0.00  0.00     0.134 A 
ATOM      4  C   UNL d   1      26.282 -16.920  -0.272  0.00  0.00     0.090 A 
ATOM      5  S   UNL d   1      27.178 -15.596  -0.879  0.00  0.00    -0.061 SA
ENDROOT
BRANCH   3   6
ATOM      6  C   UNL d   1      24.039 -18.007  -0.503  0.00  0.00     0.275 C 
ATOM      7  O   UNL d   1      24.447 -19.138  -0.216  0.00  0.00    -0.266 OA
ATOM      8  N   UNL d   1      22.697 -17.678  -0.621  0.00  0.00    -0.322 N 
ATOM      9  H   UNL d   1      22.479 -16.767  -1.019  0.00  0.00     0.169 HD
BRANCH   8  10
ATOM     10  C   UNL d   1      21.628 -18.547  -0.284  0.00  0.00     0.035 A 
ATOM     11  C   UNL d   1      20.726 -18.954  -1.270  0.00  0.00     0.030 A 
ATOM     12  C   UNL d   1      19.582 -19.705  -0.934  0.00  0.00     0.019 A 
ATOM     13  C   UNL d   1      19.350 -20.110   0.386  0.00  0.00     0.032 A 
ATOM     14  C   UNL d   1      20.262 -19.711   1.370  0.00  0.00     0.019 A 
ATOM     15  C   UNL d   1      21.394 -18.951   1.035  0.00  0.00     0.030 A 
BRANCH  13  16
ATOM     16  C   UNL d   1      18.200 -20.985   0.778  0.00  0.00     0.249 C 
ATOM     17  N   UNL d   1      17.278 -21.322  -0.175  0.00  0.00    -0.366 N 
ATOM     18  H   UNL d   1      17.315 -21.051  -1.144  0.00  0.00     0.159 HD
ATOM     19  H   UNL d   1      16.539 -21.957   0.101  0.00  0.00     0.159 HD
ATOM     20  O   UNL d   1      18.081 -21.421   1.920  0.00  0.00    -0.268 OA
ENDBRANCH  13  16
ENDBRANCH   8  10
ENDBRANCH   3   6
BRANCH   1  21
ATOM     21  N   UNL d   1      25.816 -13.919  -2.467  0.00  0.00    -0.335 N 
ATOM     22  H   UNL d   1      25.148 -13.202  -2.223  0.00  0.00     0.168 HD
BRANCH  21  23
ATOM     23  C   UNL d   1      26.441 -13.787  -3.729  0.00  0.00     0.040 A 
ATOM     24  C   UNL d   1      27.104 -14.888  -4.302  0.00  0.00     0.030 A 
ATOM     25  C   UNL d   1      27.785 -14.804  -5.512  0.00  0.00     0.009 A 
ATOM     26  C   UNL d   1      27.830 -13.601  -6.206  0.00  0.00    -0.061 A 
ATOM     27  C   UNL d   1      28.574 -13.528  -7.506  0.00  0.00     0.048 C 
ATOM     28  C   UNL d   1      27.174 -12.487  -5.662  0.00  0.00     0.015 A 
ATOM     29  C   UNL d   1      26.483 -12.560  -4.424  0.00  0.00    -0.035 A 
ATOM     30  C   UNL d   1      25.814 -11.305  -3.924  0.00  0.00     0.050 C 
ENDBRANCH  21  23
ENDBRANCH   1  21
TORSDOF 5
ENDMDL
MODEL 3
REMARK VINA RESULT:    -8.527      0.725      1.720
REMARK INTER + INTRA:         -10.659
REMARK INTER:                 -10.019
REMARK INTRA:                  -0.640
REMARK CONF_INDEPENDENT:        1.492
REMARK UNBOUND:                -0.640
REMARK  5 active torsions:
REMARK  status: ('A' for Active; 'I' for Inactive)
REMARK    1  A    between atoms: C_5  and  N_6 
REMARK    2  A    between atoms: N_6  and  C_7 
REMARK    3  A    between atoms: C_9  and  C_10 
REMARK       I    between atoms: C_10  and  N_12 
REMARK    4  A    between atoms: N_12  and  C_13 
REMARK    5  A    between atoms: C_16  and  C_17 
REMARK       I    between atoms: C_17  and  N_18 
ROOT
ATOM      1  C   UNL d   1      27.934 -16.032  -0.333  0.00  0.00     0.171 A 
ATOM      2  N   UNL d   1      27.520 -15.355   0.725  0.00  0.00    -0.218 NA
ATOM      3  C   UNL d   1      28.601 -14.841   1.435  0.00  0.00     0.134 A 
ATOM      4  C   UNL d   1      29.832 -15.130   0.868  0.00  0.00     0.090 A 
ATOM      5  S   UNL d   1      29.647 -16.119  -0.514  0.00  0.00    -0.061 SA
ENDROOT
BRANCH   3   6
ATOM      6  C   UNL d   1      28.471 -14.055   2.673  0.00  0.00     0.275 C 
ATOM      7  O   UNL d   1      28.050 -12.893   2.619  0.00  0.00    -0.266 OA
ATOM      8  N   UNL d   1      28.898 -14.666   3.842  0.00  0.00    -0.322 N 
ATOM      9  H   UNL d   1      29.374 -15.560   3.746  0.00  0.00     0.169 HD
BRANCH   8  10
ATOM     10  C   UNL d   1      28.769 -14.098   5.135  0.00  0.00     0.035 A 
ATOM     11  C   UNL d   1      27.820 -13.099   5.364  0.00  0.00     0.030 A 
ATOM     12  C   UNL d   1      27.766 -12.427   6.600  0.00  0.00     0.019 A 
ATOM     13  C   UNL d   1      28.623 -12.781   7.649  0.00  0.00     0.032 A 
ATOM     14  C   UNL d   1      29.566 -13.791   7.421  0.00  0.00     0.019 A 
ATOM     15  C   UNL d   1      29.628 -14.450   6.183  0.00  0.00     0.030 A 
BRANCH  13  16
ATOM     16  C   UNL d   1      28.545 -12.160   9.010  0.00  0.00     0.249 C 
ATOM     17  N   UNL d   1      29.321 -11.065   9.276  0.00  0.00    -0.366 N 
ATOM     18  H   UNL d   1      29.937 -10.612   8.620  0.00  0.00     0.159 HD
ATOM     19  H   UNL d   1      29.212 -10.631  10.185  0.00  0.00     0.159 HD
ATOM     20  O   UNL d   1      27.787 -12.593   9.874  0.00  0.00    -0.268 OA
ENDBRANCH  13  16
ENDBRANCH   8  10
ENDBRANCH   3   6
BRANCH   1  21
ATOM     21  N   UNL d   1      27.115 -16.617  -1.241  0.00  0.00    -0.335 N 
ATOM     22  H   UNL d   1      27.360 -16.527  -2.216  0.00  0.00     0.168 HD
BRANCH  21  23
ATOM     23  C   UNL d   1      25.786 -17.017  -0.966  0.00  0.00     0.040 A 
ATOM     24  C   UNL d   1      25.545 -18.128  -0.137  0.00  0.00     0.030 A 
ATOM     25  C   UNL d   1      24.264 -18.603   0.123  0.00  0.00     0.009 A 
ATOM     26  C   UNL d   1      23.159 -17.977  -0.441  0.00  0.00    -0.061 A 
ATOM     27  C   UNL d   1      21.786 -18.507  -0.154  0.00  0.00     0.048 C 
ATOM     28  C   UNL d   1      23.367 -16.863  -1.268  0.00  0.00     0.015 A 
ATOM     29  C   UNL d   1      24.671 -16.376  -1.547  0.00  0.00    -0.035 A 
ATOM     30  C   UNL d   1      24.788 -15.175  -2.451  0.00  0.00     0.050 C 
ENDBRANCH  21  23
ENDBRANCH   1  21
TORSDOF 5
ENDMDL
MODEL 4
REMARK VINA RESULT:    -8.050      3.269      9.065
REMARK INTER + INTRA:         -10.474
REMARK INTER:                  -9.542
REMARK INTRA:                  -0.933
REMARK CONF_INDEPENDENT:        1.492
REMARK UNBOUND:                -0.933
REMARK  5 active torsions:
REMARK  status: ('A' for Active; 'I' for Inactive)
REMARK    1  A    between atoms: C_5  and  N_6 
REMARK    2  A    between atoms: N_6  and  C_7 
REMARK    3  A    between atoms: C_9  and  C_10 
REMARK       I    between atoms: C_10  and  N_12 
REMARK    4  A    between atoms: N_12  and  C_13 
REMARK    5  A    between atoms: C_16  and  C_17 
REMARK       I    between atoms: C_17  and  N_18 
ROOT
ATOM      1  C   UNL d   1      28.856 -14.589   1.133  0.00  0.00     0.171 A 
ATOM      2  N   UNL d   1      27.673 -15.144   0.933  0.00  0.00    -0.218 NA
ATOM      3  C   UNL d   1      27.801 -16.332   0.219  0.00  0.00     0.134 A 
ATOM      4  C   UNL d   1      29.111 -16.663  -0.088  0.00  0.00     0.090 A 
ATOM      5  S   UNL d   1      30.186 -15.445   0.443  0.00  0.00    -0.061 SA
ENDROOT
BRANCH   3   6
ATOM      6  C   UNL d   1      26.662 -17.178  -0.177  0.00  0.00     0.275 C 
ATOM      7  O   UNL d   1      26.860 -18.350  -0.517  0.00  0.00    -0.266 OA
ATOM      8  N   UNL d   1      25.418 -16.567  -0.201  0.00  0.00    -0.322 N 
ATOM      9  H   UNL d   1      25.396 -15.560  -0.059  0.00  0.00     0.169 HD
BRANCH   8  10
ATOM     10  C   UNL d   1      24.200 -17.243  -0.472  0.00  0.00     0.035 A 
ATOM     11  C   UNL d   1      23.046 -16.510  -0.757  0.00  0.00     0.030 A 
ATOM     12  C   UNL d   1      21.800 -17.151  -0.895  0.00  0.00     0.019 A 
ATOM     13  C   UNL d   1      21.695 -18.545  -0.807  0.00  0.00     0.032 A 
ATOM     14  C   UNL d   1      22.856 -19.279  -0.532  0.00  0.00     0.019 A 
ATOM     15  C   UNL d   1      24.095 -18.635  -0.381  0.00  0.00     0.030 A 
BRANCH  13  16
ATOM     16  C   UNL d   1      20.412 -19.280  -1.035  0.00  0.00     0.249 C 
ATOM     17  N   UNL d   1      19.356 -19.033  -0.200  0.00  0.00    -0.366 N 
ATOM     18  H   UNL d   1      19.355 -18.369   0.557  0.00  0.00     0.159 HD
ATOM     19  H   UNL d   1      18.484 -19.503  -0.407  0.00  0.00     0.159 HD
ATOM     20  O   UNL d   1      20.280 -20.075  -1.963  0.00  0.00    -0.268 OA
ENDBRANCH  13  16
ENDBRANCH   8  10
ENDBRANCH   3   6
BRANCH   1  21
ATOM     21  N   UNL d   1      29.061 -13.445   1.831  0.00  0.00    -0.335 N 
ATOM     22  H   UNL d   1      29.582 -12.709   1.377  0.00  0.00     0.168 HD
BRANCH  21  23
ATOM     23  C   UNL d   1      28.929 -13.341   3.236  0.00  0.00     0.040 A 
ATOM     24  C   UNL d   1      29.695 -14.171   4.076  0.00  0.00     0.030 A 
ATOM     25  C   UNL d   1      29.567 -14.155   5.460  0.00  0.00     0.009 A 
ATOM     26  C   UNL d   1      28.658 -13.298   6.068  0.00  0.00    -0.061 A 
ATOM     27  C   UNL d   1      28.530 -13.299   7.562  0.00  0.00     0.048 C 
ATOM     28  C   UNL d   1      27.884 -12.455   5.257  0.00  0.00     0.015 A 
ATOM     29  C   UNL d   1      28.000 -12.470   3.843  0.00  0.00    -0.035 A 
ATOM     30  C   UNL d   1      27.120 -11.528   3.060  0.00  0.00     0.050 C 
ENDBRANCH  21  23
ENDBRANCH   1  21
TORSDOF 5
ENDMDL
MODEL 5
REMARK VINA RESULT:    -7.847      5.722      9.477
REMARK INTER + INTRA:         -10.316
REMARK INTER:                  -9.338
REMARK INTRA:                  -0.978
REMARK CONF_INDEPENDENT:        1.492
REMARK UNBOUND:                -0.978
REMARK  5 active torsions:
REMARK  status: ('A' for Active; 'I' for Inactive)
REMARK    1  A    between atoms: C_5  and  N_6 
REMARK    2  A    between atoms: N_6  and  C_7 
REMARK    3  A    between atoms: C_9  and  C_10 
REMARK       I    between atoms: C_10  and  N_12 
REMARK    4  A    between atoms: N_12  and  C_13 
REMARK    5  A    between atoms: C_16  and  C_17 
REMARK       I    between atoms: C_17  and  N_18 
ROOT
ATOM      1  C   UNL d   1      26.256 -15.462  -0.293  0.00  0.00     0.171 A 
ATOM      2  N   UNL d   1      25.077 -16.045  -0.429  0.00  0.00    -0.218 NA
ATOM      3  C   UNL d   1      25.162 -17.402  -0.131  0.00  0.00     0.134 A 
ATOM      4  C   UNL d   1      26.428 -17.813   0.253  0.00  0.00     0.090 A 
ATOM      5  S   UNL d   1      27.540 -16.518   0.165  0.00  0.00    -0.061 SA
ENDROOT
BRANCH   3   6
ATOM      6  C   UNL d   1      24.023 -18.331  -0.206  0.00  0.00     0.275 C 
ATOM      7  O   UNL d   1      24.215 -19.513  -0.515  0.00  0.00    -0.266 OA
ATOM      8  N   UNL d   1      22.767 -17.790   0.025  0.00  0.00    -0.322 N 
ATOM      9  H   UNL d   1      22.711 -16.778   0.112  0.00  0.00     0.169 HD
BRANCH   8  10
ATOM     10  C   UNL d   1      21.568 -18.545   0.081  0.00  0.00     0.035 A 
ATOM     11  C   UNL d   1      21.087 -18.996   1.312  0.00  0.00     0.030 A 
ATOM     12  C   UNL d   1      19.977 -19.859   1.380  0.00  0.00     0.019 A 
ATOM     13  C   UNL d   1      19.292 -20.242   0.220  0.00  0.00     0.032 A 
ATOM     14  C   UNL d   1      19.769 -19.780  -1.013  0.00  0.00     0.019 A 
ATOM     15  C   UNL d   1      20.885 -18.930  -1.079  0.00  0.00     0.030 A 
BRANCH  13  16
ATOM     16  C   UNL d   1      18.054 -21.084   0.246  0.00  0.00     0.249 C 
ATOM     17  N   UNL d   1      17.780 -21.812   1.371  0.00  0.00    -0.366 N 
ATOM     18  H   UNL d   1      18.333 -21.817   2.212  0.00  0.00     0.159 HD
ATOM     19  H   UNL d   1      16.910 -22.331   1.385  0.00  0.00     0.159 HD
ATOM     20  O   UNL d   1      17.274 -21.114  -0.703  0.00  0.00    -0.268 OA
ENDBRANCH  13  16
ENDBRANCH   8  10
ENDBRANCH   3   6
BRANCH   1  21
ATOM     21  N   UNL d   1      26.484 -14.138  -0.475  0.00  0.00    -0.335 N 
ATOM     22  H   UNL d   1      26.511 -13.552   0.347  0.00  0.00     0.168 HD
BRANCH  21  23
ATOM     23  C   UNL d   1      26.324 -13.469  -1.712  0.00  0.00     0.040 A 
ATOM     24  C   UNL d   1      25.585 -14.074  -2.745  0.00  0.00     0.030 A 
ATOM     25  C   UNL d   1      25.442 -13.493  -4.001  0.00  0.00     0.009 A 
ATOM     26  C   UNL d   1      26.037 -12.268  -4.275  0.00  0.00    -0.061 A 
ATOM     27  C   UNL d   1      25.877 -11.660  -5.637  0.00  0.00     0.048 C 
ATOM     28  C   UNL d   1      26.777 -11.638  -3.263  0.00  0.00     0.015 A 
ATOM     29  C   UNL d   1      26.936 -12.227  -1.982  0.00  0.00    -0.035 A 
ATOM     30  C   UNL d   1      27.752 -11.471  -0.963  0.00  0.00     0.050 C 
ENDBRANCH  21  23
ENDBRANCH   1  21
TORSDOF 5
ENDMDL
MODEL 6
REMARK VINA RESULT:    -7.709      6.685     10.176
REMARK INTER + INTRA:         -10.258
REMARK INTER:                  -9.201
REMARK INTRA:                  -1.057
REMARK CONF_INDEPENDENT:        1.492
REMARK UNBOUND:                -1.057
REMARK  5 active torsions:
REMARK  status: ('A' for Active; 'I' for Inactive)
REMARK    1  A    between atoms: C_5  and  N_6 
REMARK    2  A    between atoms: N_6  and  C_7 
REMARK    3  A    between atoms: C_9  and  C_10 
REMARK       I    between atoms: C_10  and  N_12 
REMARK    4  A    between atoms: N_12  and  C_13 
REMARK    5  A    between atoms: C_16  and  C_17 
REMARK       I    between atoms: C_17  and  N_18 
ROOT
ATOM      1  C   UNL d   1      25.805 -15.204  -2.376  0.00  0.00     0.171 A 
ATOM      2  N   UNL d   1      26.814 -15.644  -3.107  0.00  0.00    -0.218 NA
ATOM      3  C   UNL d   1      26.860 -14.983  -4.331  0.00  0.00     0.134 A 
ATOM      4  C   UNL d   1      25.876 -14.021  -4.485  0.00  0.00     0.090 A 
ATOM      5  S   UNL d   1      24.833 -13.996  -3.131  0.00  0.00    -0.061 SA
ENDROOT
BRANCH   3   6
ATOM      6  C   UNL d   1      27.860 -15.261  -5.376  0.00  0.00     0.275 C 
ATOM      7  O   UNL d   1      27.687 -14.825  -6.520  0.00  0.00    -0.266 OA
ATOM      8  N   UNL d   1      28.929 -16.066  -5.011  0.00  0.00    -0.322 N 
ATOM      9  H   UNL d   1      28.886 -16.499  -4.092  0.00  0.00     0.169 HD
BRANCH   8  10
ATOM     10  C   UNL d   1      30.028 -16.367  -5.856  0.00  0.00     0.035 A 
ATOM     11  C   UNL d   1      30.703 -15.336  -6.514  0.00  0.00     0.030 A 
ATOM     12  C   UNL d   1      31.706 -15.621  -7.460  0.00  0.00     0.019 A 
ATOM     13  C   UNL d   1      32.093 -16.940  -7.723  0.00  0.00     0.032 A 
ATOM     14  C   UNL d   1      31.423 -17.972  -7.054  0.00  0.00     0.019 A 
ATOM     15  C   UNL d   1      30.412 -17.686  -6.121  0.00  0.00     0.030 A 
BRANCH  13  16
ATOM     16  C   UNL d   1      33.215 -17.290  -8.651  0.00  0.00     0.249 C 
ATOM     17  N   UNL d   1      34.434 -16.701  -8.456  0.00  0.00    -0.366 N 
ATOM     18  H   UNL d   1      34.660 -16.058  -7.715  0.00  0.00     0.159 HD
ATOM     19  H   UNL d   1      35.191 -16.993  -9.063  0.00  0.00     0.159 HD
ATOM     20  O   UNL d   1      33.071 -18.105  -9.559  0.00  0.00    -0.268 OA
ENDBRANCH  13  16
ENDBRANCH   8  10
ENDBRANCH   3   6
BRANCH   1  21
ATOM     21  N   UNL d   1      25.523 -15.628  -1.119  0.00  0.00    -0.335 N 
ATOM     22  H   UNL d   1      26.216 -15.459  -0.404  0.00  0.00     0.168 HD
BRANCH  21  23
ATOM     23  C   UNL d   1      24.530 -16.587  -0.811  0.00  0.00     0.040 A 
ATOM     24  C   UNL d   1      23.181 -16.323  -1.114  0.00  0.00     0.030 A 
ATOM     25  C   UNL d   1      22.155 -17.201  -0.784  0.00  0.00     0.009 A 
ATOM     26  C   UNL d   1      22.439 -18.393  -0.130  0.00  0.00    -0.061 A 
ATOM     27  C   UNL d   1      21.318 -19.325   0.223  0.00  0.00     0.048 C 
ATOM     28  C   UNL d   1      23.775 -18.687   0.181  0.00  0.00     0.015 A 
ATOM     29  C   UNL d   1      24.829 -17.794  -0.144  0.00  0.00    -0.035 A 
ATOM     30  C   UNL d   1      26.230 -18.201   0.237  0.00  0.00     0.050 C 
ENDBRANCH  21  23
ENDBRANCH   1  21
TORSDOF 5
ENDMDL
MODEL 7
REMARK VINA RESULT:    -7.602      3.755      8.738
REMARK INTER + INTRA:         -10.194
REMARK INTER:                  -9.094
REMARK INTRA:                  -1.100
REMARK CONF_INDEPENDENT:        1.492
REMARK UNBOUND:                -1.100
REMARK  5 active torsions:
REMARK  status: ('A' for Active; 'I' for Inactive)
REMARK    1  A    between atoms: C_5  and  N_6 
REMARK    2  A    between atoms: N_6  and  C_7 
REMARK    3  A    between atoms: C_9  and  C_10 
REMARK       I    between atoms: C_10  and  N_12 
REMARK    4  A    between atoms: N_12  and  C_13 
REMARK    5  A    between atoms: C_16  and  C_17 
REMARK       I    between atoms: C_17  and  N_18 
ROOT
ATOM      1  C   UNL d   1      28.724 -13.896  -0.328  0.00  0.00     0.171 A 
ATOM      2  N   UNL d   1      27.542 -14.477  -0.217  0.00  0.00    -0.218 NA
ATOM      3  C   UNL d   1      27.241 -15.206  -1.363  0.00  0.00     0.134 A 
ATOM      4  C   UNL d   1      28.239 -15.176  -2.324  0.00  0.00     0.090 A 
ATOM      5  S   UNL d   1      29.526 -14.165  -1.831  0.00  0.00    -0.061 SA
ENDROOT
BRANCH   3   6
ATOM      6  C   UNL d   1      25.987 -15.954  -1.555  0.00  0.00     0.275 C 
ATOM      7  O   UNL d   1      25.559 -16.148  -2.699  0.00  0.00    -0.266 OA
ATOM      8  N   UNL d   1      25.320 -16.348  -0.405  0.00  0.00    -0.322 N 
ATOM      9  H   UNL d   1      25.679 -15.996   0.479  0.00  0.00     0.169 HD
BRANCH   8  10
ATOM     10  C   UNL d   1      24.149 -17.148  -0.394  0.00  0.00     0.035 A 
ATOM     11  C   UNL d   1      24.235 -18.503  -0.065  0.00  0.00     0.030 A 
ATOM     12  C   UNL d   1      23.112 -19.345  -0.179  0.00  0.00     0.019 A 
ATOM     13  C   UNL d   1      21.868 -18.835  -0.570  0.00  0.00     0.032 A 
ATOM     14  C   UNL d   1      21.781 -17.474  -0.887  0.00  0.00     0.019 A 
ATOM     15  C   UNL d   1      22.906 -16.639  -0.787  0.00  0.00     0.030 A 
BRANCH  13  16
ATOM     16  C   UNL d   1      20.625 -19.669  -0.618  0.00  0.00     0.249 C 
ATOM     17  N   UNL d   1      20.328 -20.465   0.455  0.00  0.00    -0.366 N 
ATOM     18  H   UNL d   1      20.866 -20.525   1.303  0.00  0.00     0.159 HD
ATOM     19  H   UNL d   1      19.456 -20.979   0.420  0.00  0.00     0.159 HD
ATOM     20  O   UNL d   1      19.863 -19.635  -1.581  0.00  0.00    -0.268 OA
ENDBRANCH  13  16
ENDBRANCH   8  10
ENDBRANCH   3   6
BRANCH   1  21
ATOM     21  N   UNL d   1      29.309 -13.151   0.641  0.00  0.00    -0.335 N 
ATOM     22  H   UNL d   1      30.071 -12.547   0.369  0.00  0.00     0.168 HD
BRANCH  21  23
ATOM     23  C   UNL d   1      29.188 -13.417   2.026  0.00  0.00     0.040 A 
ATOM     24  C   UNL d   1      30.247 -14.036   2.716  0.00  0.00     0.030 A 
ATOM     25  C   UNL d   1      30.165 -14.375   4.062  0.00  0.00     0.009 A 
ATOM     26  C   UNL d   1      29.008 -14.103   4.781  0.00  0.00    -0.061 A 
ATOM     27  C   UNL d   1      28.935 -14.481   6.231  0.00  0.00     0.048 C 
ATOM     28  C   UNL d   1      27.937 -13.481   4.122  0.00  0.00     0.015 A 
ATOM     29  C   UNL d   1      28.007 -13.139   2.746  0.00  0.00    -0.035 A 
ATOM     30  C   UNL d   1      26.801 -12.477   2.130  0.00  0.00     0.050 C 
ENDBRANCH  21  23
ENDBRANCH   1  21
TORSDOF 5
ENDMDL
MODEL 8
REMARK VINA RESULT:    -7.295      3.199      9.745
REMARK INTER + INTRA:          -9.441
REMARK INTER:                  -8.787
REMARK INTRA:                  -0.654
REMARK CONF_INDEPENDENT:        1.492
REMARK UNBOUND:                -0.654
REMARK  5 active torsions:
REMARK  status: ('A' for Active; 'I' for Inactive)
REMARK    1  A    between atoms: C_5  and  N_6 
REMARK    2  A    between atoms: N_6  and  C_7 
REMARK    3  A    between atoms: C_9  and  C_10 
REMARK       I    between atoms: C_10  and  N_12 
REMARK    4  A    between atoms: N_12  and  C_13 
REMARK    5  A    between atoms: C_16  and  C_17 
REMARK       I    between atoms: C_17  and  N_18 
ROOT
ATOM      1  C   UNL d   1      28.847 -14.517   5.350  0.00  0.00     0.171 A 
ATOM      2  N   UNL d   1      27.844 -14.414   4.496  0.00  0.00    -0.218 NA
ATOM      3  C   UNL d   1      28.312 -14.127   3.217  0.00  0.00     0.134 A 
ATOM      4  C   UNL d   1      29.692 -14.042   3.132  0.00  0.00     0.090 A 
ATOM      5  S   UNL d   1      30.409 -14.240   4.671  0.00  0.00    -0.061 SA
ENDROOT
BRANCH   3   6
ATOM      6  C   UNL d   1      27.439 -13.934   2.047  0.00  0.00     0.275 C 
ATOM      7  O   UNL d   1      26.460 -13.184   2.131  0.00  0.00    -0.266 OA
ATOM      8  N   UNL d   1      27.748 -14.674   0.916  0.00  0.00    -0.322 N 
ATOM      9  H   UNL d   1      28.477 -15.377   1.011  0.00  0.00     0.169 HD
BRANCH   8  10
ATOM     10  C   UNL d   1      27.075 -14.555  -0.327  0.00  0.00     0.035 A 
ATOM     11  C   UNL d   1      26.502 -15.683  -0.919  0.00  0.00     0.030 A 
ATOM     12  C   UNL d   1      25.949 -15.616  -2.212  0.00  0.00     0.019 A 
ATOM     13  C   UNL d   1      25.908 -14.405  -2.915  0.00  0.00     0.032 A 
ATOM     14  C   UNL d   1      26.473 -13.273  -2.315  0.00  0.00     0.019 A 
ATOM     15  C   UNL d   1      27.037 -13.346  -1.031  0.00  0.00     0.030 A 
BRANCH  13  16
ATOM     16  C   UNL d   1      25.251 -14.262  -4.252  0.00  0.00     0.249 C 
ATOM     17  N   UNL d   1      24.773 -13.034  -4.620  0.00  0.00    -0.366 N 
ATOM     18  H   UNL d   1      24.845 -12.192  -4.072  0.00  0.00     0.159 HD
ATOM     19  H   UNL d   1      24.381 -12.950  -5.550  0.00  0.00     0.159 HD
ATOM     20  O   UNL d   1      25.156 -15.209  -5.029  0.00  0.00    -0.268 OA
ENDBRANCH  13  16
ENDBRANCH   8  10
ENDBRANCH   3   6
BRANCH   1  21
ATOM     21  N   UNL d   1      28.712 -14.829   6.662  0.00  0.00    -0.335 N 
ATOM     22  H   UNL d   1      28.116 -15.609   6.897  0.00  0.00     0.168 HD
BRANCH  21  23
ATOM     23  C   UNL d   1      29.032 -13.948   7.722  0.00  0.00     0.040 A 
ATOM     24  C   UNL d   1      29.770 -14.416   8.825  0.00  0.00     0.030 A 
ATOM     25  C   UNL d   1      30.065 -13.614   9.922  0.00  0.00     0.009 A 
ATOM     26  C   UNL d   1      29.631 -12.295   9.959  0.00  0.00    -0.061 A 
ATOM     27  C   UNL d   1      29.953 -11.447  11.153  0.00  0.00     0.048 C 
ATOM     28  C   UNL d   1      28.897 -11.798   8.872  0.00  0.00     0.015 A 
ATOM     29  C   UNL d   1      28.582 -12.610   7.752  0.00  0.00    -0.035 A 
ATOM     30  C   UNL d   1      27.786 -11.983   6.636  0.00  0.00     0.050 C 
ENDBRANCH  21  23
ENDBRANCH   1  21
TORSDOF 5
ENDMDL
MODEL 9
REMARK VINA RESULT:    -6.893      5.198      8.703
REMARK INTER + INTRA:          -9.467
REMARK INTER:                  -8.385
REMARK INTRA:                  -1.082
REMARK CONF_INDEPENDENT:        1.492
REMARK UNBOUND:                -1.082
REMARK  5 active torsions:
REMARK  status: ('A' for Active; 'I' for Inactive)
REMARK    1  A    between atoms: C_5  and  N_6 
REMARK    2  A    between atoms: N_6  and  C_7 
REMARK    3  A    between atoms: C_9  and  C_10 
REMARK       I    between atoms: C_10  and  N_12 
REMARK    4  A    between atoms: N_12  and  C_13 
REMARK    5  A    between atoms: C_16  and  C_17 
REMARK       I    between atoms: C_17  and  N_18 
ROOT
ATOM      1  C   UNL d   1      28.961 -14.527  -1.645  0.00  0.00     0.171 A 
ATOM      2  N   UNL d   1      27.833 -15.216  -1.637  0.00  0.00    -0.218 NA
ATOM      3  C   UNL d   1      27.760 -16.031  -0.511  0.00  0.00     0.134 A 
ATOM      4  C   UNL d   1      28.852 -15.915   0.335  0.00  0.00     0.090 A 
ATOM      5  S   UNL d   1      30.015 -14.846  -0.317  0.00  0.00    -0.061 SA
ENDROOT
BRANCH   3   6
ATOM      6  C   UNL d   1      26.634 -16.934  -0.222  0.00  0.00     0.275 C 
ATOM      7  O   UNL d   1      26.776 -17.846   0.601  0.00  0.00    -0.266 OA
ATOM      8  N   UNL d   1      25.476 -16.733  -0.958  0.00  0.00    -0.322 N 
ATOM      9  H   UNL d   1      25.525 -16.059  -1.719  0.00  0.00     0.169 HD
BRANCH   8  10
ATOM     10  C   UNL d   1      24.266 -17.446  -0.757  0.00  0.00     0.035 A 
ATOM     11  C   UNL d   1      24.303 -18.817  -0.493  0.00  0.00     0.030 A 
ATOM     12  C   UNL d   1      23.115 -19.570  -0.425  0.00  0.00     0.019 A 
ATOM     13  C   UNL d   1      21.865 -18.954  -0.563  0.00  0.00     0.032 A 
ATOM     14  C   UNL d   1      21.830 -17.577  -0.816  0.00  0.00     0.019 A 
ATOM     15  C   UNL d   1      23.017 -16.831  -0.898  0.00  0.00     0.030 A 
BRANCH  13  16
ATOM     16  C   UNL d   1      20.572 -19.693  -0.409  0.00  0.00     0.249 C 
ATOM     17  N   UNL d   1      20.359 -20.409   0.738  0.00  0.00    -0.366 N 
ATOM     18  H   UNL d   1      20.995 -20.466   1.517  0.00  0.00     0.159 HD
ATOM     19  H   UNL d   1      19.456 -20.857   0.842  0.00  0.00     0.159 HD
ATOM     20  O   UNL d   1      19.697 -19.651  -1.270  0.00  0.00    -0.268 OA
ENDBRANCH  13  16
ENDBRANCH   8  10
ENDBRANCH   3   6
BRANCH   1  21
ATOM     21  N   UNL d   1      29.301 -13.619  -2.592  0.00  0.00    -0.335 N 
ATOM     22  H   UNL d   1      30.284 -13.427  -2.722  0.00  0.00     0.168 HD
BRANCH  21  23
ATOM     23  C   UNL d   1      28.403 -12.674  -3.141  0.00  0.00     0.040 A 
ATOM     24  C   UNL d   1      28.478 -11.324  -2.748  0.00  0.00     0.030 A 
ATOM     25  C   UNL d   1      27.586 -10.361  -3.208  0.00  0.00     0.009 A 
ATOM     26  C   UNL d   1      26.574 -10.713  -4.092  0.00  0.00    -0.061 A 
ATOM     27  C   UNL d   1      25.618  -9.661  -4.573  0.00  0.00     0.048 C 
ATOM     28  C   UNL d   1      26.476 -12.049  -4.506  0.00  0.00     0.015 A 
ATOM     29  C   UNL d   1      27.375 -13.042  -4.035  0.00  0.00    -0.035 A 
ATOM     30  C   UNL d   1      27.184 -14.451  -4.538  0.00  0.00     0.050 C 
ENDBRANCH  21  23
ENDBRANCH   1  21
TORSDOF 5
ENDMDL
