MODEL 1
REMARK VINA RESULT:    -8.343      0.000      0.000
REMARK INTER + INTRA:         -13.539
REMARK INTER:                 -11.625
REMARK INTRA:                  -1.914
REMARK CONF_INDEPENDENT:        3.281
REMARK UNBOUND:                -1.914
REMARK  11 active torsions:
REMARK  status: ('A' for Active; 'I' for Inactive)
REMARK    1  A    between atoms: C_2  and  C_3 
REMARK    2  A    between atoms: C_3  and  O_4 
REMARK    3  A    between atoms: O_4  and  C_5 
REMARK    4  A    between atoms: C_5  and  C_7 
REMARK    5  A    between atoms: C_7  and  C_8 
REMARK    6  A    between atoms: C_8  and  C_9 
REMARK       I    between atoms: C_9  and  N_11 
REMARK    7  A    between atoms: N_11  and  C_12 
REMARK    8  A    between atoms: C_12  and  N_14 
REMARK    9  A    between atoms: N_14  and  C_15 
REMARK   10  A    between atoms: C_18  and  C_19 
REMARK       I    between atoms: C_19  and  N_21 
REMARK   11  A    between atoms: N_21  and  C_22 
ROOT
ATOM      1  N   UNL d   1      26.966 -16.761  -0.332  0.00  0.00    -0.333 N 
ATOM      2  H   UNL d   1      27.633 -17.450  -0.005  0.00  0.00     0.168 HD
ENDROOT
BRANCH   1   3
ATOM      3  C   UNL d   1      27.311 -15.380  -0.349  0.00  0.00     0.178 C 
ATOM      4  S   UNL d   1      27.528 -14.489   1.079  0.00  0.00    -0.040 SA
BRANCH   3   5
ATOM      5  N   UNL d   1      27.503 -14.814  -1.641  0.00  0.00    -0.304 N 
ATOM      6  C   UNL d   1      27.993 -15.531  -2.753  0.00  0.00     0.224 C 
ATOM      7  O   UNL d   1      28.400 -16.692  -2.693  0.00  0.00    -0.273 OA
ATOM      8  H   UNL d   1      27.248 -13.845  -1.785  0.00  0.00     0.171 HD
BRANCH   6   9
ATOM      9  C   UNL d   1      28.072 -14.865  -4.122  0.00  0.00     0.113 C 
BRANCH   9  10
ATOM     10  C   UNL d   1      26.667 -14.941  -4.809  0.00  0.00     0.120 C 
BRANCH  10  11
ATOM     11  C   UNL d   1      25.614 -14.154  -4.070  0.00  0.00     0.259 C 
ATOM     12  O   UNL d   1      24.418 -14.449  -4.084  0.00  0.00    -0.265 OA
BRANCH  11  13
ATOM     13  O   UNL d   1      26.135 -13.087  -3.390  0.00  0.00    -0.321 OA
BRANCH  13  14
ATOM     14  C   UNL d   1      25.600 -11.811  -3.803  0.00  0.00     0.178 C 
BRANCH  14  15
ATOM     15  C   UNL d   1      26.439 -10.651  -3.260  0.00  0.00     0.022 C 
ATOM     16  C   UNL d   1      25.576  -9.434  -2.936  0.00  0.00     0.007 C 
ENDBRANCH  14  15
ENDBRANCH  13  14
ENDBRANCH  11  13
ENDBRANCH  10  11
ENDBRANCH   9  10
ENDBRANCH   6   9
ENDBRANCH   3   5
ENDBRANCH   1   3
BRANCH   1  17
ATOM     17  C   UNL d   1      25.600 -17.232  -0.439  0.00  0.00     0.034 A 
ATOM     18  C   UNL d   1      25.218 -18.541  -0.127  0.00  0.00     0.030 A 
ATOM     19  C   UNL d   1      23.853 -18.921  -0.215  0.00  0.00     0.019 A 
ATOM     20  C   UNL d   1      22.848 -17.990  -0.557  0.00  0.00     0.032 A 
ATOM     21  C   UNL d   1      23.242 -16.706  -0.903  0.00  0.00     0.019 A 
ATOM     22  C   UNL d   1      24.596 -16.357  -0.877  0.00  0.00     0.030 A 
BRANCH  20  23
ATOM     23  C   UNL d   1      21.411 -18.404  -0.508  0.00  0.00     0.252 C 
ATOM     24  O   UNL d   1      20.610 -17.782  -1.206  0.00  0.00    -0.268 OA
ATOM     25  N   UNL d   1      21.040 -19.474   0.302  0.00  0.00    -0.349 N 
ATOM     26  H   UNL d   1      21.734 -19.978   0.831  0.00  0.00     0.163 HD
BRANCH  25  27
ATOM     27  C   UNL d   1      19.652 -19.967   0.400  0.00  0.00     0.022 C 
ATOM     28  C   UNL d   1      18.952 -19.328   1.607  0.00  0.00     0.037 C 
ATOM     29  C   UNL d   1      18.882 -19.664  -0.896  0.00  0.00     0.037 C 
ATOM     30  C   UNL d   1      19.638 -21.498   0.605  0.00  0.00     0.037 C 
ENDBRANCH  25  27
ENDBRANCH  20  23
ENDBRANCH   1  17
TORSDOF 11
ENDMDL
MODEL 2
REMARK VINA RESULT:    -8.242      1.799      2.472
REMARK INTER + INTRA:         -13.055
REMARK INTER:                 -11.523
REMARK INTRA:                  -1.531
REMARK CONF_INDEPENDENT:        3.281
REMARK UNBOUND:                -1.531
REMARK  11 active torsions:
REMARK  status: ('A' for Active; 'I' for Inactive)
REMARK    1  A    between atoms: C_2  and  C_3 
REMARK    2  A    between atoms: C_3  and  O_4 
REMARK    3  A    between atoms: O_4  and  C_5 
REMARK    4  A    between atoms: C_5  and  C_7 
REMARK    5  A    between atoms: C_7  and  C_8 
REMARK    6  A    between atoms: C_8  and  C_9 
REMARK       I    between atoms: C_9  and  N_11 
REMARK    7  A    between atoms: N_11  and  C_12 
REMARK    8  A    between atoms: C_12  and  N_14 
REMARK    9  A    between atoms: N_14  and  C_15 
REMARK   10  A    between atoms: C_18  and  C_19 
REMARK       I    between atoms: C_19  and  N_21 
REMARK   11  A    between atoms: N_21  and  C_22 
ROOT
ATOM      1  N   UNL d   1      27.248 -16.832  -0.331  0.00  0.00    -0.333 N 
ATOM      2  H   UNL d   1      27.907 -17.543  -0.035  0.00  0.00     0.168 HD
ENDROOT
BRANCH   1   3
ATOM      3  C   UNL d   1      27.622 -15.459  -0.321  0.00  0.00     0.178 C 
ATOM      4  S   UNL d   1      27.294 -14.447   1.002  0.00  0.00    -0.040 SA
BRANCH   3   5
ATOM      5  N   UNL d   1      28.325 -15.007  -1.473  0.00  0.00    -0.304 N 
ATOM      6  C   UNL d   1      29.054 -15.853  -2.335  0.00  0.00     0.224 C 
ATOM      7  O   UNL d   1      29.242 -17.051  -2.120  0.00  0.00    -0.273 OA
ATOM      8  H   UNL d   1      28.279 -14.025  -1.711  0.00  0.00     0.171 HD
BRANCH   6   9
ATOM      9  C   UNL d   1      29.693 -15.293  -3.600  0.00  0.00     0.113 C 
BRANCH   9  10
ATOM     10  C   UNL d   1      29.284 -16.188  -4.818  0.00  0.00     0.120 C 
BRANCH  10  11
ATOM     11  C   UNL d   1      29.034 -15.387  -6.071  0.00  0.00     0.259 C 
ATOM     12  O   UNL d   1      29.939 -14.947  -6.782  0.00  0.00    -0.265 OA
BRANCH  11  13
ATOM     13  O   UNL d   1      27.701 -15.209  -6.325  0.00  0.00    -0.321 OA
BRANCH  13  14
ATOM     14  C   UNL d   1      27.018 -14.409  -5.335  0.00  0.00     0.178 C 
BRANCH  14  15
ATOM     15  C   UNL d   1      25.923 -15.212  -4.627  0.00  0.00     0.022 C 
ATOM     16  C   UNL d   1      25.143 -14.351  -3.637  0.00  0.00     0.007 C 
ENDBRANCH  14  15
ENDBRANCH  13  14
ENDBRANCH  11  13
ENDBRANCH  10  11
ENDBRANCH   9  10
ENDBRANCH   6   9
ENDBRANCH   3   5
ENDBRANCH   1   3
BRANCH   1  17
ATOM     17  C   UNL d   1      25.871 -17.272  -0.422  0.00  0.00     0.034 A 
ATOM     18  C   UNL d   1      25.457 -18.562  -0.073  0.00  0.00     0.030 A 
ATOM     19  C   UNL d   1      24.083 -18.910  -0.149  0.00  0.00     0.019 A 
ATOM     20  C   UNL d   1      23.100 -17.965  -0.514  0.00  0.00     0.032 A 
ATOM     21  C   UNL d   1      23.525 -16.700  -0.896  0.00  0.00     0.019 A 
ATOM     22  C   UNL d   1      24.888 -16.384  -0.882  0.00  0.00     0.030 A 
BRANCH  20  23
ATOM     23  C   UNL d   1      21.653 -18.340  -0.451  0.00  0.00     0.252 C 
ATOM     24  O   UNL d   1      20.841 -17.595  -0.999  0.00  0.00    -0.268 OA
ATOM     25  N   UNL d   1      21.285 -19.514   0.202  0.00  0.00    -0.349 N 
ATOM     26  H   UNL d   1      21.987 -20.114   0.608  0.00  0.00     0.163 HD
BRANCH  25  27
ATOM     27  C   UNL d   1      19.887 -19.977   0.298  0.00  0.00     0.022 C 
ATOM     28  C   UNL d   1      19.140 -19.665  -1.006  0.00  0.00     0.037 C 
ATOM     29  C   UNL d   1      19.840 -21.483   0.603  0.00  0.00     0.037 C 
ATOM     30  C   UNL d   1      19.155 -19.245   1.445  0.00  0.00     0.037 C 
ENDBRANCH  25  27
ENDBRANCH  20  23
ENDBRANCH   1  17
TORSDOF 11
ENDMDL
MODEL 3
REMARK VINA RESULT:    -8.193      1.454      2.442
REMARK INTER + INTRA:         -12.933
REMARK INTER:                 -11.474
REMARK INTRA:                  -1.460
REMARK CONF_INDEPENDENT:        3.281
REMARK UNBOUND:                -1.460
REMARK  11 active torsions:
REMARK  status: ('A' for Active; 'I' for Inactive)
REMARK    1  A    between atoms: C_2  and  C_3 
REMARK    2  A    between atoms: C_3  and  O_4 
REMARK    3  A    between atoms: O_4  and  C_5 
REMARK    4  A    between atoms: C_5  and  C_7 
REMARK    5  A    between atoms: C_7  and  C_8 
REMARK    6  A    between atoms: C_8  and  C_9 
REMARK       I    between atoms: C_9  and  N_11 
REMARK    7  A    between atoms: N_11  and  C_12 
REMARK    8  A    between atoms: C_12  and  N_14 
REMARK    9  A    between atoms: N_14  and  C_15 
REMARK   10  A    between atoms: C_18  and  C_19 
REMARK       I    between atoms: C_19  and  N_21 
REMARK   11  A    between atoms: N_21  and  C_22 
ROOT
ATOM      1  N   UNL d   1      27.191 -16.418  -0.568  0.00  0.00    -0.333 N 
ATOM      2  H   UNL d   1      28.018 -17.002  -0.551  0.00  0.00     0.168 HD
ENDROOT
BRANCH   1   3
ATOM      3  C   UNL d   1      27.277 -15.041  -0.217  0.00  0.00     0.178 C 
ATOM      4  S   UNL d   1      28.151 -14.512   1.139  0.00  0.00    -0.040 SA
BRANCH   3   5
ATOM      5  N   UNL d   1      26.621 -14.141  -1.103  0.00  0.00    -0.304 N 
ATOM      6  C   UNL d   1      27.268 -13.448  -2.147  0.00  0.00     0.224 C 
ATOM      7  O   UNL d   1      28.486 -13.472  -2.333  0.00  0.00    -0.273 OA
ATOM      8  H   UNL d   1      25.623 -14.006  -1.001  0.00  0.00     0.171 HD
BRANCH   6   9
ATOM      9  C   UNL d   1      26.463 -12.580  -3.107  0.00  0.00     0.113 C 
BRANCH   9  10
ATOM     10  C   UNL d   1      26.558 -13.187  -4.547  0.00  0.00     0.120 C 
BRANCH  10  11
ATOM     11  C   UNL d   1      25.913 -14.546  -4.649  0.00  0.00     0.259 C 
ATOM     12  O   UNL d   1      24.836 -14.822  -4.119  0.00  0.00    -0.265 OA
BRANCH  11  13
ATOM     13  O   UNL d   1      26.653 -15.426  -5.391  0.00  0.00    -0.321 OA
BRANCH  13  14
ATOM     14  C   UNL d   1      28.077 -15.192  -5.329  0.00  0.00     0.178 C 
BRANCH  14  15
ATOM     15  C   UNL d   1      28.642 -14.819  -6.702  0.00  0.00     0.022 C 
ATOM     16  C   UNL d   1      29.999 -14.131  -6.584  0.00  0.00     0.007 C 
ENDBRANCH  14  15
ENDBRANCH  13  14
ENDBRANCH  11  13
ENDBRANCH  10  11
ENDBRANCH   9  10
ENDBRANCH   6   9
ENDBRANCH   3   5
ENDBRANCH   1   3
BRANCH   1  17
ATOM     17  C   UNL d   1      25.934 -17.135  -0.635  0.00  0.00     0.034 A 
ATOM     18  C   UNL d   1      25.441 -17.912   0.420  0.00  0.00     0.030 A 
ATOM     19  C   UNL d   1      24.181 -18.553   0.299  0.00  0.00     0.019 A 
ATOM     20  C   UNL d   1      23.372 -18.381  -0.845  0.00  0.00     0.032 A 
ATOM     21  C   UNL d   1      23.886 -17.642  -1.901  0.00  0.00     0.019 A 
ATOM     22  C   UNL d   1      25.157 -17.068  -1.800  0.00  0.00     0.030 A 
BRANCH  20  23
ATOM     23  C   UNL d   1      21.995 -18.968  -0.871  0.00  0.00     0.252 C 
ATOM     24  O   UNL d   1      21.542 -19.323  -1.959  0.00  0.00    -0.268 OA
ATOM     25  N   UNL d   1      21.294 -19.107   0.324  0.00  0.00    -0.349 N 
ATOM     26  H   UNL d   1      21.717 -18.836   1.199  0.00  0.00     0.163 HD
BRANCH  25  27
ATOM     27  C   UNL d   1      19.941 -19.693   0.401  0.00  0.00     0.022 C 
ATOM     28  C   UNL d   1      19.278 -19.310   1.731  0.00  0.00     0.037 C 
ATOM     29  C   UNL d   1      19.085 -19.226  -0.786  0.00  0.00     0.037 C 
ATOM     30  C   UNL d   1      20.019 -21.235   0.343  0.00  0.00     0.037 C 
ENDBRANCH  25  27
ENDBRANCH  20  23
ENDBRANCH   1  17
TORSDOF 11
ENDMDL
MODEL 4
REMARK VINA RESULT:    -8.181      2.268      9.090
REMARK INTER + INTRA:         -13.051
REMARK INTER:                 -11.462
REMARK INTRA:                  -1.589
REMARK CONF_INDEPENDENT:        3.281
REMARK UNBOUND:                -1.589
REMARK  11 active torsions:
REMARK  status: ('A' for Active; 'I' for Inactive)
REMARK    1  A    between atoms: C_2  and  C_3 
REMARK    2  A    between atoms: C_3  and  O_4 
REMARK    3  A    between atoms: O_4  and  C_5 
REMARK    4  A    between atoms: C_5  and  C_7 
REMARK    5  A    between atoms: C_7  and  C_8 
REMARK    6  A    between atoms: C_8  and  C_9 
REMARK       I    between atoms: C_9  and  N_11 
REMARK    7  A    between atoms: N_11  and  C_12 
REMARK    8  A    between atoms: C_12  and  N_14 
REMARK    9  A    between atoms: N_14  and  C_15 
REMARK   10  A    between atoms: C_18  and  C_19 
REMARK       I    between atoms: C_19  and  N_21 
REMARK   11  A    between atoms: N_21  and  C_22 
ROOT
ATOM      1  N   UNL d   1      25.983 -16.691  -2.349  0.00  0.00    -0.333 N 
ATOM      2  H   UNL d   1      25.495 -17.388  -2.899  0.00  0.00     0.168 HD
ENDROOT
BRANCH   1   3
ATOM      3  C   UNL d   1      26.224 -16.910  -0.963  0.00  0.00     0.178 C 
ATOM      4  S   UNL d   1      27.778 -16.786  -0.290  0.00  0.00    -0.040 SA
BRANCH   3   5
ATOM      5  N   UNL d   1      25.072 -17.197  -0.179  0.00  0.00    -0.304 N 
ATOM      6  C   UNL d   1      23.869 -17.716  -0.702  0.00  0.00     0.224 C 
ATOM      7  O   UNL d   1      23.660 -17.877  -1.906  0.00  0.00    -0.273 OA
ATOM      8  H   UNL d   1      25.120 -17.048   0.821  0.00  0.00     0.171 HD
BRANCH   6   9
ATOM      9  C   UNL d   1      22.721 -18.084   0.230  0.00  0.00     0.113 C 
BRANCH   9  10
ATOM     10  C   UNL d   1      21.968 -19.327  -0.352  0.00  0.00     0.120 C 
BRANCH  10  11
ATOM     11  C   UNL d   1      20.616 -18.976  -0.920  0.00  0.00     0.259 C 
ATOM     12  O   UNL d   1      20.278 -17.823  -1.191  0.00  0.00    -0.265 OA
BRANCH  11  13
ATOM     13  O   UNL d   1      19.819 -20.075  -1.099  0.00  0.00    -0.321 OA
BRANCH  13  14
ATOM     14  C   UNL d   1      19.576 -20.825   0.110  0.00  0.00     0.178 C 
BRANCH  14  15
ATOM     15  C   UNL d   1      19.039 -19.926   1.227  0.00  0.00     0.022 C 
ATOM     16  C   UNL d   1      19.902 -20.011   2.483  0.00  0.00     0.007 C 
ENDBRANCH  14  15
ENDBRANCH  13  14
ENDBRANCH  11  13
ENDBRANCH  10  11
ENDBRANCH   9  10
ENDBRANCH   6   9
ENDBRANCH   3   5
ENDBRANCH   1   3
BRANCH   1  17
ATOM     17  C   UNL d   1      26.093 -15.386  -2.969  0.00  0.00     0.034 A 
ATOM     18  C   UNL d   1      25.537 -14.228  -2.416  0.00  0.00     0.030 A 
ATOM     19  C   UNL d   1      25.722 -12.977  -3.060  0.00  0.00     0.019 A 
ATOM     20  C   UNL d   1      26.509 -12.854  -4.224  0.00  0.00     0.032 A 
ATOM     21  C   UNL d   1      27.023 -14.013  -4.787  0.00  0.00     0.019 A 
ATOM     22  C   UNL d   1      26.782 -15.252  -4.183  0.00  0.00     0.030 A 
BRANCH  20  23
ATOM     23  C   UNL d   1      26.784 -11.496  -4.791  0.00  0.00     0.252 C 
ATOM     24  O   UNL d   1      27.955 -11.118  -4.835  0.00  0.00    -0.268 OA
ATOM     25  N   UNL d   1      25.721 -10.728  -5.258  0.00  0.00    -0.349 N 
ATOM     26  H   UNL d   1      24.780 -11.091  -5.236  0.00  0.00     0.163 HD
BRANCH  25  27
ATOM     27  C   UNL d   1      25.895  -9.388  -5.852  0.00  0.00     0.022 C 
ATOM     28  C   UNL d   1      26.613  -9.503  -7.204  0.00  0.00     0.037 C 
ATOM     29  C   UNL d   1      24.535  -8.693  -6.019  0.00  0.00     0.037 C 
ATOM     30  C   UNL d   1      26.764  -8.501  -4.933  0.00  0.00     0.037 C 
ENDBRANCH  25  27
ENDBRANCH  20  23
ENDBRANCH   1  17
TORSDOF 11
ENDMDL
MODEL 5
REMARK VINA RESULT:    -7.796      1.497      2.502
REMARK INTER + INTRA:         -12.878
REMARK INTER:                 -11.078
REMARK INTRA:                  -1.801
REMARK CONF_INDEPENDENT:        3.281
REMARK UNBOUND:                -1.801
REMARK  11 active torsions:
REMARK  status: ('A' for Active; 'I' for Inactive)
REMARK    1  A    between atoms: C_2  and  C_3 
REMARK    2  A    between atoms: C_3  and  O_4 
REMARK    3  A    between atoms: O_4  and  C_5 
REMARK    4  A    between atoms: C_5  and  C_7 
REMARK    5  A    between atoms: C_7  and  C_8 
REMARK    6  A    between atoms: C_8  and  C_9 
REMARK       I    between atoms: C_9  and  N_11 
REMARK    7  A    between atoms: N_11  and  C_12 
REMARK    8  A    between atoms: C_12  and  N_14 
REMARK    9  A    between atoms: N_14  and  C_15 
REMARK   10  A    between atoms: C_18  and  C_19 
REMARK       I    between atoms: C_19  and  N_21 
REMARK   11  A    between atoms: N_21  and  C_22 
ROOT
ATOM      1  N   UNL d   1      26.704 -15.918  -0.623  0.00  0.00    -0.333 N 
ATOM      2  H   UNL d   1      27.070 -15.612   0.271  0.00  0.00     0.168 HD
ENDROOT
BRANCH   1   3
ATOM      3  C   UNL d   1      27.261 -15.420  -1.835  0.00  0.00     0.178 C 
ATOM      4  S   UNL d   1      28.678 -16.069  -2.507  0.00  0.00    -0.040 SA
BRANCH   3   5
ATOM      5  N   UNL d   1      26.525 -14.376  -2.463  0.00  0.00    -0.304 N 
ATOM      6  C   UNL d   1      25.698 -14.561  -3.591  0.00  0.00     0.224 C 
ATOM      7  O   UNL d   1      25.610 -15.623  -4.208  0.00  0.00    -0.273 OA
ATOM      8  H   UNL d   1      26.570 -13.447  -2.064  0.00  0.00     0.171 HD
BRANCH   6   9
ATOM      9  C   UNL d   1      24.871 -13.402  -4.135  0.00  0.00     0.113 C 
BRANCH   9  10
ATOM     10  C   UNL d   1      25.836 -12.254  -4.585  0.00  0.00     0.120 C 
BRANCH  10  11
ATOM     11  C   UNL d   1      26.307 -11.403  -3.433  0.00  0.00     0.259 C 
ATOM     12  O   UNL d   1      27.261 -11.709  -2.716  0.00  0.00    -0.265 OA
BRANCH  11  13
ATOM     13  O   UNL d   1      25.562 -10.266  -3.278  0.00  0.00    -0.321 OA
BRANCH  13  14
ATOM     14  C   UNL d   1      25.869  -9.230  -4.236  0.00  0.00     0.178 C 
BRANCH  14  15
ATOM     15  C   UNL d   1      24.786  -8.148  -4.255  0.00  0.00     0.022 C 
ATOM     16  C   UNL d   1      23.813  -8.345  -5.414  0.00  0.00     0.007 C 
ENDBRANCH  14  15
ENDBRANCH  13  14
ENDBRANCH  11  13
ENDBRANCH  10  11
ENDBRANCH   9  10
ENDBRANCH   6   9
ENDBRANCH   3   5
ENDBRANCH   1   3
BRANCH   1  17
ATOM     17  C   UNL d   1      25.422 -16.589  -0.563  0.00  0.00     0.034 A 
ATOM     18  C   UNL d   1      24.214 -15.957  -0.877  0.00  0.00     0.030 A 
ATOM     19  C   UNL d   1      23.000 -16.690  -0.837  0.00  0.00     0.019 A 
ATOM     20  C   UNL d   1      22.979 -18.070  -0.542  0.00  0.00     0.032 A 
ATOM     21  C   UNL d   1      24.176 -18.679  -0.193  0.00  0.00     0.019 A 
ATOM     22  C   UNL d   1      25.360 -17.934  -0.172  0.00  0.00     0.030 A 
BRANCH  20  23
ATOM     23  C   UNL d   1      21.692 -18.828  -0.642  0.00  0.00     0.252 C 
ATOM     24  O   UNL d   1      21.403 -19.330  -1.728  0.00  0.00    -0.268 OA
ATOM     25  N   UNL d   1      20.890 -18.953   0.489  0.00  0.00    -0.349 N 
ATOM     26  H   UNL d   1      21.182 -18.556   1.369  0.00  0.00     0.163 HD
BRANCH  25  27
ATOM     27  C   UNL d   1      19.615 -19.698   0.494  0.00  0.00     0.022 C 
ATOM     28  C   UNL d   1      19.891 -21.208   0.484  0.00  0.00     0.037 C 
ATOM     29  C   UNL d   1      18.771 -19.310   1.718  0.00  0.00     0.037 C 
ATOM     30  C   UNL d   1      18.791 -19.362  -0.768  0.00  0.00     0.037 C 
ENDBRANCH  25  27
ENDBRANCH  20  23
ENDBRANCH   1  17
TORSDOF 11
ENDMDL
MODEL 6
REMARK VINA RESULT:    -7.782      3.024      9.685
REMARK INTER + INTRA:         -12.643
REMARK INTER:                 -11.063
REMARK INTRA:                  -1.580
REMARK CONF_INDEPENDENT:        3.281
REMARK UNBOUND:                -1.580
REMARK  11 active torsions:
REMARK  status: ('A' for Active; 'I' for Inactive)
REMARK    1  A    between atoms: C_2  and  C_3 
REMARK    2  A    between atoms: C_3  and  O_4 
REMARK    3  A    between atoms: O_4  and  C_5 
REMARK    4  A    between atoms: C_5  and  C_7 
REMARK    5  A    between atoms: C_7  and  C_8 
REMARK    6  A    between atoms: C_8  and  C_9 
REMARK       I    between atoms: C_9  and  N_11 
REMARK    7  A    between atoms: N_11  and  C_12 
REMARK    8  A    between atoms: C_12  and  N_14 
REMARK    9  A    between atoms: N_14  and  C_15 
REMARK   10  A    between atoms: C_18  and  C_19 
REMARK       I    between atoms: C_19  and  N_21 
REMARK   11  A    between atoms: N_21  and  C_22 
ROOT
ATOM      1  N   UNL d   1      25.026 -15.761  -2.699  0.00  0.00    -0.333 N 
ATOM      2  H   UNL d   1      24.015 -15.827  -2.728  0.00  0.00     0.168 HD
ENDROOT
BRANCH   1   3
ATOM      3  C   UNL d   1      25.749 -16.308  -1.602  0.00  0.00     0.178 C 
ATOM      4  S   UNL d   1      27.348 -15.850  -1.261  0.00  0.00    -0.040 SA
BRANCH   3   5
ATOM      5  N   UNL d   1      25.027 -17.227  -0.790  0.00  0.00    -0.304 N 
ATOM      6  C   UNL d   1      23.641 -17.144  -0.546  0.00  0.00     0.224 C 
ATOM      7  O   UNL d   1      22.933 -16.211  -0.926  0.00  0.00    -0.273 OA
ATOM      8  H   UNL d   1      25.528 -18.006  -0.382  0.00  0.00     0.171 HD
BRANCH   6   9
ATOM      9  C   UNL d   1      22.936 -18.231   0.258  0.00  0.00     0.113 C 
BRANCH   9  10
ATOM     10  C   UNL d   1      22.296 -19.263  -0.730  0.00  0.00     0.120 C 
BRANCH  10  11
ATOM     11  C   UNL d   1      20.856 -18.948  -1.048  0.00  0.00     0.259 C 
ATOM     12  O   UNL d   1      20.430 -17.800  -1.180  0.00  0.00    -0.265 OA
BRANCH  11  13
ATOM     13  O   UNL d   1      20.086 -20.073  -1.173  0.00  0.00    -0.321 OA
BRANCH  13  14
ATOM     14  C   UNL d   1      18.801 -19.979  -0.520  0.00  0.00     0.178 C 
BRANCH  14  15
ATOM     15  C   UNL d   1      18.814 -20.678   0.842  0.00  0.00     0.022 C 
ATOM     16  C   UNL d   1      19.862 -20.075   1.775  0.00  0.00     0.007 C 
ENDBRANCH  14  15
ENDBRANCH  13  14
ENDBRANCH  11  13
ENDBRANCH  10  11
ENDBRANCH   9  10
ENDBRANCH   6   9
ENDBRANCH   3   5
ENDBRANCH   1   3
BRANCH   1  17
ATOM     17  C   UNL d   1      25.606 -14.817  -3.632  0.00  0.00     0.034 A 
ATOM     18  C   UNL d   1      25.237 -13.468  -3.682  0.00  0.00     0.030 A 
ATOM     19  C   UNL d   1      25.879 -12.592  -4.594  0.00  0.00     0.019 A 
ATOM     20  C   UNL d   1      26.933 -13.031  -5.424  0.00  0.00     0.032 A 
ATOM     21  C   UNL d   1      27.264 -14.378  -5.396  0.00  0.00     0.019 A 
ATOM     22  C   UNL d   1      26.582 -15.249  -4.541  0.00  0.00     0.030 A 
BRANCH  20  23
ATOM     23  C   UNL d   1      27.668 -12.041  -6.273  0.00  0.00     0.252 C 
ATOM     24  O   UNL d   1      27.924 -10.941  -5.783  0.00  0.00    -0.268 OA
ATOM     25  N   UNL d   1      28.045 -12.403  -7.563  0.00  0.00    -0.349 N 
ATOM     26  H   UNL d   1      27.846 -13.328  -7.913  0.00  0.00     0.163 HD
BRANCH  25  27
ATOM     27  C   UNL d   1      28.790 -11.504  -8.467  0.00  0.00     0.022 C 
ATOM     28  C   UNL d   1      29.039 -12.201  -9.812  0.00  0.00     0.037 C 
ATOM     29  C   UNL d   1      28.020 -10.190  -8.672  0.00  0.00     0.037 C 
ATOM     30  C   UNL d   1      30.166 -11.150  -7.860  0.00  0.00     0.037 C 
ENDBRANCH  25  27
ENDBRANCH  20  23
ENDBRANCH   1  17
TORSDOF 11
ENDMDL
MODEL 7
REMARK VINA RESULT:    -7.748      1.879      3.433
REMARK INTER + INTRA:         -12.954
REMARK INTER:                 -11.029
REMARK INTRA:                  -1.925
REMARK CONF_INDEPENDENT:        3.281
REMARK UNBOUND:                -1.925
REMARK  11 active torsions:
REMARK  status: ('A' for Active; 'I' for Inactive)
REMARK    1  A    between atoms: C_2  and  C_3 
REMARK    2  A    between atoms: C_3  and  O_4 
REMARK    3  A    between atoms: O_4  and  C_5 
REMARK    4  A    between atoms: C_5  and  C_7 
REMARK    5  A    between atoms: C_7  and  C_8 
REMARK    6  A    between atoms: C_8  and  C_9 
REMARK       I    between atoms: C_9  and  N_11 
REMARK    7  A    between atoms: N_11  and  C_12 
REMARK    8  A    between atoms: C_12  and  N_14 
REMARK    9  A    between atoms: N_14  and  C_15 
REMARK   10  A    between atoms: C_18  and  C_19 
REMARK       I    between atoms: C_19  and  N_21 
REMARK   11  A    between atoms: N_21  and  C_22 
ROOT
ATOM      1  N   UNL d   1      26.921 -16.136  -0.490  0.00  0.00    -0.333 N 
ATOM      2  H   UNL d   1      27.169 -15.625   0.350  0.00  0.00     0.168 HD
ENDROOT
BRANCH   1   3
ATOM      3  C   UNL d   1      27.666 -15.951  -1.689  0.00  0.00     0.178 C 
ATOM      4  S   UNL d   1      28.982 -16.944  -2.092  0.00  0.00    -0.040 SA
BRANCH   3   5
ATOM      5  N   UNL d   1      27.205 -14.908  -2.541  0.00  0.00    -0.304 N 
ATOM      6  C   UNL d   1      26.112 -15.035  -3.424  0.00  0.00     0.224 C 
ATOM      7  O   UNL d   1      25.511 -16.092  -3.621  0.00  0.00    -0.273 OA
ATOM      8  H   UNL d   1      27.667 -14.009  -2.496  0.00  0.00     0.171 HD
BRANCH   6   9
ATOM      9  C   UNL d   1      25.629 -13.832  -4.226  0.00  0.00     0.113 C 
BRANCH   9  10
ATOM     10  C   UNL d   1      26.635 -13.561  -5.395  0.00  0.00     0.120 C 
BRANCH  10  11
ATOM     11  C   UNL d   1      28.027 -14.057  -5.092  0.00  0.00     0.259 C 
ATOM     12  O   UNL d   1      28.785 -13.495  -4.300  0.00  0.00    -0.265 OA
BRANCH  11  13
ATOM     13  O   UNL d   1      28.346 -15.191  -5.790  0.00  0.00    -0.321 OA
BRANCH  13  14
ATOM     14  C   UNL d   1      29.746 -15.539  -5.733  0.00  0.00     0.178 C 
BRANCH  14  15
ATOM     15  C   UNL d   1      30.030 -16.836  -6.495  0.00  0.00     0.022 C 
ATOM     16  C   UNL d   1      31.207 -17.599  -5.892  0.00  0.00     0.007 C 
ENDBRANCH  14  15
ENDBRANCH  13  14
ENDBRANCH  11  13
ENDBRANCH  10  11
ENDBRANCH   9  10
ENDBRANCH   6   9
ENDBRANCH   3   5
ENDBRANCH   1   3
BRANCH   1  17
ATOM     17  C   UNL d   1      25.614 -16.761  -0.464  0.00  0.00     0.034 A 
ATOM     18  C   UNL d   1      24.436 -16.082  -0.794  0.00  0.00     0.030 A 
ATOM     19  C   UNL d   1      23.196 -16.772  -0.787  0.00  0.00     0.019 A 
ATOM     20  C   UNL d   1      23.120 -18.153  -0.510  0.00  0.00     0.032 A 
ATOM     21  C   UNL d   1      24.288 -18.808  -0.145  0.00  0.00     0.019 A 
ATOM     22  C   UNL d   1      25.496 -18.107  -0.091  0.00  0.00     0.030 A 
BRANCH  20  23
ATOM     23  C   UNL d   1      21.810 -18.864  -0.645  0.00  0.00     0.252 C 
ATOM     24  O   UNL d   1      21.516 -19.325  -1.747  0.00  0.00    -0.268 OA
ATOM     25  N   UNL d   1      20.990 -18.991   0.474  0.00  0.00    -0.349 N 
ATOM     26  H   UNL d   1      21.285 -18.629   1.367  0.00  0.00     0.163 HD
BRANCH  25  27
ATOM     27  C   UNL d   1      19.691 -19.692   0.444  0.00  0.00     0.022 C 
ATOM     28  C   UNL d   1      18.834 -19.260   1.643  0.00  0.00     0.037 C 
ATOM     29  C   UNL d   1      18.957 -19.409  -0.876  0.00  0.00     0.037 C 
ATOM     30  C   UNL d   1      19.901 -21.219   0.544  0.00  0.00     0.037 C 
ENDBRANCH  25  27
ENDBRANCH  20  23
ENDBRANCH   1  17
TORSDOF 11
ENDMDL
MODEL 8
REMARK VINA RESULT:    -7.572      1.525      2.772
REMARK INTER + INTRA:         -12.948
REMARK INTER:                 -10.853
REMARK INTRA:                  -2.095
REMARK CONF_INDEPENDENT:        3.281
REMARK UNBOUND:                -2.095
REMARK  11 active torsions:
REMARK  status: ('A' for Active; 'I' for Inactive)
REMARK    1  A    between atoms: C_2  and  C_3 
REMARK    2  A    between atoms: C_3  and  O_4 
REMARK    3  A    between atoms: O_4  and  C_5 
REMARK    4  A    between atoms: C_5  and  C_7 
REMARK    5  A    between atoms: C_7  and  C_8 
REMARK    6  A    between atoms: C_8  and  C_9 
REMARK       I    between atoms: C_9  and  N_11 
REMARK    7  A    between atoms: N_11  and  C_12 
REMARK    8  A    between atoms: C_12  and  N_14 
REMARK    9  A    between atoms: N_14  and  C_15 
REMARK   10  A    between atoms: C_18  and  C_19 
REMARK       I    between atoms: C_19  and  N_21 
REMARK   11  A    between atoms: N_21  and  C_22 
ROOT
ATOM      1  N   UNL d   1      26.913 -16.238  -0.479  0.00  0.00    -0.333 N 
ATOM      2  H   UNL d   1      27.341 -16.076   0.425  0.00  0.00     0.168 HD
ENDROOT
BRANCH   1   3
ATOM      3  C   UNL d   1      27.435 -15.606  -1.643  0.00  0.00     0.178 C 
ATOM      4  S   UNL d   1      28.909 -16.081  -2.339  0.00  0.00    -0.040 SA
BRANCH   3   5
ATOM      5  N   UNL d   1      26.618 -14.585  -2.204  0.00  0.00    -0.304 N 
ATOM      6  C   UNL d   1      25.685 -14.800  -3.240  0.00  0.00     0.224 C 
ATOM      7  O   UNL d   1      25.556 -15.872  -3.833  0.00  0.00    -0.273 OA
ATOM      8  H   UNL d   1      26.684 -13.650  -1.822  0.00  0.00     0.171 HD
BRANCH   6   9
ATOM      9  C   UNL d   1      24.783 -13.665  -3.709  0.00  0.00     0.113 C 
BRANCH   9  10
ATOM     10  C   UNL d   1      25.603 -12.716  -4.647  0.00  0.00     0.120 C 
BRANCH  10  11
ATOM     11  C   UNL d   1      26.859 -12.197  -3.995  0.00  0.00     0.259 C 
ATOM     12  O   UNL d   1      26.913 -11.854  -2.813  0.00  0.00    -0.265 OA
BRANCH  11  13
ATOM     13  O   UNL d   1      27.921 -12.151  -4.858  0.00  0.00    -0.321 OA
BRANCH  13  14
ATOM     14  C   UNL d   1      27.637 -12.698  -6.164  0.00  0.00     0.178 C 
BRANCH  14  15
ATOM     15  C   UNL d   1      28.505 -13.924  -6.457  0.00  0.00     0.022 C 
ATOM     16  C   UNL d   1      28.332 -15.005  -5.394  0.00  0.00     0.007 C 
ENDBRANCH  14  15
ENDBRANCH  13  14
ENDBRANCH  11  13
ENDBRANCH  10  11
ENDBRANCH   9  10
ENDBRANCH   6   9
ENDBRANCH   3   5
ENDBRANCH   1   3
BRANCH   1  17
ATOM     17  C   UNL d   1      25.599 -16.846  -0.436  0.00  0.00     0.034 A 
ATOM     18  C   UNL d   1      24.422 -16.140  -0.705  0.00  0.00     0.030 A 
ATOM     19  C   UNL d   1      23.172 -16.812  -0.685  0.00  0.00     0.019 A 
ATOM     20  C   UNL d   1      23.084 -18.202  -0.457  0.00  0.00     0.032 A 
ATOM     21  C   UNL d   1      24.253 -18.886  -0.152  0.00  0.00     0.019 A 
ATOM     22  C   UNL d   1      25.473 -18.204  -0.109  0.00  0.00     0.030 A 
BRANCH  20  23
ATOM     23  C   UNL d   1      21.760 -18.889  -0.577  0.00  0.00     0.252 C 
ATOM     24  O   UNL d   1      21.438 -19.328  -1.682  0.00  0.00    -0.268 OA
ATOM     25  N   UNL d   1      20.960 -19.022   0.554  0.00  0.00    -0.349 N 
ATOM     26  H   UNL d   1      21.278 -18.679   1.448  0.00  0.00     0.163 HD
BRANCH  25  27
ATOM     27  C   UNL d   1      19.650 -19.701   0.539  0.00  0.00     0.022 C 
ATOM     28  C   UNL d   1      19.847 -21.223   0.567  0.00  0.00     0.037 C 
ATOM     29  C   UNL d   1      18.793 -19.245   1.731  0.00  0.00     0.037 C 
ATOM     30  C   UNL d   1      18.877 -19.352  -0.753  0.00  0.00     0.037 C 
ENDBRANCH  25  27
ENDBRANCH  20  23
ENDBRANCH   1  17
TORSDOF 11
ENDMDL
MODEL 9
REMARK VINA RESULT:    -7.505      6.367      9.384
REMARK INTER + INTRA:         -12.920
REMARK INTER:                 -10.787
REMARK INTRA:                  -2.134
REMARK CONF_INDEPENDENT:        3.281
REMARK UNBOUND:                -2.134
REMARK  11 active torsions:
REMARK  status: ('A' for Active; 'I' for Inactive)
REMARK    1  A    between atoms: C_2  and  C_3 
REMARK    2  A    between atoms: C_3  and  O_4 
REMARK    3  A    between atoms: O_4  and  C_5 
REMARK    4  A    between atoms: C_5  and  C_7 
REMARK    5  A    between atoms: C_7  and  C_8 
REMARK    6  A    between atoms: C_8  and  C_9 
REMARK       I    between atoms: C_9  and  N_11 
REMARK    7  A    between atoms: N_11  and  C_12 
REMARK    8  A    between atoms: C_12  and  N_14 
REMARK    9  A    between atoms: N_14  and  C_15 
REMARK   10  A    between atoms: C_18  and  C_19 
REMARK       I    between atoms: C_19  and  N_21 
REMARK   11  A    between atoms: N_21  and  C_22 
ROOT
ATOM      1  N   UNL d   1      28.296 -14.828   2.340  0.00  0.00    -0.333 N 
ATOM      2  H   UNL d   1      29.090 -15.371   2.023  0.00  0.00     0.168 HD
ENDROOT
BRANCH   1   3
ATOM      3  C   UNL d   1      27.353 -14.321   1.402  0.00  0.00     0.178 C 
ATOM      4  S   UNL d   1      26.935 -12.677   1.345  0.00  0.00    -0.040 SA
BRANCH   3   5
ATOM      5  N   UNL d   1      26.822 -15.277   0.491  0.00  0.00    -0.304 N 
ATOM      6  C   UNL d   1      27.542 -16.386   0.001  0.00  0.00     0.224 C 
ATOM      7  O   UNL d   1      28.736 -16.582   0.230  0.00  0.00    -0.273 OA
ATOM      8  H   UNL d   1      25.859 -15.178   0.195  0.00  0.00     0.171 HD
BRANCH   6   9
ATOM      9  C   UNL d   1      26.858 -17.412  -0.895  0.00  0.00     0.113 C 
BRANCH   9  10
ATOM     10  C   UNL d   1      25.674 -18.069  -0.108  0.00  0.00     0.120 C 
BRANCH  10  11
ATOM     11  C   UNL d   1      24.335 -17.478  -0.470  0.00  0.00     0.259 C 
ATOM     12  O   UNL d   1      24.102 -16.269  -0.443  0.00  0.00    -0.265 OA
BRANCH  11  13
ATOM     13  O   UNL d   1      23.419 -18.430  -0.828  0.00  0.00    -0.321 OA
BRANCH  13  14
ATOM     14  C   UNL d   1      22.155 -18.315  -0.139  0.00  0.00     0.178 C 
BRANCH  14  15
ATOM     15  C   UNL d   1      21.021 -18.955  -0.944  0.00  0.00     0.022 C 
ATOM     16  C   UNL d   1      20.070 -19.745  -0.048  0.00  0.00     0.007 C 
ENDBRANCH  14  15
ENDBRANCH  13  14
ENDBRANCH  11  13
ENDBRANCH  10  11
ENDBRANCH   9  10
ENDBRANCH   6   9
ENDBRANCH   3   5
ENDBRANCH   1   3
BRANCH   1  17
ATOM     17  C   UNL d   1      28.387 -14.345   3.703  0.00  0.00     0.034 A 
ATOM     18  C   UNL d   1      27.319 -13.733   4.369  0.00  0.00     0.030 A 
ATOM     19  C   UNL d   1      27.468 -13.323   5.719  0.00  0.00     0.019 A 
ATOM     20  C   UNL d   1      28.657 -13.568   6.439  0.00  0.00     0.032 A 
ATOM     21  C   UNL d   1      29.723 -14.140   5.759  0.00  0.00     0.019 A 
ATOM     22  C   UNL d   1      29.590 -14.482   4.409  0.00  0.00     0.030 A 
BRANCH  20  23
ATOM     23  C   UNL d   1      28.720 -13.237   7.897  0.00  0.00     0.252 C 
ATOM     24  O   UNL d   1      28.400 -12.100   8.243  0.00  0.00    -0.268 OA
ATOM     25  N   UNL d   1      29.116 -14.221   8.799  0.00  0.00    -0.349 N 
ATOM     26  H   UNL d   1      29.336 -15.151   8.477  0.00  0.00     0.163 HD
BRANCH  25  27
ATOM     27  C   UNL d   1      29.189 -13.995  10.256  0.00  0.00     0.022 C 
ATOM     28  C   UNL d   1      30.050 -12.760  10.554  0.00  0.00     0.037 C 
ATOM     29  C   UNL d   1      27.780 -13.828  10.846  0.00  0.00     0.037 C 
ATOM     30  C   UNL d   1      29.847 -15.206  10.956  0.00  0.00     0.037 C 
ENDBRANCH  25  27
ENDBRANCH  20  23
ENDBRANCH   1  17
TORSDOF 11
ENDMDL
