MODEL 1
REMARK VINA RESULT:    -8.284      0.000      0.000
REMARK INTER + INTRA:         -15.091
REMARK INTER:                 -11.863
REMARK INTRA:                  -3.227
REMARK CONF_INDEPENDENT:        3.580
REMARK UNBOUND:                -3.227
REMARK  12 active torsions:
REMARK  status: ('A' for Active; 'I' for Inactive)
REMARK    1  A    between atoms: C_2  and  N_3 
REMARK    2  A    between atoms: C_5  and  C_6 
REMARK    3  A    between atoms: C_7  and  N_8 
REMARK    4  A    between atoms: C_7  and  C_23 
REMARK       I    between atoms: N_8  and  C_9 
REMARK    5  A    between atoms: C_9  and  C_11 
REMARK    6  A    between atoms: C_13  and  O_14 
REMARK    7  A    between atoms: C_16  and  O_17 
REMARK    8  A    between atoms: C_19  and  O_20 
REMARK       I    between atoms: C_23  and  N_25 
REMARK    9  A    between atoms: N_25  and  C_26 
REMARK   10  A    between atoms: C_26  and  C_27 
REMARK   11  A    between atoms: C_27  and  C_28 
REMARK   12  A    between atoms: C_28  and  O_29 
ROOT
ATOM      1  C   UNL d   1      25.266 -17.209  -0.043  0.00  0.00     0.043 C 
ATOM      2  C   UNL d   1      24.230 -16.919  -0.909  0.00  0.00     0.084 C 
ENDROOT
BRANCH   2   3
ATOM      3  N   UNL d   1      24.366 -16.239  -2.138  0.00  0.00    -0.220 NA
ATOM      4  C   UNL d   1      25.294 -15.229  -2.214  0.00  0.00     0.235 C 
ATOM      5  O   UNL d   1      25.530 -14.522  -1.253  0.00  0.00    -0.274 OA
ATOM      6  H   UNL d   1      23.511 -15.932  -2.574  0.00  0.00     0.137 HD
BRANCH   4   7
ATOM      7  C   UNL d   1      25.822 -14.743  -3.510  0.00  0.00     0.032 C 
ATOM      8  C   UNL d   1      26.699 -15.335  -4.450  0.00  0.00     0.056 C 
ATOM      9  C   UNL d   1      27.361 -14.526  -5.402  0.00  0.00     0.105 C 
ATOM     10  C   UNL d   1      27.116 -13.134  -5.394  0.00  0.00     0.135 C 
ATOM     11  C   UNL d   1      26.344 -12.566  -4.366  0.00  0.00     0.105 C 
ATOM     12  C   UNL d   1      25.764 -13.376  -3.426  0.00  0.00     0.056 C 
BRANCH   9  13
ATOM     13  O   UNL d   1      28.217 -15.200  -6.255  0.00  0.00    -0.353 OA
ATOM     14  C   UNL d   1      29.524 -15.525  -5.760  0.00  0.00     0.210 C 
ENDBRANCH   9  13
BRANCH  10  15
ATOM     15  O   UNL d   1      27.660 -12.407  -6.415  0.00  0.00    -0.351 OA
ATOM     16  C   UNL d   1      29.056 -12.196  -6.436  0.00  0.00     0.210 C 
ENDBRANCH  10  15
BRANCH  11  17
ATOM     17  O   UNL d   1      26.160 -11.219  -4.293  0.00  0.00    -0.353 OA
ATOM     18  C   UNL d   1      26.774 -10.519  -3.220  0.00  0.00     0.210 C 
ENDBRANCH  11  17
ENDBRANCH   4   7
ENDBRANCH   2   3
BRANCH   2  19
ATOM     19  C   UNL d   1      22.776 -17.354  -0.518  0.00  0.00     0.263 C 
ATOM     20  O   UNL d   1      21.781 -16.738  -0.892  0.00  0.00    -0.267 OA
ATOM     21  N   UNL d   1      22.666 -18.482   0.291  0.00  0.00    -0.356 N 
ATOM     22  H   UNL d   1      23.466 -18.991   0.603  0.00  0.00     0.162 HD
BRANCH  21  23
ATOM     23  C   UNL d   1      21.405 -18.950   0.858  0.00  0.00     0.125 C 
BRANCH  23  24
ATOM     24  C   UNL d   1      20.737 -19.987  -0.050  0.00  0.00     0.046 C 
BRANCH  24  25
ATOM     25  C   UNL d   1      20.102 -19.325  -1.263  0.00  0.00     0.165 C 
BRANCH  25  26
ATOM     26  O   UNL d   1      19.536 -18.074  -0.895  0.00  0.00    -0.401 OA
ATOM     27  H   UNL d   1      19.847 -17.405  -1.529  0.00  0.00     0.209 HD
ENDBRANCH  25  26
ENDBRANCH  24  25
ENDBRANCH  23  24
ENDBRANCH  21  23
ENDBRANCH   2  19
BRANCH   1  28
ATOM     28  C   UNL d   1      26.731 -16.910  -0.041  0.00  0.00    -0.006 C 
ATOM     29  C   UNL d   1      27.742 -17.697  -0.520  0.00  0.00     0.103 C 
ATOM     30  N   UNL d   1      28.938 -17.071  -0.647  0.00  0.00    -0.356 N 
ATOM     31  C   UNL d   1      28.866 -15.938   0.093  0.00  0.00     0.045 A 
ATOM     32  C   UNL d   1      29.898 -15.072   0.452  0.00  0.00     0.030 A 
ATOM     33  C   UNL d   1      27.498 -15.772   0.452  0.00  0.00     0.002 A 
ATOM     34  C   UNL d   1      29.553 -13.974   1.221  0.00  0.00     0.002 A 
ATOM     35  C   UNL d   1      28.223 -13.746   1.579  0.00  0.00     0.001 A 
ATOM     36  C   UNL d   1      27.187 -14.615   1.191  0.00  0.00     0.014 A 
BRANCH  30  37
ATOM     37  C   UNL d   1      30.022 -17.641  -1.436  0.00  0.00     0.124 C 
ATOM     38  C   UNL d   1      29.909 -17.317  -2.912  0.00  0.00     0.027 C 
ENDBRANCH  30  37
ENDBRANCH   1  28
TORSDOF 12
ENDMDL
MODEL 2
REMARK VINA RESULT:    -7.958      2.857      6.724
REMARK INTER + INTRA:         -14.792
REMARK INTER:                 -11.537
REMARK INTRA:                  -3.255
REMARK CONF_INDEPENDENT:        3.580
REMARK UNBOUND:                -3.255
REMARK  12 active torsions:
REMARK  status: ('A' for Active; 'I' for Inactive)
REMARK    1  A    between atoms: C_2  and  N_3 
REMARK    2  A    between atoms: C_5  and  C_6 
REMARK    3  A    between atoms: C_7  and  N_8 
REMARK    4  A    between atoms: C_7  and  C_23 
REMARK       I    between atoms: N_8  and  C_9 
REMARK    5  A    between atoms: C_9  and  C_11 
REMARK    6  A    between atoms: C_13  and  O_14 
REMARK    7  A    between atoms: C_16  and  O_17 
REMARK    8  A    between atoms: C_19  and  O_20 
REMARK       I    between atoms: C_23  and  N_25 
REMARK    9  A    between atoms: N_25  and  C_26 
REMARK   10  A    between atoms: C_26  and  C_27 
REMARK   11  A    between atoms: C_27  and  C_28 
REMARK   12  A    between atoms: C_28  and  O_29 
ROOT
ATOM      1  C   UNL d   1      25.412 -14.300  -2.651  0.00  0.00     0.043 C 
ATOM      2  C   UNL d   1      26.482 -13.911  -3.434  0.00  0.00     0.084 C 
ENDROOT
BRANCH   2   3
ATOM      3  N   UNL d   1      27.618 -14.702  -3.706  0.00  0.00    -0.220 NA
ATOM      4  C   UNL d   1      27.862 -15.048  -5.014  0.00  0.00     0.235 C 
ATOM      5  O   UNL d   1      26.947 -15.253  -5.787  0.00  0.00    -0.274 OA
ATOM      6  H   UNL d   1      27.747 -15.513  -3.123  0.00  0.00     0.137 HD
BRANCH   4   7
ATOM      7  C   UNL d   1      29.200 -15.491  -5.473  0.00  0.00     0.032 C 
ATOM      8  C   UNL d   1      29.967 -15.141  -6.609  0.00  0.00     0.056 C 
ATOM      9  C   UNL d   1      31.021 -15.983  -7.033  0.00  0.00     0.105 C 
ATOM     10  C   UNL d   1      31.287 -17.158  -6.294  0.00  0.00     0.135 C 
ATOM     11  C   UNL d   1      30.424 -17.539  -5.252  0.00  0.00     0.105 C 
ATOM     12  C   UNL d   1      29.377 -16.726  -4.906  0.00  0.00     0.056 C 
BRANCH   9  13
ATOM     13  O   UNL d   1      31.689 -15.563  -8.170  0.00  0.00    -0.353 OA
ATOM     14  C   UNL d   1      32.509 -14.391  -8.061  0.00  0.00     0.210 C 
ENDBRANCH   9  13
BRANCH  10  15
ATOM     15  O   UNL d   1      32.399 -17.868  -6.646  0.00  0.00    -0.351 OA
ATOM     16  C   UNL d   1      32.511 -18.351  -7.969  0.00  0.00     0.210 C 
ENDBRANCH  10  15
BRANCH  11  17
ATOM     17  O   UNL d   1      30.615 -18.706  -4.578  0.00  0.00    -0.353 OA
ATOM     18  C   UNL d   1      30.605 -19.916  -5.322  0.00  0.00     0.210 C 
ENDBRANCH  11  17
ENDBRANCH   4   7
ENDBRANCH   2   3
BRANCH   2  19
ATOM     19  C   UNL d   1      26.469 -12.480  -4.072  0.00  0.00     0.263 C 
ATOM     20  O   UNL d   1      25.992 -11.505  -3.496  0.00  0.00    -0.267 OA
ATOM     21  N   UNL d   1      27.024 -12.367  -5.345  0.00  0.00    -0.356 N 
ATOM     22  H   UNL d   1      27.415 -13.150  -5.824  0.00  0.00     0.162 HD
BRANCH  21  23
ATOM     23  C   UNL d   1      26.979 -11.144  -6.140  0.00  0.00     0.125 C 
BRANCH  23  24
ATOM     24  C   UNL d   1      25.536 -10.705  -6.405  0.00  0.00     0.046 C 
BRANCH  24  25
ATOM     25  C   UNL d   1      25.277  -9.312  -5.853  0.00  0.00     0.165 C 
BRANCH  25  26
ATOM     26  O   UNL d   1      24.774  -9.398  -4.527  0.00  0.00    -0.401 OA
ATOM     27  H   UNL d   1      24.782 -10.334  -4.262  0.00  0.00     0.209 HD
ENDBRANCH  25  26
ENDBRANCH  24  25
ENDBRANCH  23  24
ENDBRANCH  21  23
ENDBRANCH   2  19
BRANCH   1  28
ATOM     28  C   UNL d   1      25.105 -15.524  -1.849  0.00  0.00    -0.006 C 
ATOM     29  C   UNL d   1      23.881 -16.099  -1.644  0.00  0.00     0.103 C 
ATOM     30  N   UNL d   1      23.920 -17.346  -1.115  0.00  0.00    -0.356 N 
ATOM     31  C   UNL d   1      25.162 -17.512  -0.598  0.00  0.00     0.045 A 
ATOM     32  C   UNL d   1      25.625 -18.533   0.230  0.00  0.00     0.030 A 
ATOM     33  C   UNL d   1      25.949 -16.423  -1.070  0.00  0.00     0.002 A 
ATOM     34  C   UNL d   1      26.951 -18.467   0.621  0.00  0.00     0.002 A 
ATOM     35  C   UNL d   1      27.777 -17.437   0.167  0.00  0.00     0.001 A 
ATOM     36  C   UNL d   1      27.304 -16.425  -0.689  0.00  0.00     0.014 A 
BRANCH  30  37
ATOM     37  C   UNL d   1      22.759 -18.227  -1.138  0.00  0.00     0.124 C 
ATOM     38  C   UNL d   1      22.249 -18.566   0.248  0.00  0.00     0.027 C 
ENDBRANCH  30  37
ENDBRANCH   1  28
TORSDOF 12
ENDMDL
MODEL 3
REMARK VINA RESULT:    -7.018      3.741      8.424
REMARK INTER + INTRA:         -14.886
REMARK INTER:                 -10.597
REMARK INTRA:                  -4.289
REMARK CONF_INDEPENDENT:        3.580
REMARK UNBOUND:                -4.289
REMARK  12 active torsions:
REMARK  status: ('A' for Active; 'I' for Inactive)
REMARK    1  A    between atoms: C_2  and  N_3 
REMARK    2  A    between atoms: C_5  and  C_6 
REMARK    3  A    between atoms: C_7  and  N_8 
REMARK    4  A    between atoms: C_7  and  C_23 
REMARK       I    between atoms: N_8  and  C_9 
REMARK    5  A    between atoms: C_9  and  C_11 
REMARK    6  A    between atoms: C_13  and  O_14 
REMARK    7  A    between atoms: C_16  and  O_17 
REMARK    8  A    between atoms: C_19  and  O_20 
REMARK       I    between atoms: C_23  and  N_25 
REMARK    9  A    between atoms: N_25  and  C_26 
REMARK   10  A    between atoms: C_26  and  C_27 
REMARK   11  A    between atoms: C_27  and  C_28 
REMARK   12  A    between atoms: C_28  and  O_29 
ROOT
ATOM      1  C   UNL d   1      28.177 -16.827  -1.138  0.00  0.00     0.043 C 
ATOM      2  C   UNL d   1      29.155 -16.523  -0.211  0.00  0.00     0.084 C 
ENDROOT
BRANCH   2   3
ATOM      3  N   UNL d   1      28.961 -15.743   0.948  0.00  0.00    -0.220 NA
ATOM      4  C   UNL d   1      28.877 -14.379   0.799  0.00  0.00     0.235 C 
ATOM      5  O   UNL d   1      29.520 -13.803  -0.057  0.00  0.00    -0.274 OA
ATOM      6  H   UNL d   1      29.560 -15.950   1.730  0.00  0.00     0.137 HD
BRANCH   4   7
ATOM      7  C   UNL d   1      28.266 -13.512   1.833  0.00  0.00     0.032 C 
ATOM      8  C   UNL d   1      28.078 -12.111   1.893  0.00  0.00     0.056 C 
ATOM      9  C   UNL d   1      27.838 -11.486   3.139  0.00  0.00     0.105 C 
ATOM     10  C   UNL d   1      27.781 -12.291   4.300  0.00  0.00     0.135 C 
ATOM     11  C   UNL d   1      28.102 -13.656   4.219  0.00  0.00     0.105 C 
ATOM     12  C   UNL d   1      28.386 -14.217   3.002  0.00  0.00     0.056 C 
BRANCH   9  13
ATOM     13  O   UNL d   1      27.696 -10.111   3.091  0.00  0.00    -0.353 OA
ATOM     14  C   UNL d   1      26.375  -9.575   3.250  0.00  0.00     0.210 C 
ENDBRANCH   9  13
BRANCH  10  15
ATOM     15  O   UNL d   1      27.406 -11.674   5.459  0.00  0.00    -0.351 OA
ATOM     16  C   UNL d   1      28.255 -11.760   6.585  0.00  0.00     0.210 C 
ENDBRANCH  10  15
BRANCH  11  17
ATOM     17  O   UNL d   1      28.131 -14.435   5.336  0.00  0.00    -0.353 OA
ATOM     18  C   UNL d   1      29.399 -14.825   5.844  0.00  0.00     0.210 C 
ENDBRANCH  11  17
ENDBRANCH   4   7
ENDBRANCH   2   3
BRANCH   2  19
ATOM     19  C   UNL d   1      30.609 -17.059  -0.446  0.00  0.00     0.263 C 
ATOM     20  O   UNL d   1      30.834 -18.174  -0.911  0.00  0.00    -0.267 OA
ATOM     21  N   UNL d   1      31.647 -16.201  -0.090  0.00  0.00    -0.356 N 
ATOM     22  H   UNL d   1      31.479 -15.293   0.290  0.00  0.00     0.162 HD
BRANCH  21  23
ATOM     23  C   UNL d   1      33.056 -16.583  -0.115  0.00  0.00     0.125 C 
BRANCH  23  24
ATOM     24  C   UNL d   1      33.685 -16.486   1.278  0.00  0.00     0.046 C 
BRANCH  24  25
ATOM     25  C   UNL d   1      32.657 -16.770   2.363  0.00  0.00     0.165 C 
BRANCH  25  26
ATOM     26  O   UNL d   1      31.661 -15.756   2.369  0.00  0.00    -0.401 OA
ATOM     27  H   UNL d   1      30.839 -16.140   2.016  0.00  0.00     0.209 HD
ENDBRANCH  25  26
ENDBRANCH  24  25
ENDBRANCH  23  24
ENDBRANCH  21  23
ENDBRANCH   2  19
BRANCH   1  28
ATOM     28  C   UNL d   1      26.736 -16.456  -1.285  0.00  0.00    -0.006 C 
ATOM     29  C   UNL d   1      26.221 -15.338  -1.883  0.00  0.00     0.103 C 
ATOM     30  N   UNL d   1      24.888 -15.385  -2.123  0.00  0.00    -0.356 N 
ATOM     31  C   UNL d   1      24.389 -16.385  -1.358  0.00  0.00     0.045 A 
ATOM     32  C   UNL d   1      23.054 -16.688  -1.093  0.00  0.00     0.030 A 
ATOM     33  C   UNL d   1      25.506 -17.110  -0.854  0.00  0.00     0.002 A 
ATOM     34  C   UNL d   1      22.811 -17.775  -0.271  0.00  0.00     0.002 A 
ATOM     35  C   UNL d   1      23.867 -18.539   0.230  0.00  0.00     0.001 A 
ATOM     36  C   UNL d   1      25.210 -18.237  -0.064  0.00  0.00     0.014 A 
BRANCH  30  37
ATOM     37  C   UNL d   1      24.240 -14.450  -3.033  0.00  0.00     0.124 C 
ATOM     38  C   UNL d   1      25.214 -13.493  -3.689  0.00  0.00     0.027 C 
ENDBRANCH  30  37
ENDBRANCH   1  28
TORSDOF 12
ENDMDL
MODEL 4
REMARK VINA RESULT:    -6.580      2.883      7.076
REMARK INTER + INTRA:         -15.434
REMARK INTER:                 -10.160
REMARK INTRA:                  -5.275
REMARK CONF_INDEPENDENT:        3.580
REMARK UNBOUND:                -5.275
REMARK  12 active torsions:
REMARK  status: ('A' for Active; 'I' for Inactive)
REMARK    1  A    between atoms: C_2  and  N_3 
REMARK    2  A    between atoms: C_5  and  C_6 
REMARK    3  A    between atoms: C_7  and  N_8 
REMARK    4  A    between atoms: C_7  and  C_23 
REMARK       I    between atoms: N_8  and  C_9 
REMARK    5  A    between atoms: C_9  and  C_11 
REMARK    6  A    between atoms: C_13  and  O_14 
REMARK    7  A    between atoms: C_16  and  O_17 
REMARK    8  A    between atoms: C_19  and  O_20 
REMARK       I    between atoms: C_23  and  N_25 
REMARK    9  A    between atoms: N_25  and  C_26 
REMARK   10  A    between atoms: C_26  and  C_27 
REMARK   11  A    between atoms: C_27  and  C_28 
REMARK   12  A    between atoms: C_28  and  O_29 
ROOT
ATOM      1  C   UNL d   1      25.344 -14.595  -3.064  0.00  0.00     0.043 C 
ATOM      2  C   UNL d   1      26.217 -14.543  -4.133  0.00  0.00     0.084 C 
ENDROOT
BRANCH   2   3
ATOM      3  N   UNL d   1      27.101 -15.575  -4.511  0.00  0.00    -0.220 NA
ATOM      4  C   UNL d   1      28.398 -15.508  -4.060  0.00  0.00     0.235 C 
ATOM      5  O   UNL d   1      28.955 -14.437  -3.916  0.00  0.00    -0.274 OA
ATOM      6  H   UNL d   1      27.106 -15.823  -5.487  0.00  0.00     0.137 HD
BRANCH   4   7
ATOM      7  C   UNL d   1      29.280 -16.698  -4.023  0.00  0.00     0.032 C 
ATOM      8  C   UNL d   1      30.036 -17.275  -2.977  0.00  0.00     0.056 C 
ATOM      9  C   UNL d   1      31.097 -18.159  -3.281  0.00  0.00     0.105 C 
ATOM     10  C   UNL d   1      31.367 -18.453  -4.637  0.00  0.00     0.135 C 
ATOM     11  C   UNL d   1      30.681 -17.762  -5.650  0.00  0.00     0.105 C 
ATOM     12  C   UNL d   1      29.698 -16.867  -5.318  0.00  0.00     0.056 C 
BRANCH   9  13
ATOM     13  O   UNL d   1      31.791 -18.646  -2.186  0.00  0.00    -0.353 OA
ATOM     14  C   UNL d   1      31.343 -18.240  -0.885  0.00  0.00     0.210 C 
ENDBRANCH   9  13
BRANCH  10  15
ATOM     15  O   UNL d   1      32.300 -19.418  -4.884  0.00  0.00    -0.351 OA
ATOM     16  C   UNL d   1      32.030 -20.748  -4.492  0.00  0.00     0.210 C 
ENDBRANCH  10  15
BRANCH  11  17
ATOM     17  O   UNL d   1      30.979 -17.970  -6.963  0.00  0.00    -0.353 OA
ATOM     18  C   UNL d   1      30.780 -19.273  -7.493  0.00  0.00     0.210 C 
ENDBRANCH  11  17
ENDBRANCH   4   7
ENDBRANCH   2   3
BRANCH   2  19
ATOM     19  C   UNL d   1      26.263 -13.242  -5.005  0.00  0.00     0.263 C 
ATOM     20  O   UNL d   1      25.252 -12.613  -5.307  0.00  0.00    -0.267 OA
ATOM     21  N   UNL d   1      27.524 -12.832  -5.434  0.00  0.00    -0.356 N 
ATOM     22  H   UNL d   1      28.354 -13.333  -5.197  0.00  0.00     0.162 HD
BRANCH  21  23
ATOM     23  C   UNL d   1      27.742 -11.724  -6.359  0.00  0.00     0.125 C 
BRANCH  23  24
ATOM     24  C   UNL d   1      28.308 -12.215  -7.694  0.00  0.00     0.046 C 
BRANCH  24  25
ATOM     25  C   UNL d   1      29.061 -13.526  -7.520  0.00  0.00     0.165 C 
BRANCH  25  26
ATOM     26  O   UNL d   1      28.192 -14.523  -7.001  0.00  0.00    -0.401 OA
ATOM     27  H   UNL d   1      28.345 -14.587  -6.042  0.00  0.00     0.209 HD
ENDBRANCH  25  26
ENDBRANCH  24  25
ENDBRANCH  23  24
ENDBRANCH  21  23
ENDBRANCH   2  19
BRANCH   1  28
ATOM     28  C   UNL d   1      25.068 -15.608  -1.999  0.00  0.00    -0.006 C 
ATOM     29  C   UNL d   1      23.854 -15.950  -1.470  0.00  0.00     0.103 C 
ATOM     30  N   UNL d   1      23.857 -17.083  -0.726  0.00  0.00    -0.356 N 
ATOM     31  C   UNL d   1      25.150 -17.346  -0.420  0.00  0.00     0.045 A 
ATOM     32  C   UNL d   1      25.653 -18.273   0.492  0.00  0.00     0.030 A 
ATOM     33  C   UNL d   1      25.944 -16.482  -1.227  0.00  0.00     0.002 A 
ATOM     34  C   UNL d   1      27.030 -18.344   0.617  0.00  0.00     0.002 A 
ATOM     35  C   UNL d   1      27.858 -17.540  -0.169  0.00  0.00     0.001 A 
ATOM     36  C   UNL d   1      27.339 -16.624  -1.104  0.00  0.00     0.014 A 
BRANCH  30  37
ATOM     37  C   UNL d   1      22.622 -17.770  -0.369  0.00  0.00     0.124 C 
ATOM     38  C   UNL d   1      22.322 -18.950  -1.271  0.00  0.00     0.027 C 
ENDBRANCH  30  37
ENDBRANCH   1  28
TORSDOF 12
ENDMDL
MODEL 5
REMARK VINA RESULT:    -6.572      3.643      7.836
REMARK INTER + INTRA:         -14.788
REMARK INTER:                 -10.152
REMARK INTRA:                  -4.636
REMARK CONF_INDEPENDENT:        3.580
REMARK UNBOUND:                -4.636
REMARK  12 active torsions:
REMARK  status: ('A' for Active; 'I' for Inactive)
REMARK    1  A    between atoms: C_2  and  N_3 
REMARK    2  A    between atoms: C_5  and  C_6 
REMARK    3  A    between atoms: C_7  and  N_8 
REMARK    4  A    between atoms: C_7  and  C_23 
REMARK       I    between atoms: N_8  and  C_9 
REMARK    5  A    between atoms: C_9  and  C_11 
REMARK    6  A    between atoms: C_13  and  O_14 
REMARK    7  A    between atoms: C_16  and  O_17 
REMARK    8  A    between atoms: C_19  and  O_20 
REMARK       I    between atoms: C_23  and  N_25 
REMARK    9  A    between atoms: N_25  and  C_26 
REMARK   10  A    between atoms: C_26  and  C_27 
REMARK   11  A    between atoms: C_27  and  C_28 
REMARK   12  A    between atoms: C_28  and  O_29 
ROOT
ATOM      1  C   UNL d   1      28.265 -17.002  -1.388  0.00  0.00     0.043 C 
ATOM      2  C   UNL d   1      29.314 -16.761  -0.522  0.00  0.00     0.084 C 
ENDROOT
BRANCH   2   3
ATOM      3  N   UNL d   1      29.243 -15.959   0.636  0.00  0.00    -0.220 NA
ATOM      4  C   UNL d   1      29.448 -14.607   0.496  0.00  0.00     0.235 C 
ATOM      5  O   UNL d   1      30.227 -14.175  -0.330  0.00  0.00    -0.274 OA
ATOM      6  H   UNL d   1      29.758 -16.287   1.438  0.00  0.00     0.137 HD
BRANCH   4   7
ATOM      7  C   UNL d   1      28.992 -13.634   1.516  0.00  0.00     0.032 C 
ATOM      8  C   UNL d   1      28.738 -13.772   2.901  0.00  0.00     0.056 C 
ATOM      9  C   UNL d   1      27.940 -12.815   3.569  0.00  0.00     0.105 C 
ATOM     10  C   UNL d   1      27.422 -11.729   2.827  0.00  0.00     0.135 C 
ATOM     11  C   UNL d   1      27.586 -11.695   1.432  0.00  0.00     0.105 C 
ATOM     12  C   UNL d   1      28.318 -12.672   0.810  0.00  0.00     0.056 C 
BRANCH   9  13
ATOM     13  O   UNL d   1      27.729 -13.059   4.915  0.00  0.00    -0.353 OA
ATOM     14  C   UNL d   1      28.139 -14.335   5.428  0.00  0.00     0.210 C 
ENDBRANCH   9  13
BRANCH  10  15
ATOM     15  O   UNL d   1      26.779 -10.753   3.532  0.00  0.00    -0.351 OA
ATOM     16  C   UNL d   1      27.545  -9.746   4.160  0.00  0.00     0.210 C 
ENDBRANCH  10  15
BRANCH  11  17
ATOM     17  O   UNL d   1      27.030 -10.700   0.687  0.00  0.00    -0.353 OA
ATOM     18  C   UNL d   1      27.507 -10.513  -0.638  0.00  0.00     0.210 C 
ENDBRANCH  11  17
ENDBRANCH   4   7
ENDBRANCH   2   3
BRANCH   2  19
ATOM     19  C   UNL d   1      30.710 -17.401  -0.833  0.00  0.00     0.263 C 
ATOM     20  O   UNL d   1      30.828 -18.508  -1.353  0.00  0.00    -0.267 OA
ATOM     21  N   UNL d   1      31.827 -16.647  -0.478  0.00  0.00    -0.356 N 
ATOM     22  H   UNL d   1      31.747 -15.747  -0.055  0.00  0.00     0.162 HD
BRANCH  21  23
ATOM     23  C   UNL d   1      33.198 -17.141  -0.572  0.00  0.00     0.125 C 
BRANCH  23  24
ATOM     24  C   UNL d   1      33.829 -17.297   0.815  0.00  0.00     0.046 C 
BRANCH  24  25
ATOM     25  C   UNL d   1      32.768 -17.552   1.874  0.00  0.00     0.165 C 
BRANCH  25  26
ATOM     26  O   UNL d   1      31.921 -16.417   1.999  0.00  0.00    -0.401 OA
ATOM     27  H   UNL d   1      31.025 -16.677   1.724  0.00  0.00     0.209 HD
ENDBRANCH  25  26
ENDBRANCH  24  25
ENDBRANCH  23  24
ENDBRANCH  21  23
ENDBRANCH   2  19
BRANCH   1  28
ATOM     28  C   UNL d   1      26.849 -16.529  -1.457  0.00  0.00    -0.006 C 
ATOM     29  C   UNL d   1      26.382 -15.379  -2.032  0.00  0.00     0.103 C 
ATOM     30  N   UNL d   1      25.037 -15.331  -2.198  0.00  0.00    -0.356 N 
ATOM     31  C   UNL d   1      24.511 -16.293  -1.402  0.00  0.00     0.045 A 
ATOM     32  C   UNL d   1      23.175 -16.500  -1.062  0.00  0.00     0.030 A 
ATOM     33  C   UNL d   1      25.601 -17.094  -0.955  0.00  0.00     0.002 A 
ATOM     34  C   UNL d   1      22.902 -17.566  -0.222  0.00  0.00     0.002 A 
ATOM     35  C   UNL d   1      23.928 -18.402   0.224  0.00  0.00     0.001 A 
ATOM     36  C   UNL d   1      25.270 -18.197  -0.145  0.00  0.00     0.014 A 
BRANCH  30  37
ATOM     37  C   UNL d   1      24.407 -14.354  -3.076  0.00  0.00     0.124 C 
ATOM     38  C   UNL d   1      25.273 -13.983  -4.263  0.00  0.00     0.027 C 
ENDBRANCH  30  37
ENDBRANCH   1  28
TORSDOF 12
ENDMDL
MODEL 6
REMARK VINA RESULT:    -6.420      3.059      7.169
REMARK INTER + INTRA:         -15.136
REMARK INTER:                  -9.999
REMARK INTRA:                  -5.137
REMARK CONF_INDEPENDENT:        3.580
REMARK UNBOUND:                -5.137
REMARK  12 active torsions:
REMARK  status: ('A' for Active; 'I' for Inactive)
REMARK    1  A    between atoms: C_2  and  N_3 
REMARK    2  A    between atoms: C_5  and  C_6 
REMARK    3  A    between atoms: C_7  and  N_8 
REMARK    4  A    between atoms: C_7  and  C_23 
REMARK       I    between atoms: N_8  and  C_9 
REMARK    5  A    between atoms: C_9  and  C_11 
REMARK    6  A    between atoms: C_13  and  O_14 
REMARK    7  A    between atoms: C_16  and  O_17 
REMARK    8  A    between atoms: C_19  and  O_20 
REMARK       I    between atoms: C_23  and  N_25 
REMARK    9  A    between atoms: N_25  and  C_26 
REMARK   10  A    between atoms: C_26  and  C_27 
REMARK   11  A    between atoms: C_27  and  C_28 
REMARK   12  A    between atoms: C_28  and  O_29 
ROOT
ATOM      1  C   UNL d   1      26.361 -14.535  -3.434  0.00  0.00     0.043 C 
ATOM      2  C   UNL d   1      26.919 -14.300  -4.675  0.00  0.00     0.084 C 
ENDROOT
BRANCH   2   3
ATOM      3  N   UNL d   1      27.751 -15.199  -5.375  0.00  0.00    -0.220 NA
ATOM      4  C   UNL d   1      29.107 -15.115  -5.167  0.00  0.00     0.235 C 
ATOM      5  O   UNL d   1      29.642 -14.045  -4.953  0.00  0.00    -0.274 OA
ATOM      6  H   UNL d   1      27.577 -15.292  -6.363  0.00  0.00     0.137 HD
BRANCH   4   7
ATOM      7  C   UNL d   1      30.023 -16.234  -5.491  0.00  0.00     0.032 C 
ATOM      8  C   UNL d   1      30.399 -16.815  -6.725  0.00  0.00     0.056 C 
ATOM      9  C   UNL d   1      30.966 -18.109  -6.750  0.00  0.00     0.105 C 
ATOM     10  C   UNL d   1      31.154 -18.790  -5.525  0.00  0.00     0.135 C 
ATOM     11  C   UNL d   1      30.651 -18.238  -4.335  0.00  0.00     0.105 C 
ATOM     12  C   UNL d   1      30.054 -17.004  -4.358  0.00  0.00     0.056 C 
BRANCH   9  13
ATOM     13  O   UNL d   1      31.271 -18.595  -8.010  0.00  0.00    -0.353 OA
ATOM     14  C   UNL d   1      30.856 -19.933  -8.321  0.00  0.00     0.210 C 
ENDBRANCH   9  13
BRANCH  10  15
ATOM     15  O   UNL d   1      31.835 -19.973  -5.576  0.00  0.00    -0.351 OA
ATOM     16  C   UNL d   1      31.236 -21.129  -5.030  0.00  0.00     0.210 C 
ENDBRANCH  10  15
BRANCH  11  17
ATOM     17  O   UNL d   1      30.751 -18.910  -3.156  0.00  0.00    -0.353 OA
ATOM     18  C   UNL d   1      31.835 -18.590  -2.295  0.00  0.00     0.210 C 
ENDBRANCH  11  17
ENDBRANCH   4   7
ENDBRANCH   2   3
BRANCH   2  19
ATOM     19  C   UNL d   1      26.637 -12.930  -5.381  0.00  0.00     0.263 C 
ATOM     20  O   UNL d   1      25.523 -12.412  -5.396  0.00  0.00    -0.267 OA
ATOM     21  N   UNL d   1      27.724 -12.323  -6.006  0.00  0.00    -0.356 N 
ATOM     22  H   UNL d   1      28.635 -12.733  -6.003  0.00  0.00     0.162 HD
BRANCH  21  23
ATOM     23  C   UNL d   1      27.618 -11.117  -6.821  0.00  0.00     0.125 C 
BRANCH  23  24
ATOM     24  C   UNL d   1      28.206 -11.334  -8.218  0.00  0.00     0.046 C 
BRANCH  24  25
ATOM     25  C   UNL d   1      29.164 -12.516  -8.231  0.00  0.00     0.165 C 
BRANCH  25  26
ATOM     26  O   UNL d   1      28.475 -13.705  -7.869  0.00  0.00    -0.401 OA
ATOM     27  H   UNL d   1      28.727 -13.935  -6.958  0.00  0.00     0.209 HD
ENDBRANCH  25  26
ENDBRANCH  24  25
ENDBRANCH  23  24
ENDBRANCH  21  23
ENDBRANCH   2  19
BRANCH   1  28
ATOM     28  C   UNL d   1      26.451 -15.661  -2.453  0.00  0.00    -0.006 C 
ATOM     29  C   UNL d   1      27.576 -16.324  -2.048  0.00  0.00     0.103 C 
ATOM     30  N   UNL d   1      27.412 -17.106  -0.953  0.00  0.00    -0.356 N 
ATOM     31  C   UNL d   1      26.079 -17.289  -0.800  0.00  0.00     0.045 A 
ATOM     32  C   UNL d   1      25.418 -18.179   0.045  0.00  0.00     0.030 A 
ATOM     33  C   UNL d   1      25.438 -16.372  -1.682  0.00  0.00     0.002 A 
ATOM     34  C   UNL d   1      24.034 -18.166   0.009  0.00  0.00     0.002 A 
ATOM     35  C   UNL d   1      23.353 -17.269  -0.816  0.00  0.00     0.001 A 
ATOM     36  C   UNL d   1      24.030 -16.358  -1.648  0.00  0.00     0.014 A 
BRANCH  30  37
ATOM     37  C   UNL d   1      28.549 -17.614  -0.195  0.00  0.00     0.124 C 
ATOM     38  C   UNL d   1      29.722 -16.655  -0.180  0.00  0.00     0.027 C 
ENDBRANCH  30  37
ENDBRANCH   1  28
TORSDOF 12
ENDMDL
MODEL 7
REMARK VINA RESULT:    -6.271      3.120      7.175
REMARK INTER + INTRA:         -14.829
REMARK INTER:                  -9.850
REMARK INTRA:                  -4.979
REMARK CONF_INDEPENDENT:        3.580
REMARK UNBOUND:                -4.979
REMARK  12 active torsions:
REMARK  status: ('A' for Active; 'I' for Inactive)
REMARK    1  A    between atoms: C_2  and  N_3 
REMARK    2  A    between atoms: C_5  and  C_6 
REMARK    3  A    between atoms: C_7  and  N_8 
REMARK    4  A    between atoms: C_7  and  C_23 
REMARK       I    between atoms: N_8  and  C_9 
REMARK    5  A    between atoms: C_9  and  C_11 
REMARK    6  A    between atoms: C_13  and  O_14 
REMARK    7  A    between atoms: C_16  and  O_17 
REMARK    8  A    between atoms: C_19  and  O_20 
REMARK       I    between atoms: C_23  and  N_25 
REMARK    9  A    between atoms: N_25  and  C_26 
REMARK   10  A    between atoms: C_26  and  C_27 
REMARK   11  A    between atoms: C_27  and  C_28 
REMARK   12  A    between atoms: C_28  and  O_29 
ROOT
ATOM      1  C   UNL d   1      26.296 -14.429  -3.375  0.00  0.00     0.043 C 
ATOM      2  C   UNL d   1      26.837 -14.233  -4.631  0.00  0.00     0.084 C 
ENDROOT
BRANCH   2   3
ATOM      3  N   UNL d   1      27.539 -15.205  -5.373  0.00  0.00    -0.220 NA
ATOM      4  C   UNL d   1      28.879 -15.369  -5.114  0.00  0.00     0.235 C 
ATOM      5  O   UNL d   1      29.574 -14.424  -4.796  0.00  0.00    -0.274 OA
ATOM      6  H   UNL d   1      27.398 -15.192  -6.371  0.00  0.00     0.137 HD
BRANCH   4   7
ATOM      7  C   UNL d   1      29.609 -16.599  -5.498  0.00  0.00     0.032 C 
ATOM      8  C   UNL d   1      30.031 -17.717  -4.740  0.00  0.00     0.056 C 
ATOM      9  C   UNL d   1      31.045 -18.565  -5.242  0.00  0.00     0.105 C 
ATOM     10  C   UNL d   1      31.606 -18.274  -6.506  0.00  0.00     0.135 C 
ATOM     11  C   UNL d   1      31.256 -17.086  -7.169  0.00  0.00     0.105 C 
ATOM     12  C   UNL d   1      30.310 -16.257  -6.625  0.00  0.00     0.056 C 
BRANCH   9  13
ATOM     13  O   UNL d   1      31.404 -19.611  -4.410  0.00  0.00    -0.353 OA
ATOM     14  C   UNL d   1      31.287 -20.942  -4.932  0.00  0.00     0.210 C 
ENDBRANCH   9  13
BRANCH  10  15
ATOM     15  O   UNL d   1      32.477 -19.192  -7.019  0.00  0.00    -0.351 OA
ATOM     16  C   UNL d   1      32.092 -19.939  -8.155  0.00  0.00     0.210 C 
ENDBRANCH  10  15
BRANCH  11  17
ATOM     17  O   UNL d   1      31.841 -16.746  -8.351  0.00  0.00    -0.353 OA
ATOM     18  C   UNL d   1      32.954 -15.864  -8.314  0.00  0.00     0.210 C 
ENDBRANCH  11  17
ENDBRANCH   4   7
ENDBRANCH   2   3
BRANCH   2  19
ATOM     19  C   UNL d   1      26.689 -12.825  -5.304  0.00  0.00     0.263 C 
ATOM     20  O   UNL d   1      25.608 -12.248  -5.395  0.00  0.00    -0.267 OA
ATOM     21  N   UNL d   1      27.856 -12.256  -5.807  0.00  0.00    -0.356 N 
ATOM     22  H   UNL d   1      28.741 -12.714  -5.741  0.00  0.00     0.162 HD
BRANCH  21  23
ATOM     23  C   UNL d   1      27.884 -11.018  -6.579  0.00  0.00     0.125 C 
BRANCH  23  24
ATOM     24  C   UNL d   1      28.386 -11.262  -8.006  0.00  0.00     0.046 C 
BRANCH  24  25
ATOM     25  C   UNL d   1      29.270 -12.498  -8.071  0.00  0.00     0.165 C 
BRANCH  25  26
ATOM     26  O   UNL d   1      28.525 -13.651  -7.703  0.00  0.00    -0.401 OA
ATOM     27  H   UNL d   1      28.761 -13.883  -6.789  0.00  0.00     0.209 HD
ENDBRANCH  25  26
ENDBRANCH  24  25
ENDBRANCH  23  24
ENDBRANCH  21  23
ENDBRANCH   2  19
BRANCH   1  28
ATOM     28  C   UNL d   1      26.290 -15.577  -2.417  0.00  0.00    -0.006 C 
ATOM     29  C   UNL d   1      27.357 -16.333  -2.017  0.00  0.00     0.103 C 
ATOM     30  N   UNL d   1      27.123 -17.122  -0.939  0.00  0.00    -0.356 N 
ATOM     31  C   UNL d   1      25.778 -17.203  -0.799  0.00  0.00     0.045 A 
ATOM     32  C   UNL d   1      25.043 -18.056   0.023  0.00  0.00     0.030 A 
ATOM     33  C   UNL d   1      25.218 -16.222  -1.667  0.00  0.00     0.002 A 
ATOM     34  C   UNL d   1      23.665 -17.934  -0.023  0.00  0.00     0.002 A 
ATOM     35  C   UNL d   1      23.062 -16.971  -0.835  0.00  0.00     0.001 A 
ATOM     36  C   UNL d   1      23.816 -16.099  -1.642  0.00  0.00     0.014 A 
BRANCH  30  37
ATOM     37  C   UNL d   1      28.210 -17.731  -0.184  0.00  0.00     0.124 C 
ATOM     38  C   UNL d   1      29.578 -17.394  -0.744  0.00  0.00     0.027 C 
ENDBRANCH  30  37
ENDBRANCH   1  28
TORSDOF 12
ENDMDL
MODEL 8
REMARK VINA RESULT:    -6.260      2.705      7.236
REMARK INTER + INTRA:         -14.984
REMARK INTER:                  -9.840
REMARK INTRA:                  -5.144
REMARK CONF_INDEPENDENT:        3.580
REMARK UNBOUND:                -5.144
REMARK  12 active torsions:
REMARK  status: ('A' for Active; 'I' for Inactive)
REMARK    1  A    between atoms: C_2  and  N_3 
REMARK    2  A    between atoms: C_5  and  C_6 
REMARK    3  A    between atoms: C_7  and  N_8 
REMARK    4  A    between atoms: C_7  and  C_23 
REMARK       I    between atoms: N_8  and  C_9 
REMARK    5  A    between atoms: C_9  and  C_11 
REMARK    6  A    between atoms: C_13  and  O_14 
REMARK    7  A    between atoms: C_16  and  O_17 
REMARK    8  A    between atoms: C_19  and  O_20 
REMARK       I    between atoms: C_23  and  N_25 
REMARK    9  A    between atoms: N_25  and  C_26 
REMARK   10  A    between atoms: C_26  and  C_27 
REMARK   11  A    between atoms: C_27  and  C_28 
REMARK   12  A    between atoms: C_28  and  O_29 
ROOT
ATOM      1  C   UNL d   1      28.361 -13.596  -6.160  0.00  0.00     0.043 C 
ATOM      2  C   UNL d   1      27.522 -12.782  -5.424  0.00  0.00     0.084 C 
ENDROOT
BRANCH   2   3
ATOM      3  N   UNL d   1      27.141 -13.008  -4.085  0.00  0.00    -0.220 NA
ATOM      4  C   UNL d   1      26.065 -13.831  -3.853  0.00  0.00     0.235 C 
ATOM      5  O   UNL d   1      25.126 -13.866  -4.624  0.00  0.00    -0.274 OA
ATOM      6  H   UNL d   1      27.060 -12.191  -3.501  0.00  0.00     0.137 HD
BRANCH   4   7
ATOM      7  C   UNL d   1      25.836 -14.473  -2.537  0.00  0.00     0.032 C 
ATOM      8  C   UNL d   1      26.466 -14.296  -1.283  0.00  0.00     0.056 C 
ATOM      9  C   UNL d   1      26.344 -15.294  -0.288  0.00  0.00     0.105 C 
ATOM     10  C   UNL d   1      25.578 -16.447  -0.575  0.00  0.00     0.135 C 
ATOM     11  C   UNL d   1      25.077 -16.647  -1.872  0.00  0.00     0.105 C 
ATOM     12  C   UNL d   1      25.264 -15.684  -2.829  0.00  0.00     0.056 C 
BRANCH   9  13
ATOM     13  O   UNL d   1      27.022 -15.036   0.891  0.00  0.00    -0.353 OA
ATOM     14  C   UNL d   1      28.452 -15.155   0.872  0.00  0.00     0.210 C 
ENDBRANCH   9  13
BRANCH  10  15
ATOM     15  O   UNL d   1      25.365 -17.317   0.455  0.00  0.00    -0.351 OA
ATOM     16  C   UNL d   1      26.401 -18.202   0.828  0.00  0.00     0.210 C 
ENDBRANCH  10  15
BRANCH  11  17
ATOM     17  O   UNL d   1      24.404 -17.786  -2.194  0.00  0.00    -0.353 OA
ATOM     18  C   UNL d   1      23.331 -18.186  -1.353  0.00  0.00     0.210 C 
ENDBRANCH  11  17
ENDBRANCH   4   7
ENDBRANCH   2   3
BRANCH   2  19
ATOM     19  C   UNL d   1      26.917 -11.508  -6.108  0.00  0.00     0.263 C 
ATOM     20  O   UNL d   1      27.535 -10.851  -6.942  0.00  0.00    -0.267 OA
ATOM     21  N   UNL d   1      25.631 -11.148  -5.713  0.00  0.00    -0.356 N 
ATOM     22  H   UNL d   1      25.117 -11.673  -5.036  0.00  0.00     0.162 HD
BRANCH  21  23
ATOM     23  C   UNL d   1      24.966  -9.923  -6.145  0.00  0.00     0.125 C 
BRANCH  23  24
ATOM     24  C   UNL d   1      24.843  -8.921  -4.993  0.00  0.00     0.046 C 
BRANCH  24  25
ATOM     25  C   UNL d   1      25.856  -9.218  -3.898  0.00  0.00     0.165 C 
BRANCH  25  26
ATOM     26  O   UNL d   1      25.571 -10.475  -3.299  0.00  0.00    -0.401 OA
ATOM     27  H   UNL d   1      26.039 -11.162  -3.804  0.00  0.00     0.209 HD
ENDBRANCH  25  26
ENDBRANCH  24  25
ENDBRANCH  23  24
ENDBRANCH  21  23
ENDBRANCH   2  19
BRANCH   1  28
ATOM     28  C   UNL d   1      29.057 -14.890  -5.881  0.00  0.00    -0.006 C 
ATOM     29  C   UNL d   1      29.647 -15.729  -6.785  0.00  0.00     0.103 C 
ATOM     30  N   UNL d   1      30.442 -16.683  -6.241  0.00  0.00    -0.356 N 
ATOM     31  C   UNL d   1      30.124 -16.753  -4.927  0.00  0.00     0.045 A 
ATOM     32  C   UNL d   1      30.507 -17.715  -3.993  0.00  0.00     0.030 A 
ATOM     33  C   UNL d   1      29.300 -15.626  -4.646  0.00  0.00     0.002 A 
ATOM     34  C   UNL d   1      30.040 -17.553  -2.700  0.00  0.00     0.002 A 
ATOM     35  C   UNL d   1      29.251 -16.451  -2.362  0.00  0.00     0.001 A 
ATOM     36  C   UNL d   1      28.890 -15.474  -3.307  0.00  0.00     0.014 A 
BRANCH  30  37
ATOM     37  C   UNL d   1      31.395 -17.438  -7.045  0.00  0.00     0.124 C 
ATOM     38  C   UNL d   1      32.249 -16.555  -7.931  0.00  0.00     0.027 C 
ENDBRANCH  30  37
ENDBRANCH   1  28
TORSDOF 12
ENDMDL
MODEL 9
REMARK VINA RESULT:    -6.048      2.974      7.128
REMARK INTER + INTRA:         -14.921
REMARK INTER:                  -9.628
REMARK INTRA:                  -5.293
REMARK CONF_INDEPENDENT:        3.580
REMARK UNBOUND:                -5.293
REMARK  12 active torsions:
REMARK  status: ('A' for Active; 'I' for Inactive)
REMARK    1  A    between atoms: C_2  and  N_3 
REMARK    2  A    between atoms: C_5  and  C_6 
REMARK    3  A    between atoms: C_7  and  N_8 
REMARK    4  A    between atoms: C_7  and  C_23 
REMARK       I    between atoms: N_8  and  C_9 
REMARK    5  A    between atoms: C_9  and  C_11 
REMARK    6  A    between atoms: C_13  and  O_14 
REMARK    7  A    between atoms: C_16  and  O_17 
REMARK    8  A    between atoms: C_19  and  O_20 
REMARK       I    between atoms: C_23  and  N_25 
REMARK    9  A    between atoms: N_25  and  C_26 
REMARK   10  A    between atoms: C_26  and  C_27 
REMARK   11  A    between atoms: C_27  and  C_28 
REMARK   12  A    between atoms: C_28  and  O_29 
ROOT
ATOM      1  C   UNL d   1      25.841 -14.394  -3.452  0.00  0.00     0.043 C 
ATOM      2  C   UNL d   1      26.631 -14.224  -4.572  0.00  0.00     0.084 C 
ENDROOT
BRANCH   2   3
ATOM      3  N   UNL d   1      27.481 -15.205  -5.122  0.00  0.00    -0.220 NA
ATOM      4  C   UNL d   1      28.821 -15.139  -4.819  0.00  0.00     0.235 C 
ATOM      5  O   UNL d   1      29.374 -14.068  -4.660  0.00  0.00    -0.274 OA
ATOM      6  H   UNL d   1      27.378 -15.382  -6.109  0.00  0.00     0.137 HD
BRANCH   4   7
ATOM      7  C   UNL d   1      29.719 -16.307  -4.970  0.00  0.00     0.032 C 
ATOM      8  C   UNL d   1      30.031 -17.115  -6.088  0.00  0.00     0.056 C 
ATOM      9  C   UNL d   1      30.598 -18.396  -5.895  0.00  0.00     0.105 C 
ATOM     10  C   UNL d   1      30.850 -18.832  -4.574  0.00  0.00     0.135 C 
ATOM     11  C   UNL d   1      30.409 -18.059  -3.487  0.00  0.00     0.105 C 
ATOM     12  C   UNL d   1      29.810 -16.847  -3.714  0.00  0.00     0.056 C 
BRANCH   9  13
ATOM     13  O   UNL d   1      30.838 -19.115  -7.053  0.00  0.00    -0.353 OA
ATOM     14  C   UNL d   1      31.841 -18.614  -7.948  0.00  0.00     0.210 C 
ENDBRANCH   9  13
BRANCH  10  15
ATOM     15  O   UNL d   1      31.528 -20.009  -4.434  0.00  0.00    -0.351 OA
ATOM     16  C   UNL d   1      30.853 -21.126  -3.895  0.00  0.00     0.210 C 
ENDBRANCH  10  15
BRANCH  11  17
ATOM     17  O   UNL d   1      30.571 -18.496  -2.208  0.00  0.00    -0.353 OA
ATOM     18  C   UNL d   1      31.546 -17.850  -1.401  0.00  0.00     0.210 C 
ENDBRANCH  11  17
ENDBRANCH   4   7
ENDBRANCH   2   3
BRANCH   2  19
ATOM     19  C   UNL d   1      26.614 -12.837  -5.302  0.00  0.00     0.263 C 
ATOM     20  O   UNL d   1      25.591 -12.168  -5.424  0.00  0.00    -0.267 OA
ATOM     21  N   UNL d   1      27.831 -12.399  -5.820  0.00  0.00    -0.356 N 
ATOM     22  H   UNL d   1      28.669 -12.932  -5.729  0.00  0.00     0.162 HD
BRANCH  21  23
ATOM     23  C   UNL d   1      27.974 -11.201  -6.642  0.00  0.00     0.125 C 
BRANCH  23  24
ATOM     24  C   UNL d   1      28.501 -11.543  -8.039  0.00  0.00     0.046 C 
BRANCH  24  25
ATOM     25  C   UNL d   1      29.297 -12.839  -8.022  0.00  0.00     0.165 C 
BRANCH  25  26
ATOM     26  O   UNL d   1      28.458 -13.921  -7.641  0.00  0.00    -0.401 OA
ATOM     27  H   UNL d   1      28.607 -14.101  -6.697  0.00  0.00     0.209 HD
ENDBRANCH  25  26
ENDBRANCH  24  25
ENDBRANCH  23  24
ENDBRANCH  21  23
ENDBRANCH   2  19
BRANCH   1  28
ATOM     28  C   UNL d   1      25.644 -15.515  -2.483  0.00  0.00    -0.006 C 
ATOM     29  C   UNL d   1      24.466 -16.116  -2.132  0.00  0.00     0.103 C 
ATOM     30  N   UNL d   1      24.602 -17.280  -1.451  0.00  0.00    -0.356 N 
ATOM     31  C   UNL d   1      25.877 -17.318  -0.993  0.00  0.00     0.045 A 
ATOM     32  C   UNL d   1      26.439 -18.198  -0.070  0.00  0.00     0.030 A 
ATOM     33  C   UNL d   1      26.576 -16.264  -1.647  0.00  0.00     0.002 A 
ATOM     34  C   UNL d   1      27.779 -18.019   0.230  0.00  0.00     0.002 A 
ATOM     35  C   UNL d   1      28.521 -17.019  -0.402  0.00  0.00     0.001 A 
ATOM     36  C   UNL d   1      27.948 -16.151  -1.351  0.00  0.00     0.014 A 
BRANCH  30  37
ATOM     37  C   UNL d   1      23.491 -18.210  -1.291  0.00  0.00     0.124 C 
ATOM     38  C   UNL d   1      22.832 -18.111   0.069  0.00  0.00     0.027 C 
ENDBRANCH  30  37
ENDBRANCH   1  28
TORSDOF 12
ENDMDL
