MODEL 1
REMARK VINA RESULT:    -8.145      0.000      0.000
REMARK INTER + INTRA:         -11.156
REMARK INTER:                 -10.531
REMARK INTRA:                  -0.625
REMARK CONF_INDEPENDENT:        2.386
REMARK UNBOUND:                -0.625
REMARK  8 active torsions:
REMARK  status: ('A' for Active; 'I' for Inactive)
REMARK    1  A    between atoms: C_2  and  C_3 
REMARK       I    between atoms: C_2  and  N_14 
REMARK    2  A    between atoms: C_3  and  C_4 
REMARK    3  A    between atoms: C_4  and  C_5 
REMARK    4  A    between atoms: N_14  and  N_15 
REMARK       I    between atoms: N_15  and  C_16 
REMARK       I    between atoms: C_16  and  N_18 
REMARK    5  A    between atoms: N_18  and  C_19 
REMARK    6  A    between atoms: C_19  and  C_20 
REMARK    7  A    between atoms: C_20  and  C_21 
REMARK    8  A    between atoms: C_21  and  N_22 
ROOT
ATOM      1  O   UNL d   1      27.701 -14.927  -2.336  0.00  0.00    -0.272 OA
ATOM      2  C   UNL d   1      27.712 -15.277  -1.156  0.00  0.00     0.236 C 
ATOM      3  N   UNL d   1      28.667 -14.770  -0.298  0.00  0.00    -0.266 N 
ATOM      4  H   UNL d   1      29.338 -14.110  -0.696  0.00  0.00     0.190 HD
ENDROOT
BRANCH   3   5
ATOM      5  N   UNL d   1      28.816 -15.072   1.075  0.00  0.00    -0.249 N 
ATOM      6  C   UNL d   1      28.672 -14.049   2.002  0.00  0.00     0.334 C 
ATOM      7  O   UNL d   1      28.420 -12.886   1.692  0.00  0.00    -0.246 OA
ATOM      8  N   UNL d   1      28.831 -14.448   3.318  0.00  0.00    -0.342 N 
ATOM      9  H   UNL d   1      29.051 -15.413   3.509  0.00  0.00     0.164 HD
ATOM     10  H   UNL d   1      29.022 -16.024   1.341  0.00  0.00     0.192 HD
BRANCH   8  11
ATOM     11  C   UNL d   1      28.717 -13.487   4.417  0.00  0.00     0.126 C 
BRANCH  11  12
ATOM     12  C   UNL d   1      28.081 -14.072   5.685  0.00  0.00     0.040 C 
BRANCH  12  13
ATOM     13  C   UNL d   1      29.096 -14.242   6.819  0.00  0.00     0.130 C 
BRANCH  13  14
ATOM     14  N   UNL d   1      28.781 -13.359   7.961  0.00  0.00    -0.352 N 
ATOM     15  C   UNL d   1      28.659 -13.752   9.293  0.00  0.00     0.108 A 
ATOM     16  C   UNL d   1      28.366 -12.628  10.015  0.00  0.00     0.106 A 
ATOM     17  N   UNL d   1      28.330 -11.592   9.114  0.00  0.00    -0.361 N 
ATOM     18  C   UNL d   1      28.594 -12.031   7.879  0.00  0.00     0.182 A 
ATOM     19  H   UNL d   1      28.136 -10.619   9.346  0.00  0.00     0.166 HD
ENDBRANCH  13  14
ENDBRANCH  12  13
ENDBRANCH  11  12
ENDBRANCH   8  11
ENDBRANCH   3   5
BRANCH   2  20
ATOM     20  C   UNL d   1      26.698 -16.263  -0.603  0.00  0.00     0.109 C 
BRANCH  20  21
ATOM     21  C   UNL d   1      25.259 -15.731  -0.694  0.00  0.00     0.048 C 
BRANCH  21  22
ATOM     22  C   UNL d   1      24.241 -16.848  -0.633  0.00  0.00    -0.055 A 
ATOM     23  C   UNL d   1      24.646 -18.165  -0.314  0.00  0.00     0.010 A 
ATOM     24  C   UNL d   1      23.717 -19.208  -0.238  0.00  0.00     0.040 A 
ATOM     25  C   UNL d   1      22.398 -18.911  -0.498  0.00  0.00     0.105 A 
ATOM     26  C   UNL d   1      21.993 -17.638  -0.822  0.00  0.00     0.105 A 
ATOM     27  O   UNL d   1      21.363 -19.793  -0.474  0.00  0.00    -0.323 OA
ATOM     28  C   UNL d   1      22.885 -16.587  -0.892  0.00  0.00     0.047 A 
ATOM     29  O   UNL d   1      20.654 -17.563  -1.052  0.00  0.00    -0.323 OA
ATOM     30  C   UNL d   1      20.281 -18.951  -0.924  0.00  0.00     0.352 A 
ENDBRANCH  21  22
ENDBRANCH  20  21
ENDBRANCH   2  20
TORSDOF 8
ENDMDL
MODEL 2
REMARK VINA RESULT:    -8.123      0.988      1.600
REMARK INTER + INTRA:         -11.192
REMARK INTER:                 -10.510
REMARK INTRA:                  -0.682
REMARK CONF_INDEPENDENT:        2.386
REMARK UNBOUND:                -0.682
REMARK  8 active torsions:
REMARK  status: ('A' for Active; 'I' for Inactive)
REMARK    1  A    between atoms: C_2  and  C_3 
REMARK       I    between atoms: C_2  and  N_14 
REMARK    2  A    between atoms: C_3  and  C_4 
REMARK    3  A    between atoms: C_4  and  C_5 
REMARK    4  A    between atoms: N_14  and  N_15 
REMARK       I    between atoms: N_15  and  C_16 
REMARK       I    between atoms: C_16  and  N_18 
REMARK    5  A    between atoms: N_18  and  C_19 
REMARK    6  A    between atoms: C_19  and  C_20 
REMARK    7  A    between atoms: C_20  and  C_21 
REMARK    8  A    between atoms: C_21  and  N_22 
ROOT
ATOM      1  O   UNL d   1      27.052 -14.938  -1.186  0.00  0.00    -0.272 OA
ATOM      2  C   UNL d   1      27.398 -15.316  -0.066  0.00  0.00     0.236 C 
ATOM      3  N   UNL d   1      28.371 -14.621   0.622  0.00  0.00    -0.266 N 
ATOM      4  H   UNL d   1      28.768 -13.803   0.156  0.00  0.00     0.190 HD
ENDROOT
BRANCH   3   5
ATOM      5  N   UNL d   1      28.879 -14.925   1.906  0.00  0.00    -0.249 N 
ATOM      6  C   UNL d   1      28.213 -14.432   3.020  0.00  0.00     0.334 C 
ATOM      7  O   UNL d   1      27.199 -13.741   2.951  0.00  0.00    -0.246 OA
ATOM      8  N   UNL d   1      28.786 -14.790   4.229  0.00  0.00    -0.342 N 
ATOM      9  H   UNL d   1      29.627 -15.347   4.220  0.00  0.00     0.164 HD
ATOM     10  H   UNL d   1      29.711 -15.493   1.975  0.00  0.00     0.192 HD
BRANCH   8  11
ATOM     11  C   UNL d   1      28.209 -14.345   5.498  0.00  0.00     0.126 C 
BRANCH  11  12
ATOM     12  C   UNL d   1      28.034 -12.824   5.597  0.00  0.00     0.040 C 
BRANCH  12  13
ATOM     13  C   UNL d   1      29.162 -12.160   6.393  0.00  0.00     0.130 C 
BRANCH  13  14
ATOM     14  N   UNL d   1      28.995 -12.372   7.845  0.00  0.00    -0.352 N 
ATOM     15  C   UNL d   1      29.312 -13.534   8.547  0.00  0.00     0.108 A 
ATOM     16  C   UNL d   1      29.006 -13.303   9.859  0.00  0.00     0.106 A 
ATOM     17  N   UNL d   1      28.528 -12.016   9.922  0.00  0.00    -0.361 N 
ATOM     18  C   UNL d   1      28.535 -11.452   8.710  0.00  0.00     0.182 A 
ATOM     19  H   UNL d   1      28.216 -11.547  10.770  0.00  0.00     0.166 HD
ENDBRANCH  13  14
ENDBRANCH  12  13
ENDBRANCH  11  12
ENDBRANCH   8  11
ENDBRANCH   3   5
BRANCH   2  20
ATOM     20  C   UNL d   1      26.785 -16.539   0.592  0.00  0.00     0.109 C 
BRANCH  20  21
ATOM     21  C   UNL d   1      26.293 -17.569  -0.437  0.00  0.00     0.048 C 
BRANCH  21  22
ATOM     22  C   UNL d   1      24.789 -17.534  -0.596  0.00  0.00    -0.055 A 
ATOM     23  C   UNL d   1      24.113 -16.296  -0.705  0.00  0.00     0.010 A 
ATOM     24  C   UNL d   1      22.725 -16.244  -0.867  0.00  0.00     0.040 A 
ATOM     25  C   UNL d   1      22.038 -17.438  -0.902  0.00  0.00     0.105 A 
ATOM     26  C   UNL d   1      22.682 -18.646  -0.785  0.00  0.00     0.105 A 
ATOM     27  O   UNL d   1      20.693 -17.580  -1.050  0.00  0.00    -0.323 OA
ATOM     28  C   UNL d   1      24.052 -18.730  -0.637  0.00  0.00     0.047 A 
ATOM     29  O   UNL d   1      21.821 -19.699  -0.833  0.00  0.00    -0.323 OA
ATOM     30  C   UNL d   1      20.556 -19.008  -0.903  0.00  0.00     0.352 A 
ENDBRANCH  21  22
ENDBRANCH  20  21
ENDBRANCH   2  20
TORSDOF 8
ENDMDL
MODEL 3
REMARK VINA RESULT:    -8.075      6.501      9.183
REMARK INTER + INTRA:         -11.180
REMARK INTER:                 -10.462
REMARK INTRA:                  -0.719
REMARK CONF_INDEPENDENT:        2.386
REMARK UNBOUND:                -0.719
REMARK  8 active torsions:
REMARK  status: ('A' for Active; 'I' for Inactive)
REMARK    1  A    between atoms: C_2  and  C_3 
REMARK       I    between atoms: C_2  and  N_14 
REMARK    2  A    between atoms: C_3  and  C_4 
REMARK    3  A    between atoms: C_4  and  C_5 
REMARK    4  A    between atoms: N_14  and  N_15 
REMARK       I    between atoms: N_15  and  C_16 
REMARK       I    between atoms: C_16  and  N_18 
REMARK    5  A    between atoms: N_18  and  C_19 
REMARK    6  A    between atoms: C_19  and  C_20 
REMARK    7  A    between atoms: C_20  and  C_21 
REMARK    8  A    between atoms: C_21  and  N_22 
ROOT
ATOM      1  O   UNL d   1      23.853 -14.370  -3.151  0.00  0.00    -0.272 OA
ATOM      2  C   UNL d   1      25.072 -14.385  -3.320  0.00  0.00     0.236 C 
ATOM      3  N   UNL d   1      25.649 -13.526  -4.233  0.00  0.00    -0.266 N 
ATOM      4  H   UNL d   1      25.018 -12.901  -4.738  0.00  0.00     0.190 HD
ENDROOT
BRANCH   3   5
ATOM      5  N   UNL d   1      27.024 -13.422  -4.545  0.00  0.00    -0.249 N 
ATOM      6  C   UNL d   1      27.575 -14.327  -5.441  0.00  0.00     0.334 C 
ATOM      7  O   UNL d   1      26.928 -15.222  -5.982  0.00  0.00    -0.246 OA
ATOM      8  N   UNL d   1      28.925 -14.137  -5.683  0.00  0.00    -0.342 N 
ATOM      9  H   UNL d   1      29.404 -13.394  -5.197  0.00  0.00     0.164 HD
ATOM     10  H   UNL d   1      27.564 -12.690  -4.107  0.00  0.00     0.192 HD
BRANCH   8  11
ATOM     11  C   UNL d   1      29.658 -15.012  -6.599  0.00  0.00     0.126 C 
BRANCH  11  12
ATOM     12  C   UNL d   1      30.110 -16.332  -5.961  0.00  0.00     0.040 C 
BRANCH  12  13
ATOM     13  C   UNL d   1      30.792 -17.262  -6.970  0.00  0.00     0.130 C 
BRANCH  13  14
ATOM     14  N   UNL d   1      30.741 -18.670  -6.525  0.00  0.00    -0.352 N 
ATOM     15  C   UNL d   1      30.543 -19.112  -5.218  0.00  0.00     0.108 A 
ATOM     16  C   UNL d   1      30.563 -20.478  -5.251  0.00  0.00     0.106 A 
ATOM     17  N   UNL d   1      30.759 -20.828  -6.565  0.00  0.00    -0.361 N 
ATOM     18  C   UNL d   1      30.852 -19.738  -7.334  0.00  0.00     0.182 A 
ATOM     19  H   UNL d   1      30.819 -21.782  -6.916  0.00  0.00     0.166 HD
ENDBRANCH  13  14
ENDBRANCH  12  13
ENDBRANCH  11  12
ENDBRANCH   8  11
ENDBRANCH   3   5
BRANCH   2  20
ATOM     20  C   UNL d   1      25.976 -15.331  -2.551  0.00  0.00     0.109 C 
BRANCH  20  21
ATOM     21  C   UNL d   1      25.565 -15.457  -1.075  0.00  0.00     0.048 C 
BRANCH  21  22
ATOM     22  C   UNL d   1      24.599 -16.600  -0.854  0.00  0.00    -0.055 A 
ATOM     23  C   UNL d   1      25.081 -17.880  -0.491  0.00  0.00     0.010 A 
ATOM     24  C   UNL d   1      24.203 -18.945  -0.268  0.00  0.00     0.040 A 
ATOM     25  C   UNL d   1      22.855 -18.709  -0.427  0.00  0.00     0.105 A 
ATOM     26  C   UNL d   1      22.376 -17.474  -0.792  0.00  0.00     0.105 A 
ATOM     27  O   UNL d   1      21.860 -19.621  -0.256  0.00  0.00    -0.323 OA
ATOM     28  C   UNL d   1      23.217 -16.400  -1.007  0.00  0.00     0.047 A 
ATOM     29  O   UNL d   1      21.020 -17.457  -0.906  0.00  0.00    -0.323 OA
ATOM     30  C   UNL d   1      20.712 -18.846  -0.659  0.00  0.00     0.352 A 
ENDBRANCH  21  22
ENDBRANCH  20  21
ENDBRANCH   2  20
TORSDOF 8
ENDMDL
MODEL 4
REMARK VINA RESULT:    -8.037      0.797      1.147
REMARK INTER + INTRA:         -11.058
REMARK INTER:                 -10.424
REMARK INTRA:                  -0.634
REMARK CONF_INDEPENDENT:        2.386
REMARK UNBOUND:                -0.634
REMARK  8 active torsions:
REMARK  status: ('A' for Active; 'I' for Inactive)
REMARK    1  A    between atoms: C_2  and  C_3 
REMARK       I    between atoms: C_2  and  N_14 
REMARK    2  A    between atoms: C_3  and  C_4 
REMARK    3  A    between atoms: C_4  and  C_5 
REMARK    4  A    between atoms: N_14  and  N_15 
REMARK       I    between atoms: N_15  and  C_16 
REMARK       I    between atoms: C_16  and  N_18 
REMARK    5  A    between atoms: N_18  and  C_19 
REMARK    6  A    between atoms: C_19  and  C_20 
REMARK    7  A    between atoms: C_20  and  C_21 
REMARK    8  A    between atoms: C_21  and  N_22 
ROOT
ATOM      1  O   UNL d   1      27.799 -15.215  -2.066  0.00  0.00    -0.272 OA
ATOM      2  C   UNL d   1      27.785 -15.433  -0.855  0.00  0.00     0.236 C 
ATOM      3  N   UNL d   1      28.847 -15.026  -0.072  0.00  0.00    -0.266 N 
ATOM      4  H   UNL d   1      29.614 -14.548  -0.551  0.00  0.00     0.190 HD
ENDROOT
BRANCH   3   5
ATOM      5  N   UNL d   1      28.986 -15.203   1.324  0.00  0.00    -0.249 N 
ATOM      6  C   UNL d   1      28.144 -14.497   2.172  0.00  0.00     0.334 C 
ATOM      7  O   UNL d   1      27.279 -13.719   1.773  0.00  0.00    -0.246 OA
ATOM      8  N   UNL d   1      28.356 -14.744   3.518  0.00  0.00    -0.342 N 
ATOM      9  H   UNL d   1      29.092 -15.381   3.783  0.00  0.00     0.164 HD
ATOM     10  H   UNL d   1      29.693 -15.839   1.662  0.00  0.00     0.192 HD
BRANCH   8  11
ATOM     11  C   UNL d   1      27.557 -14.072   4.543  0.00  0.00     0.126 C 
BRANCH  11  12
ATOM     12  C   UNL d   1      28.155 -14.168   5.953  0.00  0.00     0.040 C 
BRANCH  12  13
ATOM     13  C   UNL d   1      29.425 -13.325   6.104  0.00  0.00     0.130 C 
BRANCH  13  14
ATOM     14  N   UNL d   1      29.239 -12.240   7.090  0.00  0.00    -0.352 N 
ATOM     15  C   UNL d   1      29.734 -10.942   6.985  0.00  0.00     0.108 A 
ATOM     16  C   UNL d   1      29.330 -10.269   8.105  0.00  0.00     0.106 A 
ATOM     17  N   UNL d   1      28.597 -11.164   8.847  0.00  0.00    -0.361 N 
ATOM     18  C   UNL d   1      28.531 -12.347   8.228  0.00  0.00     0.182 A 
ATOM     19  H   UNL d   1      28.156 -10.961   9.742  0.00  0.00     0.166 HD
ENDBRANCH  13  14
ENDBRANCH  12  13
ENDBRANCH  11  12
ENDBRANCH   8  11
ENDBRANCH   3   5
BRANCH   2  20
ATOM     20  C   UNL d   1      26.628 -16.148  -0.181  0.00  0.00     0.109 C 
BRANCH  20  21
ATOM     21  C   UNL d   1      25.268 -15.725  -0.759  0.00  0.00     0.048 C 
BRANCH  21  22
ATOM     22  C   UNL d   1      24.253 -16.845  -0.690  0.00  0.00    -0.055 A 
ATOM     23  C   UNL d   1      24.671 -18.169  -0.418  0.00  0.00     0.010 A 
ATOM     24  C   UNL d   1      23.747 -19.215  -0.336  0.00  0.00     0.040 A 
ATOM     25  C   UNL d   1      22.419 -18.915  -0.543  0.00  0.00     0.105 A 
ATOM     26  C   UNL d   1      22.002 -17.635  -0.820  0.00  0.00     0.105 A 
ATOM     27  O   UNL d   1      21.386 -19.799  -0.504  0.00  0.00    -0.323 OA
ATOM     28  C   UNL d   1      22.889 -16.580  -0.895  0.00  0.00     0.047 A 
ATOM     29  O   UNL d   1      20.655 -17.557  -1.002  0.00  0.00    -0.323 OA
ATOM     30  C   UNL d   1      20.288 -18.949  -0.896  0.00  0.00     0.352 A 
ENDBRANCH  21  22
ENDBRANCH  20  21
ENDBRANCH   2  20
TORSDOF 8
ENDMDL
MODEL 5
REMARK VINA RESULT:    -7.337      2.049      2.850
REMARK INTER + INTRA:         -10.617
REMARK INTER:                  -9.724
REMARK INTRA:                  -0.893
REMARK CONF_INDEPENDENT:        2.386
REMARK UNBOUND:                -0.893
REMARK  8 active torsions:
REMARK  status: ('A' for Active; 'I' for Inactive)
REMARK    1  A    between atoms: C_2  and  C_3 
REMARK       I    between atoms: C_2  and  N_14 
REMARK    2  A    between atoms: C_3  and  C_4 
REMARK    3  A    between atoms: C_4  and  C_5 
REMARK    4  A    between atoms: N_14  and  N_15 
REMARK       I    between atoms: N_15  and  C_16 
REMARK       I    between atoms: C_16  and  N_18 
REMARK    5  A    between atoms: N_18  and  C_19 
REMARK    6  A    between atoms: C_19  and  C_20 
REMARK    7  A    between atoms: C_20  and  C_21 
REMARK    8  A    between atoms: C_21  and  N_22 
ROOT
ATOM      1  O   UNL d   1      28.189 -16.917  -2.501  0.00  0.00    -0.272 OA
ATOM      2  C   UNL d   1      28.263 -16.600  -1.314  0.00  0.00     0.236 C 
ATOM      3  N   UNL d   1      29.498 -16.378  -0.739  0.00  0.00    -0.266 N 
ATOM      4  H   UNL d   1      30.314 -16.489  -1.344  0.00  0.00     0.190 HD
ENDROOT
BRANCH   3   5
ATOM      5  N   UNL d   1      29.752 -16.013   0.603  0.00  0.00    -0.249 N 
ATOM      6  C   UNL d   1      30.351 -14.787   0.859  0.00  0.00     0.334 C 
ATOM      7  O   UNL d   1      30.675 -13.996  -0.025  0.00  0.00    -0.246 OA
ATOM      8  N   UNL d   1      30.551 -14.522   2.203  0.00  0.00    -0.342 N 
ATOM      9  H   UNL d   1      30.278 -15.218   2.880  0.00  0.00     0.164 HD
ATOM     10  H   UNL d   1      29.489 -16.655   1.337  0.00  0.00     0.192 HD
BRANCH   8  11
ATOM     11  C   UNL d   1      31.179 -13.274   2.641  0.00  0.00     0.126 C 
BRANCH  11  12
ATOM     12  C   UNL d   1      30.178 -12.146   2.923  0.00  0.00     0.040 C 
BRANCH  12  13
ATOM     13  C   UNL d   1      29.741 -12.111   4.391  0.00  0.00     0.130 C 
BRANCH  13  14
ATOM     14  N   UNL d   1      29.108 -13.383   4.796  0.00  0.00    -0.352 N 
ATOM     15  C   UNL d   1      28.054 -14.020   4.144  0.00  0.00     0.108 A 
ATOM     16  C   UNL d   1      27.783 -15.162   4.845  0.00  0.00     0.106 A 
ATOM     17  N   UNL d   1      28.678 -15.194   5.888  0.00  0.00    -0.361 N 
ATOM     18  C   UNL d   1      29.485 -14.130   5.849  0.00  0.00     0.182 A 
ATOM     19  H   UNL d   1      28.731 -15.927   6.593  0.00  0.00     0.166 HD
ENDBRANCH  13  14
ENDBRANCH  12  13
ENDBRANCH  11  12
ENDBRANCH   8  11
ENDBRANCH   3   5
BRANCH   2  20
ATOM     20  C   UNL d   1      27.027 -16.447  -0.447  0.00  0.00     0.109 C 
BRANCH  20  21
ATOM     21  C   UNL d   1      26.313 -17.787  -0.208  0.00  0.00     0.048 C 
BRANCH  21  22
ATOM     22  C   UNL d   1      24.822 -17.681  -0.441  0.00  0.00    -0.055 A 
ATOM     23  C   UNL d   1      24.214 -16.414  -0.598  0.00  0.00     0.010 A 
ATOM     24  C   UNL d   1      22.840 -16.296  -0.829  0.00  0.00     0.040 A 
ATOM     25  C   UNL d   1      22.098 -17.455  -0.883  0.00  0.00     0.105 A 
ATOM     26  C   UNL d   1      22.674 -18.691  -0.719  0.00  0.00     0.105 A 
ATOM     27  O   UNL d   1      20.756 -17.533  -1.095  0.00  0.00    -0.323 OA
ATOM     28  C   UNL d   1      24.029 -18.840  -0.503  0.00  0.00     0.047 A 
ATOM     29  O   UNL d   1      21.766 -19.701  -0.796  0.00  0.00    -0.323 OA
ATOM     30  C   UNL d   1      20.541 -18.951  -0.937  0.00  0.00     0.352 A 
ENDBRANCH  21  22
ENDBRANCH  20  21
ENDBRANCH   2  20
TORSDOF 8
ENDMDL
MODEL 6
REMARK VINA RESULT:    -7.327      4.870      9.287
REMARK INTER + INTRA:         -10.405
REMARK INTER:                  -9.714
REMARK INTRA:                  -0.692
REMARK CONF_INDEPENDENT:        2.386
REMARK UNBOUND:                -0.692
REMARK  8 active torsions:
REMARK  status: ('A' for Active; 'I' for Inactive)
REMARK    1  A    between atoms: C_2  and  C_3 
REMARK       I    between atoms: C_2  and  N_14 
REMARK    2  A    between atoms: C_3  and  C_4 
REMARK    3  A    between atoms: C_4  and  C_5 
REMARK    4  A    between atoms: N_14  and  N_15 
REMARK       I    between atoms: N_15  and  C_16 
REMARK       I    between atoms: C_16  and  N_18 
REMARK    5  A    between atoms: N_18  and  C_19 
REMARK    6  A    between atoms: C_19  and  C_20 
REMARK    7  A    between atoms: C_20  and  C_21 
REMARK    8  A    between atoms: C_21  and  N_22 
ROOT
ATOM      1  O   UNL d   1      26.923 -15.339   0.817  0.00  0.00    -0.272 OA
ATOM      2  C   UNL d   1      27.431 -16.268   0.188  0.00  0.00     0.236 C 
ATOM      3  N   UNL d   1      28.765 -16.569   0.369  0.00  0.00    -0.266 N 
ATOM      4  H   UNL d   1      29.281 -15.991   1.035  0.00  0.00     0.190 HD
ENDROOT
BRANCH   3   5
ATOM      5  N   UNL d   1      29.496 -17.595  -0.275  0.00  0.00    -0.249 N 
ATOM      6  C   UNL d   1      30.079 -17.327  -1.505  0.00  0.00     0.334 C 
ATOM      7  O   UNL d   1      29.993 -16.239  -2.072  0.00  0.00    -0.246 OA
ATOM      8  N   UNL d   1      30.775 -18.393  -2.048  0.00  0.00    -0.342 N 
ATOM      9  H   UNL d   1      30.797 -19.266  -1.543  0.00  0.00     0.164 HD
ATOM     10  H   UNL d   1      29.573 -18.492   0.182  0.00  0.00     0.192 HD
BRANCH   8  11
ATOM     11  C   UNL d   1      31.442 -18.277  -3.346  0.00  0.00     0.126 C 
BRANCH  11  12
ATOM     12  C   UNL d   1      30.741 -19.048  -4.471  0.00  0.00     0.040 C 
BRANCH  12  13
ATOM     13  C   UNL d   1      30.405 -18.154  -5.669  0.00  0.00     0.130 C 
BRANCH  13  14
ATOM     14  N   UNL d   1      30.836 -18.770  -6.940  0.00  0.00    -0.352 N 
ATOM     15  C   UNL d   1      30.856 -20.134  -7.226  0.00  0.00     0.108 A 
ATOM     16  C   UNL d   1      31.317 -20.267  -8.506  0.00  0.00     0.106 A 
ATOM     17  N   UNL d   1      31.552 -18.993  -8.964  0.00  0.00    -0.361 N 
ATOM     18  C   UNL d   1      31.249 -18.091  -8.025  0.00  0.00     0.182 A 
ATOM     19  H   UNL d   1      31.902 -18.758  -9.891  0.00  0.00     0.166 HD
ENDBRANCH  13  14
ENDBRANCH  12  13
ENDBRANCH  11  12
ENDBRANCH   8  11
ENDBRANCH   3   5
BRANCH   2  20
ATOM     20  C   UNL d   1      26.631 -17.103  -0.795  0.00  0.00     0.109 C 
BRANCH  20  21
ATOM     21  C   UNL d   1      25.812 -18.200  -0.095  0.00  0.00     0.048 C 
BRANCH  21  22
ATOM     22  C   UNL d   1      24.331 -18.061  -0.371  0.00  0.00    -0.055 A 
ATOM     23  C   UNL d   1      23.770 -16.787  -0.622  0.00  0.00     0.010 A 
ATOM     24  C   UNL d   1      22.406 -16.640  -0.895  0.00  0.00     0.040 A 
ATOM     25  C   UNL d   1      21.627 -17.776  -0.895  0.00  0.00     0.105 A 
ATOM     26  C   UNL d   1      22.158 -19.017  -0.639  0.00  0.00     0.105 A 
ATOM     27  O   UNL d   1      20.289 -17.824  -1.134  0.00  0.00    -0.323 OA
ATOM     28  C   UNL d   1      23.502 -19.195  -0.381  0.00  0.00     0.047 A 
ATOM     29  O   UNL d   1      21.218 -20.001  -0.676  0.00  0.00    -0.323 OA
ATOM     30  C   UNL d   1      20.022 -19.222  -0.894  0.00  0.00     0.352 A 
ENDBRANCH  21  22
ENDBRANCH  20  21
ENDBRANCH   2  20
TORSDOF 8
ENDMDL
MODEL 7
REMARK VINA RESULT:    -7.291      5.934      7.381
REMARK INTER + INTRA:         -10.852
REMARK INTER:                  -9.678
REMARK INTRA:                  -1.174
REMARK CONF_INDEPENDENT:        2.386
REMARK UNBOUND:                -1.174
REMARK  8 active torsions:
REMARK  status: ('A' for Active; 'I' for Inactive)
REMARK    1  A    between atoms: C_2  and  C_3 
REMARK       I    between atoms: C_2  and  N_14 
REMARK    2  A    between atoms: C_3  and  C_4 
REMARK    3  A    between atoms: C_4  and  C_5 
REMARK    4  A    between atoms: N_14  and  N_15 
REMARK       I    between atoms: N_15  and  C_16 
REMARK       I    between atoms: C_16  and  N_18 
REMARK    5  A    between atoms: N_18  and  C_19 
REMARK    6  A    between atoms: C_19  and  C_20 
REMARK    7  A    between atoms: C_20  and  C_21 
REMARK    8  A    between atoms: C_21  and  N_22 
ROOT
ATOM      1  O   UNL d   1      23.648 -14.075  -3.526  0.00  0.00    -0.272 OA
ATOM      2  C   UNL d   1      24.865 -14.081  -3.712  0.00  0.00     0.236 C 
ATOM      3  N   UNL d   1      25.429 -13.180  -4.591  0.00  0.00    -0.266 N 
ATOM      4  H   UNL d   1      24.791 -12.531  -5.057  0.00  0.00     0.190 HD
ENDROOT
BRANCH   3   5
ATOM      5  N   UNL d   1      26.800 -13.060  -4.917  0.00  0.00    -0.249 N 
ATOM      6  C   UNL d   1      27.440 -14.138  -5.511  0.00  0.00     0.334 C 
ATOM      7  O   UNL d   1      26.878 -15.200  -5.771  0.00  0.00    -0.246 OA
ATOM      8  N   UNL d   1      28.778 -13.918  -5.795  0.00  0.00    -0.342 N 
ATOM      9  H   UNL d   1      29.187 -13.030  -5.544  0.00  0.00     0.164 HD
ATOM     10  H   UNL d   1      27.271 -12.192  -4.709  0.00  0.00     0.192 HD
BRANCH   8  11
ATOM     11  C   UNL d   1      29.598 -14.959  -6.416  0.00  0.00     0.126 C 
BRANCH  11  12
ATOM     12  C   UNL d   1      29.542 -16.307  -5.686  0.00  0.00     0.040 C 
BRANCH  12  13
ATOM     13  C   UNL d   1      30.600 -16.416  -4.584  0.00  0.00     0.130 C 
BRANCH  13  14
ATOM     14  N   UNL d   1      29.980 -16.481  -3.244  0.00  0.00    -0.352 N 
ATOM     15  C   UNL d   1      30.332 -17.356  -2.218  0.00  0.00     0.108 A 
ATOM     16  C   UNL d   1      29.515 -17.077  -1.158  0.00  0.00     0.106 A 
ATOM     17  N   UNL d   1      28.703 -16.044  -1.560  0.00  0.00    -0.361 N 
ATOM     18  C   UNL d   1      28.994 -15.676  -2.812  0.00  0.00     0.182 A 
ATOM     19  H   UNL d   1      27.983 -15.607  -0.989  0.00  0.00     0.166 HD
ENDBRANCH  13  14
ENDBRANCH  12  13
ENDBRANCH  11  12
ENDBRANCH   8  11
ENDBRANCH   3   5
BRANCH   2  20
ATOM     20  C   UNL d   1      25.780 -15.062  -3.001  0.00  0.00     0.109 C 
BRANCH  20  21
ATOM     21  C   UNL d   1      25.498 -15.132  -1.492  0.00  0.00     0.048 C 
BRANCH  21  22
ATOM     22  C   UNL d   1      24.667 -16.343  -1.129  0.00  0.00    -0.055 A 
ATOM     23  C   UNL d   1      25.296 -17.532  -0.691  0.00  0.00     0.010 A 
ATOM     24  C   UNL d   1      24.544 -18.657  -0.336  0.00  0.00     0.040 A 
ATOM     25  C   UNL d   1      23.174 -18.572  -0.441  0.00  0.00     0.105 A 
ATOM     26  C   UNL d   1      22.552 -17.426  -0.877  0.00  0.00     0.105 A 
ATOM     27  O   UNL d   1      22.288 -19.561  -0.144  0.00  0.00    -0.323 OA
ATOM     28  C   UNL d   1      23.266 -16.296  -1.222  0.00  0.00     0.047 A 
ATOM     29  O   UNL d   1      21.198 -17.555  -0.919  0.00  0.00    -0.323 OA
ATOM     30  C   UNL d   1      21.048 -18.942  -0.546  0.00  0.00     0.352 A 
ENDBRANCH  21  22
ENDBRANCH  20  21
ENDBRANCH   2  20
TORSDOF 8
ENDMDL
MODEL 8
REMARK VINA RESULT:    -7.258      5.150      7.452
REMARK INTER + INTRA:         -10.525
REMARK INTER:                  -9.644
REMARK INTRA:                  -0.880
REMARK CONF_INDEPENDENT:        2.386
REMARK UNBOUND:                -0.880
REMARK  8 active torsions:
REMARK  status: ('A' for Active; 'I' for Inactive)
REMARK    1  A    between atoms: C_2  and  C_3 
REMARK       I    between atoms: C_2  and  N_14 
REMARK    2  A    between atoms: C_3  and  C_4 
REMARK    3  A    between atoms: C_4  and  C_5 
REMARK    4  A    between atoms: N_14  and  N_15 
REMARK       I    between atoms: N_15  and  C_16 
REMARK       I    between atoms: C_16  and  N_18 
REMARK    5  A    between atoms: N_18  and  C_19 
REMARK    6  A    between atoms: C_19  and  C_20 
REMARK    7  A    between atoms: C_20  and  C_21 
REMARK    8  A    between atoms: C_21  and  N_22 
ROOT
ATOM      1  O   UNL d   1      26.823 -15.343  -1.489  0.00  0.00    -0.272 OA
ATOM      2  C   UNL d   1      27.442 -16.147  -0.792  0.00  0.00     0.236 C 
ATOM      3  N   UNL d   1      28.749 -16.462  -1.104  0.00  0.00    -0.266 N 
ATOM      4  H   UNL d   1      29.151 -15.998  -1.922  0.00  0.00     0.190 HD
ENDROOT
BRANCH   3   5
ATOM      5  N   UNL d   1      29.592 -17.361  -0.412  0.00  0.00    -0.249 N 
ATOM      6  C   UNL d   1      30.396 -18.221  -1.147  0.00  0.00     0.334 C 
ATOM      7  O   UNL d   1      30.415 -18.245  -2.376  0.00  0.00    -0.246 OA
ATOM      8  N   UNL d   1      31.187 -19.057  -0.376  0.00  0.00    -0.342 N 
ATOM      9  H   UNL d   1      31.115 -19.001   0.629  0.00  0.00     0.164 HD
ATOM     10  H   UNL d   1      29.585 -17.350   0.598  0.00  0.00     0.192 HD
BRANCH   8  11
ATOM     11  C   UNL d   1      32.087 -20.029  -0.998  0.00  0.00     0.126 C 
BRANCH  11  12
ATOM     12  C   UNL d   1      33.052 -20.697  -0.010  0.00  0.00     0.040 C 
BRANCH  12  13
ATOM     13  C   UNL d   1      32.317 -21.504   1.066  0.00  0.00     0.130 C 
BRANCH  13  14
ATOM     14  N   UNL d   1      31.364 -22.460   0.466  0.00  0.00    -0.352 N 
ATOM     15  C   UNL d   1      31.684 -23.504  -0.399  0.00  0.00     0.108 A 
ATOM     16  C   UNL d   1      30.513 -24.138  -0.710  0.00  0.00     0.106 A 
ATOM     17  N   UNL d   1      29.524 -23.476  -0.023  0.00  0.00    -0.361 N 
ATOM     18  C   UNL d   1      30.039 -22.474   0.696  0.00  0.00     0.182 A 
ATOM     19  H   UNL d   1      28.534 -23.713  -0.046  0.00  0.00     0.166 HD
ENDBRANCH  13  14
ENDBRANCH  12  13
ENDBRANCH  11  12
ENDBRANCH   8  11
ENDBRANCH   3   5
BRANCH   2  20
ATOM     20  C   UNL d   1      26.809 -16.817   0.414  0.00  0.00     0.109 C 
BRANCH  20  21
ATOM     21  C   UNL d   1      26.108 -18.135   0.047  0.00  0.00     0.048 C 
BRANCH  21  22
ATOM     22  C   UNL d   1      24.646 -17.924  -0.279  0.00  0.00    -0.055 A 
ATOM     23  C   UNL d   1      24.162 -16.628  -0.576  0.00  0.00     0.010 A 
ATOM     24  C   UNL d   1      22.817 -16.415  -0.894  0.00  0.00     0.040 A 
ATOM     25  C   UNL d   1      21.978 -17.507  -0.893  0.00  0.00     0.105 A 
ATOM     26  C   UNL d   1      22.433 -18.769  -0.594  0.00  0.00     0.105 A 
ATOM     27  O   UNL d   1      20.647 -17.490  -1.174  0.00  0.00    -0.323 OA
ATOM     28  C   UNL d   1      23.757 -19.012  -0.289  0.00  0.00     0.047 A 
ATOM     29  O   UNL d   1      21.443 -19.702  -0.639  0.00  0.00    -0.323 OA
ATOM     30  C   UNL d   1      20.298 -18.866  -0.911  0.00  0.00     0.352 A 
ENDBRANCH  21  22
ENDBRANCH  20  21
ENDBRANCH   2  20
TORSDOF 8
ENDMDL
MODEL 9
REMARK VINA RESULT:    -7.124      3.521     10.396
REMARK INTER + INTRA:         -10.492
REMARK INTER:                  -9.510
REMARK INTRA:                  -0.982
REMARK CONF_INDEPENDENT:        2.386
REMARK UNBOUND:                -0.982
REMARK  8 active torsions:
REMARK  status: ('A' for Active; 'I' for Inactive)
REMARK    1  A    between atoms: C_2  and  C_3 
REMARK       I    between atoms: C_2  and  N_14 
REMARK    2  A    between atoms: C_3  and  C_4 
REMARK    3  A    between atoms: C_4  and  C_5 
REMARK    4  A    between atoms: N_14  and  N_15 
REMARK       I    between atoms: N_15  and  C_16 
REMARK       I    between atoms: C_16  and  N_18 
REMARK    5  A    between atoms: N_18  and  C_19 
REMARK    6  A    between atoms: C_19  and  C_20 
REMARK    7  A    between atoms: C_20  and  C_21 
REMARK    8  A    between atoms: C_21  and  N_22 
ROOT
ATOM      1  O   UNL d   1      27.496 -12.541   5.537  0.00  0.00    -0.272 OA
ATOM      2  C   UNL d   1      28.067 -13.454   4.941  0.00  0.00     0.236 C 
ATOM      3  N   UNL d   1      27.669 -13.796   3.665  0.00  0.00    -0.266 N 
ATOM      4  H   UNL d   1      26.899 -13.257   3.264  0.00  0.00     0.190 HD
ENDROOT
BRANCH   3   5
ATOM      5  N   UNL d   1      28.216 -14.816   2.852  0.00  0.00    -0.249 N 
ATOM      6  C   UNL d   1      27.735 -14.967   1.559  0.00  0.00     0.334 C 
ATOM      7  O   UNL d   1      26.852 -14.259   1.078  0.00  0.00    -0.246 OA
ATOM      8  N   UNL d   1      28.338 -15.988   0.845  0.00  0.00    -0.342 N 
ATOM      9  H   UNL d   1      29.046 -16.545   1.300  0.00  0.00     0.164 HD
ATOM     10  H   UNL d   1      28.942 -15.403   3.237  0.00  0.00     0.192 HD
BRANCH   8  11
ATOM     11  C   UNL d   1      27.940 -16.284  -0.532  0.00  0.00     0.126 C 
BRANCH  11  12
ATOM     12  C   UNL d   1      26.709 -17.195  -0.636  0.00  0.00     0.040 C 
BRANCH  12  13
ATOM     13  C   UNL d   1      25.401 -16.401  -0.694  0.00  0.00     0.130 C 
BRANCH  13  14
ATOM     14  N   UNL d   1      24.227 -17.283  -0.530  0.00  0.00    -0.352 N 
ATOM     15  C   UNL d   1      22.905 -16.953  -0.824  0.00  0.00     0.108 A 
ATOM     16  C   UNL d   1      22.145 -18.052  -0.530  0.00  0.00     0.106 A 
ATOM     17  N   UNL d   1      23.018 -19.014  -0.082  0.00  0.00    -0.361 N 
ATOM     18  C   UNL d   1      24.273 -18.555  -0.095  0.00  0.00     0.182 A 
ATOM     19  H   UNL d   1      22.755 -19.952   0.216  0.00  0.00     0.166 HD
ENDBRANCH  13  14
ENDBRANCH  12  13
ENDBRANCH  11  12
ENDBRANCH   8  11
ENDBRANCH   3   5
BRANCH   2  20
ATOM     20  C   UNL d   1      29.207 -14.233   5.572  0.00  0.00     0.109 C 
BRANCH  20  21
ATOM     21  C   UNL d   1      30.107 -13.344   6.444  0.00  0.00     0.048 C 
BRANCH  21  22
ATOM     22  C   UNL d   1      29.905 -13.611   7.919  0.00  0.00    -0.055 A 
ATOM     23  C   UNL d   1      30.802 -14.450   8.620  0.00  0.00     0.010 A 
ATOM     24  C   UNL d   1      30.641 -14.698   9.988  0.00  0.00     0.040 A 
ATOM     25  C   UNL d   1      29.572 -14.108  10.624  0.00  0.00     0.105 A 
ATOM     26  C   UNL d   1      28.686 -13.301   9.951  0.00  0.00     0.105 A 
ATOM     27  O   UNL d   1      29.258 -14.237  11.941  0.00  0.00    -0.323 OA
ATOM     28  C   UNL d   1      28.826 -13.028   8.605  0.00  0.00     0.047 A 
ATOM     29  O   UNL d   1      27.698 -12.829  10.760  0.00  0.00    -0.323 OA
ATOM     30  C   UNL d   1      28.015 -13.506  11.994  0.00  0.00     0.352 A 
ENDBRANCH  21  22
ENDBRANCH  20  21
ENDBRANCH   2  20
TORSDOF 8
ENDMDL
