MODEL 1
REMARK VINA RESULT:   -28.553      0.000      0.000
REMARK INTER + INTRA:         -33.150
REMARK INTER:                 -30.641
REMARK INTRA:                  -2.509
REMARK CONF_INDEPENDENT:        2.088
REMARK UNBOUND:                -2.509
REMARK  7 active torsions:
REMARK  status: ('A' for Active; 'I' for Inactive)
REMARK    1  A    between atoms: C_3  and  C_4 
REMARK       I    between atoms: C_4  and  N_6 
REMARK    2  A    between atoms: N_6  and  N_7 
REMARK    3  A    between atoms: N_13  and  C_14 
REMARK    4  A    between atoms: C_14  and  C_15 
REMARK    5  A    between atoms: N_23  and  C_24 
REMARK    6  A    between atoms: C_24  and  C_25 
REMARK       I    between atoms: C_25  and  N_27 
REMARK    7  A    between atoms: N_27  and  C_28 
ROOT
ATOM      1  C   UNL d   1      24.149 -19.464  -0.144  0.00  0.00     0.051 C 
ATOM      2  C   UNL d   1      24.176 -18.039  -0.683  0.00  0.00    -0.021 A 
ATOM      3  C   UNL d   1      23.030 -17.294  -1.093  0.00  0.00     0.083 A 
ATOM      4  S   UNL d   1      23.490 -15.733  -1.614  0.00  0.00    -0.065 SA
ATOM      5  C   UNL d   1      25.106 -15.969  -1.313  0.00  0.00     0.098 A 
ATOM      6  C   UNL d   1      25.439 -17.213  -0.840  0.00  0.00     0.074 A 
ATOM      7  C   UNL d   1      26.901 -17.439  -0.590  0.00  0.00     0.265 C 
ATOM      8  O   UNL d   1      27.336 -18.515  -0.186  0.00  0.00    -0.267 OA
ATOM      9  N   UNL d   1      27.742 -16.330  -0.904  0.00  0.00    -0.261 N 
ATOM     10  C   UNL d   1      27.287 -15.336  -1.756  0.00  0.00     0.333 C 
ATOM     11  O   UNL d   1      27.993 -14.857  -2.651  0.00  0.00    -0.246 OA
ATOM     12  N   UNL d   1      25.970 -14.932  -1.637  0.00  0.00    -0.283 N 
ENDROOT
BRANCH  12  13
ATOM     13  C   UNL d   1      25.526 -13.650  -2.276  0.00  0.00     0.237 C 
BRANCH  13  14
ATOM     14  C   UNL d   1      25.933 -13.378  -3.741  0.00  0.00     0.240 C 
ATOM     15  O   UNL d   1      25.328 -13.887  -4.681  0.00  0.00    -0.271 OA
ATOM     16  N   UNL d   1      27.107 -12.669  -3.990  0.00  0.00    -0.326 N 
ATOM     17  H   UNL d   1      27.899 -12.874  -3.394  0.00  0.00     0.169 HD
BRANCH  16  18
ATOM     18  C   UNL d   1      27.376 -12.379  -5.363  0.00  0.00     0.034 A 
ATOM     19  C   UNL d   1      27.182 -11.100  -5.886  0.00  0.00     0.029 A 
ATOM     20  C   UNL d   1      27.531 -10.836  -7.220  0.00  0.00     0.002 A 
ATOM     21  C   UNL d   1      28.055 -11.843  -8.035  0.00  0.00     0.000 A 
ATOM     22  C   UNL d   1      28.268 -13.113  -7.512  0.00  0.00     0.002 A 
ATOM     23  C   UNL d   1      27.939 -13.373  -6.181  0.00  0.00     0.029 A 
ENDBRANCH  16  18
ENDBRANCH  13  14
ENDBRANCH  12  13
BRANCH   9  24
ATOM     24  C   UNL d   1      29.233 -16.431  -0.755  0.00  0.00     0.175 C 
BRANCH  24  25
ATOM     25  C   UNL d   1      30.017 -17.187  -1.859  0.00  0.00    -0.040 A 
ATOM     26  C   UNL d   1      30.752 -18.356  -1.558  0.00  0.00     0.009 A 
ATOM     27  C   UNL d   1      31.270 -19.178  -2.576  0.00  0.00     0.001 A 
ATOM     28  C   UNL d   1      31.059 -18.856  -3.912  0.00  0.00     0.000 A 
ATOM     29  C   UNL d   1      30.357 -17.698  -4.232  0.00  0.00     0.001 A 
ATOM     30  C   UNL d   1      29.866 -16.856  -3.218  0.00  0.00     0.009 A 
ENDBRANCH  24  25
ENDBRANCH   9  24
BRANCH   3  31
ATOM     31  C   UNL d   1      21.556 -17.536  -1.166  0.00  0.00     0.273 C 
ATOM     32  O   UNL d   1      20.706 -16.652  -1.270  0.00  0.00    -0.266 OA
ATOM     33  N   UNL d   1      21.153 -18.906  -1.099  0.00  0.00    -0.289 N 
ATOM     34  H   UNL d   1      21.868 -19.634  -1.096  0.00  0.00     0.183 HD
BRANCH  33  35
ATOM     35  N   UNL d   1      19.807 -19.325  -1.270  0.00  0.00    -0.247 NA
ATOM     36  H   UNL d   1      19.682 -19.578  -2.256  0.00  0.00     0.143 HD
ATOM     37  H   UNL d   1      19.181 -18.528  -1.114  0.00  0.00     0.143 HD
ENDBRANCH  33  35
ENDBRANCH   3  31
TORSDOF 7
ENDMDL
MODEL 2
REMARK VINA RESULT:   -28.516      2.552      3.777
REMARK INTER + INTRA:         -32.907
REMARK INTER:                 -30.604
REMARK INTRA:                  -2.303
REMARK CONF_INDEPENDENT:        2.088
REMARK UNBOUND:                -2.303
REMARK  7 active torsions:
REMARK  status: ('A' for Active; 'I' for Inactive)
REMARK    1  A    between atoms: C_3  and  C_4 
REMARK       I    between atoms: C_4  and  N_6 
REMARK    2  A    between atoms: N_6  and  N_7 
REMARK    3  A    between atoms: N_13  and  C_14 
REMARK    4  A    between atoms: C_14  and  C_15 
REMARK    5  A    between atoms: N_23  and  C_24 
REMARK    6  A    between atoms: C_24  and  C_25 
REMARK       I    between atoms: C_25  and  N_27 
REMARK    7  A    between atoms: N_27  and  C_28 
ROOT
ATOM      1  C   UNL d   1      24.912 -18.574   1.181  0.00  0.00     0.051 C 
ATOM      2  C   UNL d   1      24.674 -17.554   0.073  0.00  0.00    -0.021 A 
ATOM      3  C   UNL d   1      23.585 -17.581  -0.848  0.00  0.00     0.083 A 
ATOM      4  S   UNL d   1      23.675 -16.250  -1.914  0.00  0.00    -0.065 SA
ATOM      5  C   UNL d   1      25.051 -15.626  -1.225  0.00  0.00     0.098 A 
ATOM      6  C   UNL d   1      25.568 -16.356  -0.186  0.00  0.00     0.074 A 
ATOM      7  C   UNL d   1      26.825 -15.809   0.426  0.00  0.00     0.265 C 
ATOM      8  O   UNL d   1      27.402 -16.377   1.349  0.00  0.00    -0.267 OA
ATOM      9  N   UNL d   1      27.317 -14.615  -0.182  0.00  0.00    -0.261 N 
ATOM     10  C   UNL d   1      26.913 -14.274  -1.463  0.00  0.00     0.333 C 
ATOM     11  O   UNL d   1      27.703 -13.856  -2.317  0.00  0.00    -0.246 OA
ATOM     12  N   UNL d   1      25.589 -14.486  -1.803  0.00  0.00    -0.283 N 
ENDROOT
BRANCH  12  13
ATOM     13  C   UNL d   1      25.023 -13.828  -3.027  0.00  0.00     0.237 C 
BRANCH  13  14
ATOM     14  C   UNL d   1      25.882 -13.801  -4.312  0.00  0.00     0.240 C 
ATOM     15  O   UNL d   1      25.915 -14.758  -5.081  0.00  0.00    -0.271 OA
ATOM     16  N   UNL d   1      26.754 -12.733  -4.513  0.00  0.00    -0.326 N 
ATOM     17  H   UNL d   1      27.252 -12.391  -3.700  0.00  0.00     0.169 HD
BRANCH  16  18
ATOM     18  C   UNL d   1      27.450 -12.728  -5.761  0.00  0.00     0.034 A 
ATOM     19  C   UNL d   1      28.291 -13.778  -6.127  0.00  0.00     0.029 A 
ATOM     20  C   UNL d   1      28.897 -13.773  -7.393  0.00  0.00     0.002 A 
ATOM     21  C   UNL d   1      28.679 -12.720  -8.285  0.00  0.00     0.000 A 
ATOM     22  C   UNL d   1      27.826 -11.681  -7.932  0.00  0.00     0.002 A 
ATOM     23  C   UNL d   1      27.209 -11.693  -6.681  0.00  0.00     0.029 A 
ENDBRANCH  16  18
ENDBRANCH  13  14
ENDBRANCH  12  13
BRANCH   9  24
ATOM     24  C   UNL d   1      28.596 -13.987   0.290  0.00  0.00     0.175 C 
BRANCH  24  25
ATOM     25  C   UNL d   1      28.753 -13.726   1.810  0.00  0.00    -0.040 A 
ATOM     26  C   UNL d   1      27.668 -13.253   2.582  0.00  0.00     0.009 A 
ATOM     27  C   UNL d   1      27.722 -13.235   3.988  0.00  0.00     0.001 A 
ATOM     28  C   UNL d   1      28.854 -13.695   4.652  0.00  0.00     0.000 A 
ATOM     29  C   UNL d   1      29.943 -14.144   3.911  0.00  0.00     0.001 A 
ATOM     30  C   UNL d   1      29.906 -14.134   2.505  0.00  0.00     0.009 A 
ENDBRANCH  24  25
ENDBRANCH   9  24
BRANCH   3  31
ATOM     31  C   UNL d   1      22.403 -18.464  -1.095  0.00  0.00     0.273 C 
ATOM     32  O   UNL d   1      22.472 -19.639  -1.454  0.00  0.00    -0.266 OA
ATOM     33  N   UNL d   1      21.125 -17.855  -0.893  0.00  0.00    -0.289 N 
ATOM     34  H   UNL d   1      21.082 -16.908  -0.516  0.00  0.00     0.183 HD
BRANCH  33  35
ATOM     35  N   UNL d   1      19.905 -18.576  -0.968  0.00  0.00    -0.247 NA
ATOM     36  H   UNL d   1      20.029 -19.327  -1.657  0.00  0.00     0.143 HD
ATOM     37  H   UNL d   1      19.176 -17.970  -1.358  0.00  0.00     0.143 HD
ENDBRANCH  33  35
ENDBRANCH   3  31
TORSDOF 7
ENDMDL
MODEL 3
REMARK VINA RESULT:   -28.492      1.810      2.273
REMARK INTER + INTRA:         -32.721
REMARK INTER:                 -30.580
REMARK INTRA:                  -2.140
REMARK CONF_INDEPENDENT:        2.088
REMARK UNBOUND:                -2.140
REMARK  7 active torsions:
REMARK  status: ('A' for Active; 'I' for Inactive)
REMARK    1  A    between atoms: C_3  and  C_4 
REMARK       I    between atoms: C_4  and  N_6 
REMARK    2  A    between atoms: N_6  and  N_7 
REMARK    3  A    between atoms: N_13  and  C_14 
REMARK    4  A    between atoms: C_14  and  C_15 
REMARK    5  A    between atoms: N_23  and  C_24 
REMARK    6  A    between atoms: C_24  and  C_25 
REMARK       I    between atoms: C_25  and  N_27 
REMARK    7  A    between atoms: N_27  and  C_28 
ROOT
ATOM      1  C   UNL d   1      25.347 -18.572   0.925  0.00  0.00     0.051 C 
ATOM      2  C   UNL d   1      24.853 -17.554  -0.096  0.00  0.00    -0.021 A 
ATOM      3  C   UNL d   1      23.486 -17.341  -0.447  0.00  0.00     0.083 A 
ATOM      4  S   UNL d   1      23.358 -16.099  -1.613  0.00  0.00    -0.065 SA
ATOM      5  C   UNL d   1      24.992 -15.808  -1.671  0.00  0.00     0.098 A 
ATOM      6  C   UNL d   1      25.760 -16.615  -0.869  0.00  0.00     0.074 A 
ATOM      7  C   UNL d   1      27.239 -16.372  -0.934  0.00  0.00     0.265 C 
ATOM      8  O   UNL d   1      28.039 -17.038  -0.282  0.00  0.00    -0.267 OA
ATOM      9  N   UNL d   1      27.639 -15.348  -1.845  0.00  0.00    -0.261 N 
ATOM     10  C   UNL d   1      26.782 -14.952  -2.860  0.00  0.00     0.333 C 
ATOM     11  O   UNL d   1      27.173 -14.761  -4.018  0.00  0.00    -0.246 OA
ATOM     12  N   UNL d   1      25.435 -14.848  -2.568  0.00  0.00    -0.283 N 
ENDROOT
BRANCH  12  13
ATOM     13  C   UNL d   1      24.528 -14.105  -3.504  0.00  0.00     0.237 C 
BRANCH  13  14
ATOM     14  C   UNL d   1      25.055 -12.813  -4.169  0.00  0.00     0.240 C 
ATOM     15  O   UNL d   1      25.109 -12.697  -5.390  0.00  0.00    -0.271 OA
ATOM     16  N   UNL d   1      25.625 -11.829  -3.364  0.00  0.00    -0.326 N 
ATOM     17  H   UNL d   1      26.212 -12.146  -2.601  0.00  0.00     0.169 HD
BRANCH  16  18
ATOM     18  C   UNL d   1      26.009 -10.627  -4.033  0.00  0.00     0.034 A 
ATOM     19  C   UNL d   1      25.294  -9.441  -3.865  0.00  0.00     0.029 A 
ATOM     20  C   UNL d   1      25.748  -8.264  -4.479  0.00  0.00     0.002 A 
ATOM     21  C   UNL d   1      26.901  -8.268  -5.269  0.00  0.00     0.000 A 
ATOM     22  C   UNL d   1      27.628  -9.442  -5.422  0.00  0.00     0.002 A 
ATOM     23  C   UNL d   1      27.188 -10.611  -4.799  0.00  0.00     0.029 A 
ENDBRANCH  16  18
ENDBRANCH  13  14
ENDBRANCH  12  13
BRANCH   9  24
ATOM     24  C   UNL d   1      29.092 -15.035  -2.055  0.00  0.00     0.175 C 
BRANCH  24  25
ATOM     25  C   UNL d   1      29.766 -15.575  -3.343  0.00  0.00    -0.040 A 
ATOM     26  C   UNL d   1      29.925 -16.964  -3.552  0.00  0.00     0.009 A 
ATOM     27  C   UNL d   1      30.316 -17.475  -4.804  0.00  0.00     0.001 A 
ATOM     28  C   UNL d   1      30.547 -16.615  -5.872  0.00  0.00     0.000 A 
ATOM     29  C   UNL d   1      30.418 -15.243  -5.682  0.00  0.00     0.001 A 
ATOM     30  C   UNL d   1      30.060 -14.725  -4.424  0.00  0.00     0.009 A 
ENDBRANCH  24  25
ENDBRANCH   9  24
BRANCH   3  31
ATOM     31  C   UNL d   1      22.166 -17.919  -0.044  0.00  0.00     0.273 C 
ATOM     32  O   UNL d   1      21.852 -18.205   1.111  0.00  0.00    -0.266 OA
ATOM     33  N   UNL d   1      21.240 -18.143  -1.110  0.00  0.00    -0.289 N 
ATOM     34  H   UNL d   1      21.480 -17.827  -2.050  0.00  0.00     0.183 HD
BRANCH  33  35
ATOM     35  N   UNL d   1      19.905 -18.575  -0.896  0.00  0.00    -0.247 NA
ATOM     36  H   UNL d   1      19.283 -17.793  -1.129  0.00  0.00     0.143 HD
ATOM     37  H   UNL d   1      19.760 -18.746   0.105  0.00  0.00     0.143 HD
ENDBRANCH  33  35
ENDBRANCH   3  31
TORSDOF 7
ENDMDL
MODEL 4
REMARK VINA RESULT:   -27.926      1.668      2.143
REMARK INTER + INTRA:         -32.122
REMARK INTER:                 -30.014
REMARK INTRA:                  -2.108
REMARK CONF_INDEPENDENT:        2.088
REMARK UNBOUND:                -2.108
REMARK  7 active torsions:
REMARK  status: ('A' for Active; 'I' for Inactive)
REMARK    1  A    between atoms: C_3  and  C_4 
REMARK       I    between atoms: C_4  and  N_6 
REMARK    2  A    between atoms: N_6  and  N_7 
REMARK    3  A    between atoms: N_13  and  C_14 
REMARK    4  A    between atoms: C_14  and  C_15 
REMARK    5  A    between atoms: N_23  and  C_24 
REMARK    6  A    between atoms: C_24  and  C_25 
REMARK       I    between atoms: C_25  and  N_27 
REMARK    7  A    between atoms: N_27  and  C_28 
ROOT
ATOM      1  C   UNL d   1      25.132 -18.575   1.346  0.00  0.00     0.051 C 
ATOM      2  C   UNL d   1      24.770 -17.589   0.241  0.00  0.00    -0.021 A 
ATOM      3  C   UNL d   1      23.589 -17.650  -0.559  0.00  0.00     0.083 A 
ATOM      4  S   UNL d   1      23.554 -16.350  -1.666  0.00  0.00    -0.065 SA
ATOM      5  C   UNL d   1      24.989 -15.698  -1.144  0.00  0.00     0.098 A 
ATOM      6  C   UNL d   1      25.620 -16.394  -0.145  0.00  0.00     0.074 A 
ATOM      7  C   UNL d   1      26.929 -15.821   0.314  0.00  0.00     0.265 C 
ATOM      8  O   UNL d   1      27.606 -16.358   1.188  0.00  0.00    -0.267 OA
ATOM      9  N   UNL d   1      27.343 -14.643  -0.375  0.00  0.00    -0.261 N 
ATOM     10  C   UNL d   1      26.802 -14.341  -1.616  0.00  0.00     0.333 C 
ATOM     11  O   UNL d   1      27.495 -13.943  -2.560  0.00  0.00    -0.246 OA
ATOM     12  N   UNL d   1      25.453 -14.572  -1.808  0.00  0.00    -0.283 N 
ENDROOT
BRANCH  12  13
ATOM     13  C   UNL d   1      24.755 -13.954  -2.983  0.00  0.00     0.237 C 
BRANCH  13  14
ATOM     14  C   UNL d   1      25.539 -13.796  -4.306  0.00  0.00     0.240 C 
ATOM     15  O   UNL d   1      25.575 -14.696  -5.141  0.00  0.00    -0.271 OA
ATOM     16  N   UNL d   1      26.346 -12.673  -4.477  0.00  0.00    -0.326 N 
ATOM     17  H   UNL d   1      26.872 -12.362  -3.669  0.00  0.00     0.169 HD
BRANCH  16  18
ATOM     18  C   UNL d   1      26.971 -12.548  -5.755  0.00  0.00     0.034 A 
ATOM     19  C   UNL d   1      26.786 -11.415  -6.547  0.00  0.00     0.029 A 
ATOM     20  C   UNL d   1      27.479 -11.296  -7.762  0.00  0.00     0.002 A 
ATOM     21  C   UNL d   1      28.339 -12.308  -8.196  0.00  0.00     0.000 A 
ATOM     22  C   UNL d   1      28.542 -13.430  -7.401  0.00  0.00     0.002 A 
ATOM     23  C   UNL d   1      27.868 -13.542  -6.185  0.00  0.00     0.029 A 
ENDBRANCH  16  18
ENDBRANCH  13  14
ENDBRANCH  12  13
BRANCH   9  24
ATOM     24  C   UNL d   1      28.659 -13.992  -0.060  0.00  0.00     0.175 C 
BRANCH  24  25
ATOM     25  C   UNL d   1      29.917 -14.897  -0.013  0.00  0.00    -0.040 A 
ATOM     26  C   UNL d   1      29.979 -16.095  -0.760  0.00  0.00     0.009 A 
ATOM     27  C   UNL d   1      31.186 -16.800  -0.914  0.00  0.00     0.001 A 
ATOM     28  C   UNL d   1      32.357 -16.322  -0.336  0.00  0.00     0.000 A 
ATOM     29  C   UNL d   1      32.315 -15.155   0.421  0.00  0.00     0.001 A 
ATOM     30  C   UNL d   1      31.104 -14.464   0.606  0.00  0.00     0.009 A 
ENDBRANCH  24  25
ENDBRANCH   9  24
BRANCH   3  31
ATOM     31  C   UNL d   1      22.397 -18.548  -0.654  0.00  0.00     0.273 C 
ATOM     32  O   UNL d   1      22.434 -19.774  -0.548  0.00  0.00    -0.266 OA
ATOM     33  N   UNL d   1      21.149 -17.892  -0.892  0.00  0.00    -0.289 N 
ATOM     34  H   UNL d   1      21.118 -16.872  -0.897  0.00  0.00     0.183 HD
BRANCH  33  35
ATOM     35  N   UNL d   1      19.905 -18.575  -0.895  0.00  0.00    -0.247 NA
ATOM     36  H   UNL d   1      20.018 -19.426  -1.458  0.00  0.00     0.143 HD
ATOM     37  H   UNL d   1      19.209 -18.011  -1.394  0.00  0.00     0.143 HD
ENDBRANCH  33  35
ENDBRANCH   3  31
TORSDOF 7
ENDMDL
MODEL 5
REMARK VINA RESULT:   -27.588      1.527      2.070
REMARK INTER + INTRA:         -32.273
REMARK INTER:                 -29.676
REMARK INTRA:                  -2.597
REMARK CONF_INDEPENDENT:        2.088
REMARK UNBOUND:                -2.597
REMARK  7 active torsions:
REMARK  status: ('A' for Active; 'I' for Inactive)
REMARK    1  A    between atoms: C_3  and  C_4 
REMARK       I    between atoms: C_4  and  N_6 
REMARK    2  A    between atoms: N_6  and  N_7 
REMARK    3  A    between atoms: N_13  and  C_14 
REMARK    4  A    between atoms: C_14  and  C_15 
REMARK    5  A    between atoms: N_23  and  C_24 
REMARK    6  A    between atoms: C_24  and  C_25 
REMARK       I    between atoms: C_25  and  N_27 
REMARK    7  A    between atoms: N_27  and  C_28 
ROOT
ATOM      1  C   UNL d   1      25.274 -18.575   1.220  0.00  0.00     0.051 C 
ATOM      2  C   UNL d   1      24.839 -17.618   0.116  0.00  0.00    -0.021 A 
ATOM      3  C   UNL d   1      23.498 -17.443  -0.339  0.00  0.00     0.083 A 
ATOM      4  S   UNL d   1      23.438 -16.264  -1.573  0.00  0.00    -0.065 SA
ATOM      5  C   UNL d   1      25.068 -15.952  -1.533  0.00  0.00     0.098 A 
ATOM      6  C   UNL d   1      25.787 -16.705  -0.639  0.00  0.00     0.074 A 
ATOM      7  C   UNL d   1      27.264 -16.444  -0.615  0.00  0.00     0.265 C 
ATOM      8  O   UNL d   1      28.025 -17.064   0.123  0.00  0.00    -0.267 OA
ATOM      9  N   UNL d   1      27.715 -15.462  -1.548  0.00  0.00    -0.261 N 
ATOM     10  C   UNL d   1      26.926 -15.131  -2.639  0.00  0.00     0.333 C 
ATOM     11  O   UNL d   1      27.394 -14.992  -3.775  0.00  0.00    -0.246 OA
ATOM     12  N   UNL d   1      25.561 -15.031  -2.446  0.00  0.00    -0.283 N 
ENDROOT
BRANCH  12  13
ATOM     13  C   UNL d   1      24.713 -14.351  -3.479  0.00  0.00     0.237 C 
BRANCH  13  14
ATOM     14  C   UNL d   1      25.241 -13.049  -4.123  0.00  0.00     0.240 C 
ATOM     15  O   UNL d   1      24.858 -12.680  -5.230  0.00  0.00    -0.271 OA
ATOM     16  N   UNL d   1      26.287 -12.369  -3.501  0.00  0.00    -0.326 N 
ATOM     17  H   UNL d   1      27.024 -12.936  -3.100  0.00  0.00     0.169 HD
BRANCH  16  18
ATOM     18  C   UNL d   1      26.665 -11.130  -4.103  0.00  0.00     0.034 A 
ATOM     19  C   UNL d   1      27.682 -11.065  -5.055  0.00  0.00     0.029 A 
ATOM     20  C   UNL d   1      27.972  -9.842  -5.679  0.00  0.00     0.002 A 
ATOM     21  C   UNL d   1      27.263  -8.684  -5.346  0.00  0.00     0.000 A 
ATOM     22  C   UNL d   1      26.236  -8.748  -4.412  0.00  0.00     0.002 A 
ATOM     23  C   UNL d   1      25.934  -9.967  -3.804  0.00  0.00     0.029 A 
ENDBRANCH  16  18
ENDBRANCH  13  14
ENDBRANCH  12  13
BRANCH   9  24
ATOM     24  C   UNL d   1      29.175 -15.138  -1.674  0.00  0.00     0.175 C 
BRANCH  24  25
ATOM     25  C   UNL d   1      30.183 -16.315  -1.609  0.00  0.00    -0.040 A 
ATOM     26  C   UNL d   1      30.868 -16.619  -0.411  0.00  0.00     0.009 A 
ATOM     27  C   UNL d   1      31.599 -17.813  -0.269  0.00  0.00     0.001 A 
ATOM     28  C   UNL d   1      31.655 -18.730  -1.313  0.00  0.00     0.000 A 
ATOM     29  C   UNL d   1      31.006 -18.440  -2.509  0.00  0.00     0.001 A 
ATOM     30  C   UNL d   1      30.301 -17.233  -2.667  0.00  0.00     0.009 A 
ENDBRANCH  24  25
ENDBRANCH   9  24
BRANCH   3  31
ATOM     31  C   UNL d   1      22.160 -18.020   0.002  0.00  0.00     0.273 C 
ATOM     32  O   UNL d   1      21.818 -18.373   1.130  0.00  0.00    -0.266 OA
ATOM     33  N   UNL d   1      21.251 -18.156  -1.093  0.00  0.00    -0.289 N 
ATOM     34  H   UNL d   1      21.515 -17.785  -2.006  0.00  0.00     0.183 HD
BRANCH  33  35
ATOM     35  N   UNL d   1      19.904 -18.575  -0.931  0.00  0.00    -0.247 NA
ATOM     36  H   UNL d   1      19.302 -17.843  -1.323  0.00  0.00     0.143 HD
ATOM     37  H   UNL d   1      19.676 -18.607   0.067  0.00  0.00     0.143 HD
ENDBRANCH  33  35
ENDBRANCH   3  31
TORSDOF 7
ENDMDL
MODEL 6
REMARK VINA RESULT:   -27.085      2.212      3.250
REMARK INTER + INTRA:         -32.475
REMARK INTER:                 -29.173
REMARK INTRA:                  -3.302
REMARK CONF_INDEPENDENT:        2.088
REMARK UNBOUND:                -3.302
REMARK  7 active torsions:
REMARK  status: ('A' for Active; 'I' for Inactive)
REMARK    1  A    between atoms: C_3  and  C_4 
REMARK       I    between atoms: C_4  and  N_6 
REMARK    2  A    between atoms: N_6  and  N_7 
REMARK    3  A    between atoms: N_13  and  C_14 
REMARK    4  A    between atoms: C_14  and  C_15 
REMARK    5  A    between atoms: N_23  and  C_24 
REMARK    6  A    between atoms: C_24  and  C_25 
REMARK       I    between atoms: C_25  and  N_27 
REMARK    7  A    between atoms: N_27  and  C_28 
ROOT
ATOM      1  C   UNL d   1      25.353 -18.575   1.008  0.00  0.00     0.051 C 
ATOM      2  C   UNL d   1      24.852 -17.557  -0.009  0.00  0.00    -0.021 A 
ATOM      3  C   UNL d   1      23.490 -17.394  -0.405  0.00  0.00     0.083 A 
ATOM      4  S   UNL d   1      23.351 -16.133  -1.549  0.00  0.00    -0.065 SA
ATOM      5  C   UNL d   1      24.972 -15.773  -1.542  0.00  0.00     0.098 A 
ATOM      6  C   UNL d   1      25.744 -16.563  -0.729  0.00  0.00     0.074 A 
ATOM      7  C   UNL d   1      27.213 -16.257  -0.736  0.00  0.00     0.265 C 
ATOM      8  O   UNL d   1      28.018 -16.903  -0.070  0.00  0.00    -0.267 OA
ATOM      9  N   UNL d   1      27.601 -15.198  -1.611  0.00  0.00    -0.261 N 
ATOM     10  C   UNL d   1      26.764 -14.816  -2.648  0.00  0.00     0.333 C 
ATOM     11  O   UNL d   1      27.187 -14.583  -3.787  0.00  0.00    -0.246 OA
ATOM     12  N   UNL d   1      25.404 -14.775  -2.402  0.00  0.00    -0.283 N 
ENDROOT
BRANCH  12  13
ATOM     13  C   UNL d   1      24.500 -14.050  -3.355  0.00  0.00     0.237 C 
BRANCH  13  14
ATOM     14  C   UNL d   1      25.090 -12.896  -4.196  0.00  0.00     0.240 C 
ATOM     15  O   UNL d   1      24.831 -12.775  -5.391  0.00  0.00    -0.271 OA
ATOM     16  N   UNL d   1      26.058 -12.074  -3.622  0.00  0.00    -0.326 N 
ATOM     17  H   UNL d   1      26.748 -12.525  -3.034  0.00  0.00     0.169 HD
BRANCH  16  18
ATOM     18  C   UNL d   1      26.494 -10.976  -4.425  0.00  0.00     0.034 A 
ATOM     19  C   UNL d   1      25.945  -9.702  -4.273  0.00  0.00     0.029 A 
ATOM     20  C   UNL d   1      26.454  -8.633  -5.027  0.00  0.00     0.002 A 
ATOM     21  C   UNL d   1      27.494  -8.833  -5.939  0.00  0.00     0.000 A 
ATOM     22  C   UNL d   1      28.057 -10.096  -6.079  0.00  0.00     0.002 A 
ATOM     23  C   UNL d   1      27.564 -11.157  -5.318  0.00  0.00     0.029 A 
ENDBRANCH  16  18
ENDBRANCH  13  14
ENDBRANCH  12  13
BRANCH   9  24
ATOM     24  C   UNL d   1      29.046 -14.819  -1.762  0.00  0.00     0.175 C 
BRANCH  24  25
ATOM     25  C   UNL d   1      29.372 -13.339  -2.088  0.00  0.00    -0.040 A 
ATOM     26  C   UNL d   1      30.072 -12.991  -3.265  0.00  0.00     0.009 A 
ATOM     27  C   UNL d   1      30.170 -11.653  -3.690  0.00  0.00     0.001 A 
ATOM     28  C   UNL d   1      29.565 -10.638  -2.957  0.00  0.00     0.000 A 
ATOM     29  C   UNL d   1      28.889 -10.956  -1.783  0.00  0.00     0.001 A 
ATOM     30  C   UNL d   1      28.817 -12.287  -1.336  0.00  0.00     0.009 A 
ENDBRANCH  24  25
ENDBRANCH   9  24
BRANCH   3  31
ATOM     31  C   UNL d   1      22.184 -18.036  -0.062  0.00  0.00     0.273 C 
ATOM     32  O   UNL d   1      21.899 -18.493   1.044  0.00  0.00    -0.266 OA
ATOM     33  N   UNL d   1      21.233 -18.106  -1.127  0.00  0.00    -0.289 N 
ATOM     34  H   UNL d   1      21.448 -17.651  -2.015  0.00  0.00     0.183 HD
BRANCH  33  35
ATOM     35  N   UNL d   1      19.905 -18.575  -0.949  0.00  0.00    -0.247 NA
ATOM     36  H   UNL d   1      19.278 -17.765  -1.009  0.00  0.00     0.143 HD
ATOM     37  H   UNL d   1      19.797 -18.930   0.007  0.00  0.00     0.143 HD
ENDBRANCH  33  35
ENDBRANCH   3  31
TORSDOF 7
ENDMDL
MODEL 7
REMARK VINA RESULT:   -26.955      2.954      6.307
REMARK INTER + INTRA:         -30.760
REMARK INTER:                 -29.043
REMARK INTRA:                  -1.717
REMARK CONF_INDEPENDENT:        2.088
REMARK UNBOUND:                -1.717
REMARK  7 active torsions:
REMARK  status: ('A' for Active; 'I' for Inactive)
REMARK    1  A    between atoms: C_3  and  C_4 
REMARK       I    between atoms: C_4  and  N_6 
REMARK    2  A    between atoms: N_6  and  N_7 
REMARK    3  A    between atoms: N_13  and  C_14 
REMARK    4  A    between atoms: C_14  and  C_15 
REMARK    5  A    between atoms: N_23  and  C_24 
REMARK    6  A    between atoms: C_24  and  C_25 
REMARK       I    between atoms: C_25  and  N_27 
REMARK    7  A    between atoms: N_27  and  C_28 
ROOT
ATOM      1  C   UNL d   1      22.399 -15.197  -1.644  0.00  0.00     0.051 C 
ATOM      2  C   UNL d   1      23.575 -16.089  -1.265  0.00  0.00    -0.021 A 
ATOM      3  C   UNL d   1      23.469 -17.442  -0.822  0.00  0.00     0.083 A 
ATOM      4  S   UNL d   1      25.020 -18.091  -0.520  0.00  0.00    -0.065 SA
ATOM      5  C   UNL d   1      25.826 -16.706  -0.958  0.00  0.00     0.098 A 
ATOM      6  C   UNL d   1      25.027 -15.655  -1.327  0.00  0.00     0.074 A 
ATOM      7  C   UNL d   1      25.749 -14.394  -1.700  0.00  0.00     0.265 C 
ATOM      8  O   UNL d   1      25.152 -13.372  -2.029  0.00  0.00    -0.267 OA
ATOM      9  N   UNL d   1      27.171 -14.462  -1.593  0.00  0.00    -0.261 N 
ATOM     10  C   UNL d   1      27.759 -15.443  -0.809  0.00  0.00     0.333 C 
ATOM     11  O   UNL d   1      28.703 -15.203  -0.047  0.00  0.00    -0.246 OA
ATOM     12  N   UNL d   1      27.208 -16.711  -0.836  0.00  0.00    -0.283 N 
ENDROOT
BRANCH  12  13
ATOM     13  C   UNL d   1      27.990 -17.871  -0.295  0.00  0.00     0.237 C 
BRANCH  13  14
ATOM     14  C   UNL d   1      29.519 -17.897  -0.520  0.00  0.00     0.240 C 
ATOM     15  O   UNL d   1      30.054 -18.773  -1.194  0.00  0.00    -0.271 OA
ATOM     16  N   UNL d   1      30.316 -16.998   0.187  0.00  0.00    -0.326 N 
ATOM     17  H   UNL d   1      30.063 -16.827   1.153  0.00  0.00     0.169 HD
BRANCH  16  18
ATOM     18  C   UNL d   1      31.708 -17.019  -0.135  0.00  0.00     0.034 A 
ATOM     19  C   UNL d   1      32.578 -17.931   0.462  0.00  0.00     0.029 A 
ATOM     20  C   UNL d   1      33.923 -17.970   0.063  0.00  0.00     0.002 A 
ATOM     21  C   UNL d   1      34.404 -17.095  -0.914  0.00  0.00     0.000 A 
ATOM     22  C   UNL d   1      33.537 -16.198  -1.526  0.00  0.00     0.002 A 
ATOM     23  C   UNL d   1      32.195 -16.169  -1.143  0.00  0.00     0.029 A 
ENDBRANCH  16  18
ENDBRANCH  13  14
ENDBRANCH  12  13
BRANCH   9  24
ATOM     24  C   UNL d   1      28.020 -13.259  -1.881  0.00  0.00     0.175 C 
BRANCH  24  25
ATOM     25  C   UNL d   1      28.086 -12.148  -0.802  0.00  0.00    -0.040 A 
ATOM     26  C   UNL d   1      28.213 -10.788  -1.166  0.00  0.00     0.009 A 
ATOM     27  C   UNL d   1      28.039  -9.759  -0.222  0.00  0.00     0.001 A 
ATOM     28  C   UNL d   1      27.727 -10.063   1.099  0.00  0.00     0.000 A 
ATOM     29  C   UNL d   1      27.618 -11.396   1.483  0.00  0.00     0.001 A 
ATOM     30  C   UNL d   1      27.824 -12.429   0.551  0.00  0.00     0.009 A 
ENDBRANCH  24  25
ENDBRANCH   9  24
BRANCH   3  31
ATOM     31  C   UNL d   1      22.358 -18.412  -0.574  0.00  0.00     0.273 C 
ATOM     32  O   UNL d   1      22.475 -19.463   0.055  0.00  0.00    -0.266 OA
ATOM     33  N   UNL d   1      21.091 -18.054  -1.131  0.00  0.00    -0.289 N 
ATOM     34  H   UNL d   1      20.986 -17.143  -1.579  0.00  0.00     0.183 HD
BRANCH  33  35
ATOM     35  N   UNL d   1      19.905 -18.797  -0.895  0.00  0.00    -0.247 NA
ATOM     36  H   UNL d   1      19.997 -19.694  -1.385  0.00  0.00     0.143 HD
ATOM     37  H   UNL d   1      19.114 -18.324  -1.343  0.00  0.00     0.143 HD
ENDBRANCH  33  35
ENDBRANCH   3  31
TORSDOF 7
ENDMDL
MODEL 8
REMARK VINA RESULT:   -26.625      2.258      5.550
REMARK INTER + INTRA:         -30.962
REMARK INTER:                 -28.714
REMARK INTRA:                  -2.248
REMARK CONF_INDEPENDENT:        2.088
REMARK UNBOUND:                -2.248
REMARK  7 active torsions:
REMARK  status: ('A' for Active; 'I' for Inactive)
REMARK    1  A    between atoms: C_3  and  C_4 
REMARK       I    between atoms: C_4  and  N_6 
REMARK    2  A    between atoms: N_6  and  N_7 
REMARK    3  A    between atoms: N_13  and  C_14 
REMARK    4  A    between atoms: C_14  and  C_15 
REMARK    5  A    between atoms: N_23  and  C_24 
REMARK    6  A    between atoms: C_24  and  C_25 
REMARK       I    between atoms: C_25  and  N_27 
REMARK    7  A    between atoms: N_27  and  C_28 
ROOT
ATOM      1  C   UNL d   1      22.387 -15.202  -1.645  0.00  0.00     0.051 C 
ATOM      2  C   UNL d   1      23.561 -16.096  -1.264  0.00  0.00    -0.021 A 
ATOM      3  C   UNL d   1      23.452 -17.437  -0.787  0.00  0.00     0.083 A 
ATOM      4  S   UNL d   1      25.003 -18.091  -0.494  0.00  0.00    -0.065 SA
ATOM      5  C   UNL d   1      25.813 -16.724  -0.976  0.00  0.00     0.098 A 
ATOM      6  C   UNL d   1      25.016 -15.674  -1.357  0.00  0.00     0.074 A 
ATOM      7  C   UNL d   1      25.742 -14.428  -1.770  0.00  0.00     0.265 C 
ATOM      8  O   UNL d   1      25.147 -13.409  -2.114  0.00  0.00    -0.267 OA
ATOM      9  N   UNL d   1      27.164 -14.506  -1.683  0.00  0.00    -0.261 N 
ATOM     10  C   UNL d   1      27.757 -15.473  -0.886  0.00  0.00     0.333 C 
ATOM     11  O   UNL d   1      28.714 -15.223  -0.144  0.00  0.00    -0.246 OA
ATOM     12  N   UNL d   1      27.196 -16.737  -0.875  0.00  0.00    -0.283 N 
ENDROOT
BRANCH  12  13
ATOM     13  C   UNL d   1      27.977 -17.890  -0.319  0.00  0.00     0.237 C 
BRANCH  13  14
ATOM     14  C   UNL d   1      29.506 -17.921  -0.546  0.00  0.00     0.240 C 
ATOM     15  O   UNL d   1      30.051 -18.864  -1.114  0.00  0.00    -0.271 OA
ATOM     16  N   UNL d   1      30.292 -16.935   0.047  0.00  0.00    -0.326 N 
ATOM     17  H   UNL d   1      30.039 -16.654   0.987  0.00  0.00     0.169 HD
BRANCH  16  18
ATOM     18  C   UNL d   1      31.683 -16.973  -0.276  0.00  0.00     0.034 A 
ATOM     19  C   UNL d   1      32.259 -16.024  -1.121  0.00  0.00     0.029 A 
ATOM     20  C   UNL d   1      33.643 -16.051  -1.352  0.00  0.00     0.002 A 
ATOM     21  C   UNL d   1      34.449 -17.026  -0.759  0.00  0.00     0.000 A 
ATOM     22  C   UNL d   1      33.882 -17.962   0.099  0.00  0.00     0.002 A 
ATOM     23  C   UNL d   1      32.509 -17.926   0.344  0.00  0.00     0.029 A 
ENDBRANCH  16  18
ENDBRANCH  13  14
ENDBRANCH  12  13
BRANCH   9  24
ATOM     24  C   UNL d   1      28.019 -13.316  -2.012  0.00  0.00     0.175 C 
BRANCH  24  25
ATOM     25  C   UNL d   1      28.747 -13.309  -3.381  0.00  0.00    -0.040 A 
ATOM     26  C   UNL d   1      30.092 -13.732  -3.491  0.00  0.00     0.009 A 
ATOM     27  C   UNL d   1      30.689 -13.953  -4.745  0.00  0.00     0.001 A 
ATOM     28  C   UNL d   1      29.958 -13.766  -5.914  0.00  0.00     0.000 A 
ATOM     29  C   UNL d   1      28.639 -13.329  -5.829  0.00  0.00     0.001 A 
ATOM     30  C   UNL d   1      28.048 -13.075  -4.578  0.00  0.00     0.009 A 
ENDBRANCH  24  25
ENDBRANCH   9  24
BRANCH   3  31
ATOM     31  C   UNL d   1      22.338 -18.392  -0.500  0.00  0.00     0.273 C 
ATOM     32  O   UNL d   1      22.433 -19.378   0.231  0.00  0.00    -0.266 OA
ATOM     33  N   UNL d   1      21.096 -18.102  -1.146  0.00  0.00    -0.289 N 
ATOM     34  H   UNL d   1      21.006 -17.239  -1.682  0.00  0.00     0.183 HD
BRANCH  33  35
ATOM     35  N   UNL d   1      19.905 -18.833  -0.896  0.00  0.00    -0.247 NA
ATOM     36  H   UNL d   1      20.144 -19.613  -0.273  0.00  0.00     0.143 HD
ATOM     37  H   UNL d   1      19.586 -19.270  -1.766  0.00  0.00     0.143 HD
ENDBRANCH  33  35
ENDBRANCH   3  31
TORSDOF 7
ENDMDL
MODEL 9
REMARK VINA RESULT:   -25.841      2.514      3.251
REMARK INTER + INTRA:         -31.014
REMARK INTER:                 -27.929
REMARK INTRA:                  -3.085
REMARK CONF_INDEPENDENT:        2.088
REMARK UNBOUND:                -3.085
REMARK  7 active torsions:
REMARK  status: ('A' for Active; 'I' for Inactive)
REMARK    1  A    between atoms: C_3  and  C_4 
REMARK       I    between atoms: C_4  and  N_6 
REMARK    2  A    between atoms: N_6  and  N_7 
REMARK    3  A    between atoms: N_13  and  C_14 
REMARK    4  A    between atoms: C_14  and  C_15 
REMARK    5  A    between atoms: N_23  and  C_24 
REMARK    6  A    between atoms: C_24  and  C_25 
REMARK       I    between atoms: C_25  and  N_27 
REMARK    7  A    between atoms: N_27  and  C_28 
ROOT
ATOM      1  C   UNL d   1      24.222 -18.949   0.445  0.00  0.00     0.051 C 
ATOM      2  C   UNL d   1      24.316 -17.702  -0.426  0.00  0.00    -0.021 A 
ATOM      3  C   UNL d   1      23.207 -17.032  -1.024  0.00  0.00     0.083 A 
ATOM      4  S   UNL d   1      23.740 -15.668  -1.904  0.00  0.00    -0.065 SA
ATOM      5  C   UNL d   1      25.343 -15.893  -1.531  0.00  0.00     0.098 A 
ATOM      6  C   UNL d   1      25.617 -16.996  -0.762  0.00  0.00     0.074 A 
ATOM      7  C   UNL d   1      27.066 -17.216  -0.441  0.00  0.00     0.265 C 
ATOM      8  O   UNL d   1      27.449 -18.178   0.221  0.00  0.00    -0.267 OA
ATOM      9  N   UNL d   1      27.958 -16.256  -1.005  0.00  0.00    -0.261 N 
ATOM     10  C   UNL d   1      27.552 -15.483  -2.082  0.00  0.00     0.333 C 
ATOM     11  O   UNL d   1      28.283 -15.270  -3.056  0.00  0.00    -0.246 OA
ATOM     12  N   UNL d   1      26.254 -15.006  -2.085  0.00  0.00    -0.283 N 
ENDROOT
BRANCH  12  13
ATOM     13  C   UNL d   1      25.872 -13.902  -3.026  0.00  0.00     0.237 C 
BRANCH  13  14
ATOM     14  C   UNL d   1      26.618 -12.553  -2.919  0.00  0.00     0.240 C 
ATOM     15  O   UNL d   1      26.163 -11.528  -3.419  0.00  0.00    -0.271 OA
ATOM     16  N   UNL d   1      27.904 -12.538  -2.383  0.00  0.00    -0.326 N 
ATOM     17  H   UNL d   1      28.514 -13.306  -2.639  0.00  0.00     0.169 HD
BRANCH  16  18
ATOM     18  C   UNL d   1      28.499 -11.248  -2.234  0.00  0.00     0.034 A 
ATOM     19  C   UNL d   1      28.115 -10.386  -1.207  0.00  0.00     0.029 A 
ATOM     20  C   UNL d   1      28.776  -9.158  -1.048  0.00  0.00     0.002 A 
ATOM     21  C   UNL d   1      29.805  -8.783  -1.916  0.00  0.00     0.000 A 
ATOM     22  C   UNL d   1      30.204  -9.647  -2.928  0.00  0.00     0.002 A 
ATOM     23  C   UNL d   1      29.560 -10.876  -3.077  0.00  0.00     0.029 A 
ENDBRANCH  16  18
ENDBRANCH  13  14
ENDBRANCH  12  13
BRANCH   9  24
ATOM     24  C   UNL d   1      29.441 -16.383  -0.813  0.00  0.00     0.175 C 
BRANCH  24  25
ATOM     25  C   UNL d   1      30.280 -15.079  -0.795  0.00  0.00    -0.040 A 
ATOM     26  C   UNL d   1      30.488 -14.365   0.407  0.00  0.00     0.009 A 
ATOM     27  C   UNL d   1      31.429 -13.322   0.486  0.00  0.00     0.001 A 
ATOM     28  C   UNL d   1      32.187 -12.975  -0.628  0.00  0.00     0.000 A 
ATOM     29  C   UNL d   1      31.983 -13.651  -1.828  0.00  0.00     0.001 A 
ATOM     30  C   UNL d   1      31.020 -14.672  -1.920  0.00  0.00     0.009 A 
ENDBRANCH  24  25
ENDBRANCH   9  24
BRANCH   3  31
ATOM     31  C   UNL d   1      21.724 -17.221  -1.058  0.00  0.00     0.273 C 
ATOM     32  O   UNL d   1      20.909 -16.322  -1.271  0.00  0.00    -0.266 OA
ATOM     33  N   UNL d   1      21.266 -18.553  -0.813  0.00  0.00    -0.289 N 
ATOM     34  H   UNL d   1      21.952 -19.303  -0.719  0.00  0.00     0.183 HD
BRANCH  33  35
ATOM     35  N   UNL d   1      19.903 -18.934  -0.921  0.00  0.00    -0.247 NA
ATOM     36  H   UNL d   1      19.871 -19.842  -1.397  0.00  0.00     0.143 HD
ATOM     37  H   UNL d   1      19.418 -18.284  -1.547  0.00  0.00     0.143 HD
ENDBRANCH  33  35
ENDBRANCH   3  31
TORSDOF 7
ENDMDL
