MODEL 1
REMARK VINA RESULT:    -6.554      0.000      0.000
REMARK INTER + INTRA:         -12.476
REMARK INTER:                  -9.239
REMARK INTRA:                  -3.237
REMARK CONF_INDEPENDENT:        2.685
REMARK UNBOUND:                -3.237
REMARK  9 active torsions:
REMARK  status: ('A' for Active; 'I' for Inactive)
REMARK    1  A    between atoms: N_2  and  C_3 
REMARK    2  A    between atoms: C_3  and  N_5 
REMARK    3  A    between atoms: N_5  and  N_6 
REMARK       I    between atoms: N_6  and  C_7 
REMARK    4  A    between atoms: C_7  and  C_9 
REMARK    5  A    between atoms: C_9  and  S_10 
REMARK    6  A    between atoms: S_10  and  C_11 
REMARK    7  A    between atoms: C_12  and  N_13 
REMARK    8  A    between atoms: N_19  and  C_20 
REMARK    9  A    between atoms: C_20  and  C_21 
ROOT
ATOM      1  C   UNL d   1      26.365 -15.407  -2.419  0.00  0.00     0.127 A 
ATOM      2  C   UNL d   1      27.480 -15.496  -3.238  0.00  0.00     0.231 A 
ATOM      3  N   UNL d   1      28.467 -16.288  -2.665  0.00  0.00    -0.210 NA
ATOM      4  C   UNL d   1      27.970 -16.722  -1.522  0.00  0.00     0.106 A 
ATOM      5  C   UNL d   1      28.666 -17.602  -0.520  0.00  0.00     0.091 C 
ATOM      6  N   UNL d   1      26.663 -16.251  -1.342  0.00  0.00    -0.322 N 
ENDROOT
BRANCH   1   7
ATOM      7  S   UNL d   1      24.803 -14.695  -2.782  0.00  0.00    -0.099 SA
BRANCH   7   8
ATOM      8  C   UNL d   1      24.797 -14.002  -4.453  0.00  0.00     0.185 C 
BRANCH   8   9
ATOM      9  C   UNL d   1      25.481 -12.601  -4.505  0.00  0.00     0.245 C 
ATOM     10  N   UNL d   1      26.548 -12.519  -5.394  0.00  0.00    -0.267 N 
ATOM     11  H   UNL d   1      26.839 -13.295  -5.987  0.00  0.00     0.190 HD
ATOM     12  O   UNL d   1      25.155 -11.620  -3.825  0.00  0.00    -0.271 OA
BRANCH  10  13
ATOM     13  N   UNL d   1      27.274 -11.292  -5.590  0.00  0.00    -0.274 N 
ATOM     14  H   UNL d   1      28.183 -11.236  -5.131  0.00  0.00     0.189 HD
BRANCH  13  15
ATOM     15  C   UNL d   1      26.710 -10.261  -6.341  0.00  0.00     0.186 C 
ATOM     16  S   UNL d   1      27.552  -9.499  -7.583  0.00  0.00    -0.040 SA
BRANCH  15  17
ATOM     17  N   UNL d   1      25.417  -9.916  -5.974  0.00  0.00    -0.370 N 
ATOM     18  C   UNL d   1      24.880  -8.555  -6.035  0.00  0.00     0.148 C 
ATOM     19  H   UNL d   1      24.780 -10.632  -5.649  0.00  0.00     0.161 HD
ENDBRANCH  15  17
ENDBRANCH  13  15
ENDBRANCH  10  13
ENDBRANCH   8   9
ENDBRANCH   7   8
ENDBRANCH   1   7
BRANCH   2  20
ATOM     20  N   UNL d   1      27.663 -14.909  -4.559  0.00  0.00    -0.093 N 
ATOM     21  O   UNL d   1      27.025 -15.395  -5.499  0.00  0.00    -0.530 OA
ATOM     22  O   UNL d   1      28.470 -13.972  -4.672  0.00  0.00    -0.530 OA
ENDBRANCH   2  20
BRANCH   6  23
ATOM     23  C   UNL d   1      25.898 -16.703  -0.165  0.00  0.00     0.169 C 
BRANCH  23  24
ATOM     24  C   UNL d   1      24.573 -17.329  -0.451  0.00  0.00    -0.040 C 
ATOM     25  C   UNL d   1      24.406 -18.719  -0.454  0.00  0.00     0.009 C 
ATOM     26  C   UNL d   1      23.121 -19.253  -0.523  0.00  0.00     0.001 C 
ATOM     27  C   UNL d   1      22.011 -18.407  -0.490  0.00  0.00     0.000 C 
ATOM     28  C   UNL d   1      22.176 -17.025  -0.520  0.00  0.00     0.001 C 
ATOM     29  C   UNL d   1      23.456 -16.487  -0.575  0.00  0.00     0.009 C 
ENDBRANCH  23  24
ENDBRANCH   6  23
TORSDOF 9
ENDMDL
MODEL 2
REMARK VINA RESULT:    -6.314      1.730      2.283
REMARK INTER + INTRA:         -13.018
REMARK INTER:                  -8.999
REMARK INTRA:                  -4.020
REMARK CONF_INDEPENDENT:        2.685
REMARK UNBOUND:                -4.020
REMARK  9 active torsions:
REMARK  status: ('A' for Active; 'I' for Inactive)
REMARK    1  A    between atoms: N_2  and  C_3 
REMARK    2  A    between atoms: C_3  and  N_5 
REMARK    3  A    between atoms: N_5  and  N_6 
REMARK       I    between atoms: N_6  and  C_7 
REMARK    4  A    between atoms: C_7  and  C_9 
REMARK    5  A    between atoms: C_9  and  S_10 
REMARK    6  A    between atoms: S_10  and  C_11 
REMARK    7  A    between atoms: C_12  and  N_13 
REMARK    8  A    between atoms: N_19  and  C_20 
REMARK    9  A    between atoms: C_20  and  C_21 
ROOT
ATOM      1  C   UNL d   1      26.633 -15.031  -3.222  0.00  0.00     0.127 A 
ATOM      2  C   UNL d   1      27.768 -15.575  -3.804  0.00  0.00     0.231 A 
ATOM      3  N   UNL d   1      28.469 -16.367  -2.902  0.00  0.00    -0.210 NA
ATOM      4  C   UNL d   1      27.770 -16.352  -1.783  0.00  0.00     0.106 A 
ATOM      5  C   UNL d   1      28.125 -17.046  -0.496  0.00  0.00     0.091 C 
ATOM      6  N   UNL d   1      26.607 -15.587  -1.937  0.00  0.00    -0.322 N 
ENDROOT
BRANCH   1   7
ATOM      7  S   UNL d   1      25.337 -14.136  -3.996  0.00  0.00    -0.099 SA
BRANCH   7   8
ATOM      8  C   UNL d   1      25.526 -12.362  -3.694  0.00  0.00     0.185 C 
BRANCH   8   9
ATOM      9  C   UNL d   1      25.929 -11.591  -4.988  0.00  0.00     0.245 C 
ATOM     10  N   UNL d   1      26.803 -12.284  -5.819  0.00  0.00    -0.267 N 
ATOM     11  H   UNL d   1      27.126 -13.230  -5.620  0.00  0.00     0.190 HD
ATOM     12  O   UNL d   1      25.549 -10.452  -5.289  0.00  0.00    -0.271 OA
BRANCH  10  13
ATOM     13  N   UNL d   1      27.254 -11.733  -7.069  0.00  0.00    -0.274 N 
ATOM     14  H   UNL d   1      26.855 -10.830  -7.326  0.00  0.00     0.189 HD
BRANCH  13  15
ATOM     15  C   UNL d   1      28.154 -12.445  -7.861  0.00  0.00     0.186 C 
ATOM     16  S   UNL d   1      28.161 -12.316  -9.540  0.00  0.00    -0.040 SA
BRANCH  15  17
ATOM     17  N   UNL d   1      29.023 -13.267  -7.158  0.00  0.00    -0.370 N 
ATOM     18  C   UNL d   1      30.479 -13.250  -7.315  0.00  0.00     0.148 C 
ATOM     19  H   UNL d   1      28.655 -13.921  -6.479  0.00  0.00     0.161 HD
ENDBRANCH  15  17
ENDBRANCH  13  15
ENDBRANCH  10  13
ENDBRANCH   8   9
ENDBRANCH   7   8
ENDBRANCH   1   7
BRANCH   2  20
ATOM     20  N   UNL d   1      28.219 -15.429  -5.181  0.00  0.00    -0.093 N 
ATOM     21  O   UNL d   1      29.432 -15.514  -5.403  0.00  0.00    -0.530 OA
ATOM     22  O   UNL d   1      27.364 -15.201  -6.052  0.00  0.00    -0.530 OA
ENDBRANCH   2  20
BRANCH   6  23
ATOM     23  C   UNL d   1      25.641 -15.524  -0.824  0.00  0.00     0.169 C 
BRANCH  23  24
ATOM     24  C   UNL d   1      24.653 -16.640  -0.755  0.00  0.00    -0.040 C 
ATOM     25  C   UNL d   1      25.042 -17.943  -0.419  0.00  0.00     0.009 C 
ATOM     26  C   UNL d   1      24.066 -18.904  -0.168  0.00  0.00     0.001 C 
ATOM     27  C   UNL d   1      22.718 -18.545  -0.158  0.00  0.00     0.000 C 
ATOM     28  C   UNL d   1      22.328 -17.260  -0.524  0.00  0.00     0.001 C 
ATOM     29  C   UNL d   1      23.290 -16.328  -0.895  0.00  0.00     0.009 C 
ENDBRANCH  23  24
ENDBRANCH   6  23
TORSDOF 9
ENDMDL
MODEL 3
REMARK VINA RESULT:    -5.784      1.654      2.578
REMARK INTER + INTRA:         -12.462
REMARK INTER:                  -8.469
REMARK INTRA:                  -3.993
REMARK CONF_INDEPENDENT:        2.685
REMARK UNBOUND:                -3.993
REMARK  9 active torsions:
REMARK  status: ('A' for Active; 'I' for Inactive)
REMARK    1  A    between atoms: N_2  and  C_3 
REMARK    2  A    between atoms: C_3  and  N_5 
REMARK    3  A    between atoms: N_5  and  N_6 
REMARK       I    between atoms: N_6  and  C_7 
REMARK    4  A    between atoms: C_7  and  C_9 
REMARK    5  A    between atoms: C_9  and  S_10 
REMARK    6  A    between atoms: S_10  and  C_11 
REMARK    7  A    between atoms: C_12  and  N_13 
REMARK    8  A    between atoms: N_19  and  C_20 
REMARK    9  A    between atoms: C_20  and  C_21 
ROOT
ATOM      1  C   UNL d   1      25.943 -14.333  -2.006  0.00  0.00     0.127 A 
ATOM      2  C   UNL d   1      26.642 -13.201  -1.615  0.00  0.00     0.231 A 
ATOM      3  N   UNL d   1      27.423 -13.451  -0.493  0.00  0.00    -0.210 NA
ATOM      4  C   UNL d   1      27.249 -14.727  -0.204  0.00  0.00     0.106 A 
ATOM      5  C   UNL d   1      27.869 -15.477   0.945  0.00  0.00     0.091 C 
ATOM      6  N   UNL d   1      26.387 -15.330  -1.128  0.00  0.00    -0.322 N 
ENDROOT
BRANCH   1   7
ATOM      7  S   UNL d   1      24.989 -14.575  -3.459  0.00  0.00    -0.099 SA
BRANCH   7   8
ATOM      8  C   UNL d   1      25.906 -15.573  -4.657  0.00  0.00     0.185 C 
BRANCH   8   9
ATOM      9  C   UNL d   1      26.988 -14.737  -5.406  0.00  0.00     0.245 C 
ATOM     10  N   UNL d   1      26.902 -13.365  -5.191  0.00  0.00    -0.267 N 
ATOM     11  H   UNL d   1      26.214 -12.943  -4.569  0.00  0.00     0.190 HD
ATOM     12  O   UNL d   1      27.859 -15.200  -6.154  0.00  0.00    -0.271 OA
BRANCH  10  13
ATOM     13  N   UNL d   1      27.839 -12.448  -5.781  0.00  0.00    -0.274 N 
ATOM     14  H   UNL d   1      28.783 -12.807  -5.922  0.00  0.00     0.189 HD
BRANCH  13  15
ATOM     15  C   UNL d   1      27.441 -11.147  -6.090  0.00  0.00     0.186 C 
ATOM     16  S   UNL d   1      27.709 -10.469  -7.608  0.00  0.00    -0.040 SA
BRANCH  15  17
ATOM     17  N   UNL d   1      26.824 -10.466  -5.051  0.00  0.00    -0.370 N 
ATOM     18  C   UNL d   1      25.834  -9.404  -5.237  0.00  0.00     0.148 C 
ATOM     19  H   UNL d   1      27.046 -10.706  -4.093  0.00  0.00     0.161 HD
ENDBRANCH  15  17
ENDBRANCH  13  15
ENDBRANCH  10  13
ENDBRANCH   8   9
ENDBRANCH   7   8
ENDBRANCH   1   7
BRANCH   2  20
ATOM     20  N   UNL d   1      26.653 -11.896  -2.260  0.00  0.00    -0.093 N 
ATOM     21  O   UNL d   1      27.621 -11.156  -2.049  0.00  0.00    -0.530 OA
ATOM     22  O   UNL d   1      25.678 -11.586  -2.964  0.00  0.00    -0.530 OA
ENDBRANCH   2  20
BRANCH   6  23
ATOM     23  C   UNL d   1      26.139 -16.781  -1.032  0.00  0.00     0.169 C 
BRANCH  23  24
ATOM     24  C   UNL d   1      24.755 -17.181  -0.642  0.00  0.00    -0.040 C 
ATOM     25  C   UNL d   1      23.665 -16.324  -0.833  0.00  0.00     0.009 C 
ATOM     26  C   UNL d   1      22.373 -16.809  -0.647  0.00  0.00     0.001 C 
ATOM     27  C   UNL d   1      22.168 -18.162  -0.368  0.00  0.00     0.000 C 
ATOM     28  C   UNL d   1      23.252 -19.007  -0.146  0.00  0.00     0.001 C 
ATOM     29  C   UNL d   1      24.544 -18.501  -0.210  0.00  0.00     0.009 C 
ENDBRANCH  23  24
ENDBRANCH   6  23
TORSDOF 9
ENDMDL
MODEL 4
REMARK VINA RESULT:    -5.571      1.909      2.975
REMARK INTER + INTRA:         -13.104
REMARK INTER:                  -8.255
REMARK INTRA:                  -4.848
REMARK CONF_INDEPENDENT:        2.685
REMARK UNBOUND:                -4.848
REMARK  9 active torsions:
REMARK  status: ('A' for Active; 'I' for Inactive)
REMARK    1  A    between atoms: N_2  and  C_3 
REMARK    2  A    between atoms: C_3  and  N_5 
REMARK    3  A    between atoms: N_5  and  N_6 
REMARK       I    between atoms: N_6  and  C_7 
REMARK    4  A    between atoms: C_7  and  C_9 
REMARK    5  A    between atoms: C_9  and  S_10 
REMARK    6  A    between atoms: S_10  and  C_11 
REMARK    7  A    between atoms: C_12  and  N_13 
REMARK    8  A    between atoms: N_19  and  C_20 
REMARK    9  A    between atoms: C_20  and  C_21 
ROOT
ATOM      1  C   UNL d   1      26.233 -15.148  -2.878  0.00  0.00     0.127 A 
ATOM      2  C   UNL d   1      27.341 -15.584  -3.588  0.00  0.00     0.231 A 
ATOM      3  N   UNL d   1      28.211 -16.303  -2.778  0.00  0.00    -0.210 NA
ATOM      4  C   UNL d   1      27.645 -16.353  -1.587  0.00  0.00     0.106 A 
ATOM      5  C   UNL d   1      28.209 -17.007  -0.354  0.00  0.00     0.091 C 
ATOM      6  N   UNL d   1      26.406 -15.701  -1.602  0.00  0.00    -0.322 N 
ENDROOT
BRANCH   1   7
ATOM      7  S   UNL d   1      24.779 -14.382  -3.493  0.00  0.00    -0.099 SA
BRANCH   7   8
ATOM      8  C   UNL d   1      25.204 -12.951  -4.515  0.00  0.00     0.185 C 
BRANCH   8   9
ATOM      9  C   UNL d   1      26.450 -12.192  -3.966  0.00  0.00     0.245 C 
ATOM     10  N   UNL d   1      27.669 -12.711  -4.389  0.00  0.00    -0.267 N 
ATOM     11  H   UNL d   1      27.744 -13.498  -5.031  0.00  0.00     0.190 HD
ATOM     12  O   UNL d   1      26.415 -11.218  -3.202  0.00  0.00    -0.271 OA
BRANCH  10  13
ATOM     13  N   UNL d   1      28.920 -12.114  -4.001  0.00  0.00    -0.274 N 
ATOM     14  H   UNL d   1      28.889 -11.117  -3.791  0.00  0.00     0.189 HD
BRANCH  13  15
ATOM     15  C   UNL d   1      30.080 -12.888  -3.966  0.00  0.00     0.186 C 
ATOM     16  S   UNL d   1      31.434 -12.507  -4.890  0.00  0.00    -0.040 SA
BRANCH  15  17
ATOM     17  N   UNL d   1      30.018 -13.989  -3.124  0.00  0.00    -0.370 N 
ATOM     18  C   UNL d   1      30.413 -13.969  -1.714  0.00  0.00     0.148 C 
ATOM     19  H   UNL d   1      29.673 -14.872  -3.478  0.00  0.00     0.161 HD
ENDBRANCH  15  17
ENDBRANCH  13  15
ENDBRANCH  10  13
ENDBRANCH   8   9
ENDBRANCH   7   8
ENDBRANCH   1   7
BRANCH   2  20
ATOM     20  N   UNL d   1      27.618 -15.400  -5.007  0.00  0.00    -0.093 N 
ATOM     21  O   UNL d   1      28.800 -15.394  -5.368  0.00  0.00    -0.530 OA
ATOM     22  O   UNL d   1      26.653 -15.230  -5.770  0.00  0.00    -0.530 OA
ENDBRANCH   2  20
BRANCH   6  23
ATOM     23  C   UNL d   1      25.570 -15.727  -0.387  0.00  0.00     0.169 C 
BRANCH  23  24
ATOM     24  C   UNL d   1      24.447 -16.710  -0.390  0.00  0.00    -0.040 C 
ATOM     25  C   UNL d   1      23.139 -16.326  -0.705  0.00  0.00     0.009 C 
ATOM     26  C   UNL d   1      22.165 -17.304  -0.894  0.00  0.00     0.001 C 
ATOM     27  C   UNL d   1      22.518 -18.654  -0.865  0.00  0.00     0.000 C 
ATOM     28  C   UNL d   1      23.811 -19.039  -0.520  0.00  0.00     0.001 C 
ATOM     29  C   UNL d   1      24.757 -18.069  -0.210  0.00  0.00     0.009 C 
ENDBRANCH  23  24
ENDBRANCH   6  23
TORSDOF 9
ENDMDL
MODEL 5
REMARK VINA RESULT:    -5.558      3.593      5.648
REMARK INTER + INTRA:         -12.083
REMARK INTER:                  -8.243
REMARK INTRA:                  -3.840
REMARK CONF_INDEPENDENT:        2.685
REMARK UNBOUND:                -3.840
REMARK  9 active torsions:
REMARK  status: ('A' for Active; 'I' for Inactive)
REMARK    1  A    between atoms: N_2  and  C_3 
REMARK    2  A    between atoms: C_3  and  N_5 
REMARK    3  A    between atoms: N_5  and  N_6 
REMARK       I    between atoms: N_6  and  C_7 
REMARK    4  A    between atoms: C_7  and  C_9 
REMARK    5  A    between atoms: C_9  and  S_10 
REMARK    6  A    between atoms: S_10  and  C_11 
REMARK    7  A    between atoms: C_12  and  N_13 
REMARK    8  A    between atoms: N_19  and  C_20 
REMARK    9  A    between atoms: C_20  and  C_21 
ROOT
ATOM      1  C   UNL d   1      27.542 -15.575  -3.157  0.00  0.00     0.127 A 
ATOM      2  C   UNL d   1      27.734 -15.099  -4.445  0.00  0.00     0.231 A 
ATOM      3  N   UNL d   1      26.630 -14.380  -4.889  0.00  0.00    -0.210 NA
ATOM      4  C   UNL d   1      25.773 -14.371  -3.886  0.00  0.00     0.106 A 
ATOM      5  C   UNL d   1      24.409 -13.734  -3.880  0.00  0.00     0.091 C 
ATOM      6  N   UNL d   1      26.300 -15.049  -2.780  0.00  0.00    -0.322 N 
ENDROOT
BRANCH   1   7
ATOM      7  S   UNL d   1      28.705 -16.358  -2.102  0.00  0.00    -0.099 SA
BRANCH   7   8
ATOM      8  C   UNL d   1      30.331 -16.422  -2.892  0.00  0.00     0.185 C 
BRANCH   8   9
ATOM      9  C   UNL d   1      30.547 -17.753  -3.676  0.00  0.00     0.245 C 
ATOM     10  N   UNL d   1      30.431 -17.629  -5.057  0.00  0.00    -0.267 N 
ATOM     11  H   UNL d   1      30.256 -16.739  -5.522  0.00  0.00     0.190 HD
ATOM     12  O   UNL d   1      30.784 -18.854  -3.163  0.00  0.00    -0.271 OA
BRANCH  10  13
ATOM     13  N   UNL d   1      30.630 -18.751  -5.935  0.00  0.00    -0.274 N 
ATOM     14  H   UNL d   1      30.629 -19.668  -5.489  0.00  0.00     0.189 HD
BRANCH  13  15
ATOM     15  C   UNL d   1      30.842 -18.541  -7.297  0.00  0.00     0.186 C 
ATOM     16  S   UNL d   1      30.806 -19.804  -8.410  0.00  0.00    -0.040 SA
BRANCH  15  17
ATOM     17  N   UNL d   1      31.092 -17.223  -7.649  0.00  0.00    -0.370 N 
ATOM     18  C   UNL d   1      32.284 -16.777  -8.375  0.00  0.00     0.148 C 
ATOM     19  H   UNL d   1      30.421 -16.505  -7.412  0.00  0.00     0.161 HD
ENDBRANCH  15  17
ENDBRANCH  13  15
ENDBRANCH  10  13
ENDBRANCH   8   9
ENDBRANCH   7   8
ENDBRANCH   1   7
BRANCH   2  20
ATOM     20  N   UNL d   1      28.919 -15.243  -5.280  0.00  0.00    -0.093 N 
ATOM     21  O   UNL d   1      28.830 -15.948  -6.291  0.00  0.00    -0.530 OA
ATOM     22  O   UNL d   1      29.960 -14.672  -4.915  0.00  0.00    -0.530 OA
ENDBRANCH   2  20
BRANCH   6  23
ATOM     23  C   UNL d   1      25.529 -15.070  -1.522  0.00  0.00     0.169 C 
BRANCH  23  24
ATOM     24  C   UNL d   1      24.893 -16.373  -1.170  0.00  0.00    -0.040 C 
ATOM     25  C   UNL d   1      25.641 -17.437  -0.652  0.00  0.00     0.009 C 
ATOM     26  C   UNL d   1      24.981 -18.556  -0.149  0.00  0.00     0.001 C 
ATOM     27  C   UNL d   1      23.587 -18.570  -0.075  0.00  0.00     0.000 C 
ATOM     28  C   UNL d   1      22.842 -17.528  -0.619  0.00  0.00     0.001 C 
ATOM     29  C   UNL d   1      23.492 -16.464  -1.232  0.00  0.00     0.009 C 
ENDBRANCH  23  24
ENDBRANCH   6  23
TORSDOF 9
ENDMDL
MODEL 6
REMARK VINA RESULT:    -5.531      2.469      3.731
REMARK INTER + INTRA:         -12.313
REMARK INTER:                  -8.216
REMARK INTRA:                  -4.097
REMARK CONF_INDEPENDENT:        2.685
REMARK UNBOUND:                -4.097
REMARK  9 active torsions:
REMARK  status: ('A' for Active; 'I' for Inactive)
REMARK    1  A    between atoms: N_2  and  C_3 
REMARK    2  A    between atoms: C_3  and  N_5 
REMARK    3  A    between atoms: N_5  and  N_6 
REMARK       I    between atoms: N_6  and  C_7 
REMARK    4  A    between atoms: C_7  and  C_9 
REMARK    5  A    between atoms: C_9  and  S_10 
REMARK    6  A    between atoms: S_10  and  C_11 
REMARK    7  A    between atoms: C_12  and  N_13 
REMARK    8  A    between atoms: N_19  and  C_20 
REMARK    9  A    between atoms: C_20  and  C_21 
ROOT
ATOM      1  C   UNL d   1      27.045 -15.375  -2.347  0.00  0.00     0.127 A 
ATOM      2  C   UNL d   1      25.980 -15.668  -3.186  0.00  0.00     0.231 A 
ATOM      3  N   UNL d   1      25.113 -16.583  -2.602  0.00  0.00    -0.210 NA
ATOM      4  C   UNL d   1      25.601 -16.834  -1.402  0.00  0.00     0.106 A 
ATOM      5  C   UNL d   1      25.028 -17.783  -0.384  0.00  0.00     0.091 C 
ATOM      6  N   UNL d   1      26.760 -16.083  -1.173  0.00  0.00    -0.322 N 
ENDROOT
BRANCH   1   7
ATOM      7  S   UNL d   1      28.282 -14.146  -2.549  0.00  0.00    -0.099 SA
BRANCH   7   8
ATOM      8  C   UNL d   1      27.726 -12.571  -1.856  0.00  0.00     0.185 C 
BRANCH   8   9
ATOM      9  C   UNL d   1      26.832 -11.777  -2.858  0.00  0.00     0.245 C 
ATOM     10  N   UNL d   1      26.389 -12.523  -3.945  0.00  0.00    -0.267 N 
ATOM     11  H   UNL d   1      26.600 -13.513  -4.062  0.00  0.00     0.190 HD
ATOM     12  O   UNL d   1      26.527 -10.582  -2.752  0.00  0.00    -0.271 OA
BRANCH  10  13
ATOM     13  N   UNL d   1      25.530 -11.956  -4.951  0.00  0.00    -0.274 N 
ATOM     14  H   UNL d   1      24.630 -12.418  -5.076  0.00  0.00     0.189 HD
BRANCH  13  15
ATOM     15  C   UNL d   1      25.965 -10.866  -5.704  0.00  0.00     0.186 C 
ATOM     16  S   UNL d   1      26.867 -11.058  -7.112  0.00  0.00    -0.040 SA
BRANCH  15  17
ATOM     17  N   UNL d   1      25.604  -9.627  -5.194  0.00  0.00    -0.370 N 
ATOM     18  C   UNL d   1      24.519  -8.802  -5.730  0.00  0.00     0.148 C 
ATOM     19  H   UNL d   1      26.097  -9.250  -4.396  0.00  0.00     0.161 HD
ENDBRANCH  15  17
ENDBRANCH  13  15
ENDBRANCH  10  13
ENDBRANCH   8   9
ENDBRANCH   7   8
ENDBRANCH   1   7
BRANCH   2  20
ATOM     20  N   UNL d   1      25.702 -15.105  -4.500  0.00  0.00    -0.093 N 
ATOM     21  O   UNL d   1      26.535 -15.287  -5.395  0.00  0.00    -0.530 OA
ATOM     22  O   UNL d   1      24.656 -14.449  -4.642  0.00  0.00    -0.530 OA
ENDBRANCH   2  20
BRANCH   6  23
ATOM     23  C   UNL d   1      27.406 -16.153   0.151  0.00  0.00     0.169 C 
BRANCH  23  24
ATOM     24  C   UNL d   1      27.375 -14.897   0.957  0.00  0.00    -0.040 C 
ATOM     25  C   UNL d   1      26.464 -13.871   0.679  0.00  0.00     0.009 C 
ATOM     26  C   UNL d   1      26.332 -12.813   1.575  0.00  0.00     0.001 C 
ATOM     27  C   UNL d   1      27.031 -12.829   2.783  0.00  0.00     0.000 C 
ATOM     28  C   UNL d   1      27.960 -13.831   3.047  0.00  0.00     0.001 C 
ATOM     29  C   UNL d   1      28.187 -14.825   2.102  0.00  0.00     0.009 C 
ENDBRANCH  23  24
ENDBRANCH   6  23
TORSDOF 9
ENDMDL
MODEL 7
REMARK VINA RESULT:    -5.483      2.195      2.568
REMARK INTER + INTRA:         -12.780
REMARK INTER:                  -8.168
REMARK INTRA:                  -4.612
REMARK CONF_INDEPENDENT:        2.685
REMARK UNBOUND:                -4.612
REMARK  9 active torsions:
REMARK  status: ('A' for Active; 'I' for Inactive)
REMARK    1  A    between atoms: N_2  and  C_3 
REMARK    2  A    between atoms: C_3  and  N_5 
REMARK    3  A    between atoms: N_5  and  N_6 
REMARK       I    between atoms: N_6  and  C_7 
REMARK    4  A    between atoms: C_7  and  C_9 
REMARK    5  A    between atoms: C_9  and  S_10 
REMARK    6  A    between atoms: S_10  and  C_11 
REMARK    7  A    between atoms: C_12  and  N_13 
REMARK    8  A    between atoms: N_19  and  C_20 
REMARK    9  A    between atoms: C_20  and  C_21 
ROOT
ATOM      1  C   UNL d   1      27.629 -14.707  -2.382  0.00  0.00     0.127 A 
ATOM      2  C   UNL d   1      28.027 -13.434  -2.005  0.00  0.00     0.231 A 
ATOM      3  N   UNL d   1      27.991 -13.280  -0.624  0.00  0.00    -0.210 NA
ATOM      4  C   UNL d   1      27.614 -14.447  -0.137  0.00  0.00     0.106 A 
ATOM      5  C   UNL d   1      27.405 -14.785   1.315  0.00  0.00     0.091 C 
ATOM      6  N   UNL d   1      27.424 -15.375  -1.168  0.00  0.00    -0.322 N 
ENDROOT
BRANCH   1   7
ATOM      7  S   UNL d   1      27.693 -15.439  -3.976  0.00  0.00    -0.099 SA
BRANCH   7   8
ATOM      8  C   UNL d   1      26.088 -15.304  -4.798  0.00  0.00     0.185 C 
BRANCH   8   9
ATOM      9  C   UNL d   1      25.271 -14.079  -4.283  0.00  0.00     0.245 C 
ATOM     10  N   UNL d   1      25.973 -12.878  -4.294  0.00  0.00    -0.267 N 
ATOM     11  H   UNL d   1      26.927 -12.796  -4.641  0.00  0.00     0.190 HD
ATOM     12  O   UNL d   1      24.104 -14.120  -3.872  0.00  0.00    -0.271 OA
BRANCH  10  13
ATOM     13  N   UNL d   1      25.362 -11.643  -3.881  0.00  0.00    -0.274 N 
ATOM     14  H   UNL d   1      24.400 -11.713  -3.549  0.00  0.00     0.189 HD
BRANCH  13  15
ATOM     15  C   UNL d   1      26.072 -10.447  -3.981  0.00  0.00     0.186 C 
ATOM     16  S   UNL d   1      25.607  -9.062  -3.145  0.00  0.00    -0.040 SA
BRANCH  15  17
ATOM     17  N   UNL d   1      27.171 -10.493  -4.826  0.00  0.00    -0.370 N 
ATOM     18  C   UNL d   1      27.102 -10.309  -6.277  0.00  0.00     0.148 C 
ATOM     19  H   UNL d   1      28.093 -10.653  -4.440  0.00  0.00     0.161 HD
ENDBRANCH  15  17
ENDBRANCH  13  15
ENDBRANCH  10  13
ENDBRANCH   8   9
ENDBRANCH   7   8
ENDBRANCH   1   7
BRANCH   2  20
ATOM     20  N   UNL d   1      28.483 -12.352  -2.867  0.00  0.00    -0.093 N 
ATOM     21  O   UNL d   1      28.507 -11.209  -2.396  0.00  0.00    -0.530 OA
ATOM     22  O   UNL d   1      28.794 -12.632  -4.037  0.00  0.00    -0.530 OA
ENDBRANCH   2  20
BRANCH   6  23
ATOM     23  C   UNL d   1      27.090 -16.769  -0.822  0.00  0.00     0.169 C 
BRANCH  23  24
ATOM     24  C   UNL d   1      25.638 -17.113  -0.833  0.00  0.00    -0.040 C 
ATOM     25  C   UNL d   1      25.140 -18.210  -0.120  0.00  0.00     0.009 C 
ATOM     26  C   UNL d   1      23.763 -18.375   0.008  0.00  0.00     0.001 C 
ATOM     27  C   UNL d   1      22.894 -17.401  -0.488  0.00  0.00     0.000 C 
ATOM     28  C   UNL d   1      23.386 -16.327  -1.225  0.00  0.00     0.001 C 
ATOM     29  C   UNL d   1      24.751 -16.222  -1.461  0.00  0.00     0.009 C 
ENDBRANCH  23  24
ENDBRANCH   6  23
TORSDOF 9
ENDMDL
MODEL 8
REMARK VINA RESULT:    -5.355      2.360      3.536
REMARK INTER + INTRA:         -12.381
REMARK INTER:                  -8.040
REMARK INTRA:                  -4.341
REMARK CONF_INDEPENDENT:        2.685
REMARK UNBOUND:                -4.341
REMARK  9 active torsions:
REMARK  status: ('A' for Active; 'I' for Inactive)
REMARK    1  A    between atoms: N_2  and  C_3 
REMARK    2  A    between atoms: C_3  and  N_5 
REMARK    3  A    between atoms: N_5  and  N_6 
REMARK       I    between atoms: N_6  and  C_7 
REMARK    4  A    between atoms: C_7  and  C_9 
REMARK    5  A    between atoms: C_9  and  S_10 
REMARK    6  A    between atoms: S_10  and  C_11 
REMARK    7  A    between atoms: C_12  and  N_13 
REMARK    8  A    between atoms: N_19  and  C_20 
REMARK    9  A    between atoms: C_20  and  C_21 
ROOT
ATOM      1  C   UNL d   1      26.041 -14.768  -1.922  0.00  0.00     0.127 A 
ATOM      2  C   UNL d   1      26.978 -13.771  -1.699  0.00  0.00     0.231 A 
ATOM      3  N   UNL d   1      27.923 -14.165  -0.759  0.00  0.00    -0.210 NA
ATOM      4  C   UNL d   1      27.609 -15.401  -0.422  0.00  0.00     0.106 A 
ATOM      5  C   UNL d   1      28.322 -16.263   0.585  0.00  0.00     0.091 C 
ATOM      6  N   UNL d   1      26.489 -15.840  -1.140  0.00  0.00    -0.322 N 
ENDROOT
BRANCH   1   7
ATOM      7  S   UNL d   1      24.783 -14.825  -3.144  0.00  0.00    -0.099 SA
BRANCH   7   8
ATOM      8  C   UNL d   1      25.238 -13.804  -4.567  0.00  0.00     0.185 C 
BRANCH   8   9
ATOM      9  C   UNL d   1      26.657 -14.159  -5.108  0.00  0.00     0.245 C 
ATOM     10  N   UNL d   1      27.616 -13.176  -4.884  0.00  0.00    -0.267 N 
ATOM     11  H   UNL d   1      27.420 -12.314  -4.379  0.00  0.00     0.190 HD
ATOM     12  O   UNL d   1      26.954 -15.200  -5.708  0.00  0.00    -0.271 OA
BRANCH  10  13
ATOM     13  N   UNL d   1      28.985 -13.351  -5.292  0.00  0.00    -0.274 N 
ATOM     14  H   UNL d   1      29.279 -12.808  -6.103  0.00  0.00     0.189 HD
BRANCH  13  15
ATOM     15  C   UNL d   1      29.807 -14.246  -4.607  0.00  0.00     0.186 C 
ATOM     16  S   UNL d   1      31.299 -14.732  -5.217  0.00  0.00    -0.040 SA
BRANCH  15  17
ATOM     17  N   UNL d   1      29.292 -14.702  -3.402  0.00  0.00    -0.370 N 
ATOM     18  C   UNL d   1      29.246 -16.113  -3.009  0.00  0.00     0.148 C 
ATOM     19  H   UNL d   1      28.927 -14.040  -2.730  0.00  0.00     0.161 HD
ENDBRANCH  15  17
ENDBRANCH  13  15
ENDBRANCH  10  13
ENDBRANCH   8   9
ENDBRANCH   7   8
ENDBRANCH   1   7
BRANCH   2  20
ATOM     20  N   UNL d   1      27.068 -12.472  -2.352  0.00  0.00    -0.093 N 
ATOM     21  O   UNL d   1      26.016 -11.939  -2.724  0.00  0.00    -0.530 OA
ATOM     22  O   UNL d   1      28.197 -11.984  -2.524  0.00  0.00    -0.530 OA
ENDBRANCH   2  20
BRANCH   6  23
ATOM     23  C   UNL d   1      26.036 -17.234  -0.974  0.00  0.00     0.169 C 
BRANCH  23  24
ATOM     24  C   UNL d   1      24.590 -17.414  -0.652  0.00  0.00    -0.040 C 
ATOM     25  C   UNL d   1      23.705 -16.328  -0.622  0.00  0.00     0.009 C 
ATOM     26  C   UNL d   1      22.336 -16.564  -0.520  0.00  0.00     0.001 C 
ATOM     27  C   UNL d   1      21.850 -17.872  -0.545  0.00  0.00     0.000 C 
ATOM     28  C   UNL d   1      22.728 -18.952  -0.541  0.00  0.00     0.001 C 
ATOM     29  C   UNL d   1      24.099 -18.724  -0.520  0.00  0.00     0.009 C 
ENDBRANCH  23  24
ENDBRANCH   6  23
TORSDOF 9
ENDMDL
MODEL 9
REMARK VINA RESULT:    -4.611      2.218      3.208
REMARK INTER + INTRA:         -12.179
REMARK INTER:                  -7.295
REMARK INTRA:                  -4.884
REMARK CONF_INDEPENDENT:        2.685
REMARK UNBOUND:                -4.884
REMARK  9 active torsions:
REMARK  status: ('A' for Active; 'I' for Inactive)
REMARK    1  A    between atoms: N_2  and  C_3 
REMARK    2  A    between atoms: C_3  and  N_5 
REMARK    3  A    between atoms: N_5  and  N_6 
REMARK       I    between atoms: N_6  and  C_7 
REMARK    4  A    between atoms: C_7  and  C_9 
REMARK    5  A    between atoms: C_9  and  S_10 
REMARK    6  A    between atoms: S_10  and  C_11 
REMARK    7  A    between atoms: C_12  and  N_13 
REMARK    8  A    between atoms: N_19  and  C_20 
REMARK    9  A    between atoms: C_20  and  C_21 
ROOT
ATOM      1  C   UNL d   1      28.805 -15.388  -2.389  0.00  0.00     0.127 A 
ATOM      2  C   UNL d   1      29.005 -14.021  -2.279  0.00  0.00     0.231 A 
ATOM      3  N   UNL d   1      28.420 -13.515  -1.124  0.00  0.00    -0.210 NA
ATOM      4  C   UNL d   1      27.893 -14.550  -0.498  0.00  0.00     0.106 A 
ATOM      5  C   UNL d   1      27.126 -14.519   0.797  0.00  0.00     0.091 C 
ATOM      6  N   UNL d   1      28.140 -15.734  -1.206  0.00  0.00    -0.322 N 
ENDROOT
BRANCH   1   7
ATOM      7  S   UNL d   1      29.507 -16.499  -3.552  0.00  0.00    -0.099 SA
BRANCH   7   8
ATOM      8  C   UNL d   1      29.429 -15.802  -5.219  0.00  0.00     0.185 C 
BRANCH   8   9
ATOM      9  C   UNL d   1      28.089 -15.044  -5.471  0.00  0.00     0.245 C 
ATOM     10  N   UNL d   1      28.173 -13.665  -5.306  0.00  0.00    -0.267 N 
ATOM     11  H   UNL d   1      29.041 -13.185  -5.075  0.00  0.00     0.190 HD
ATOM     12  O   UNL d   1      27.013 -15.575  -5.776  0.00  0.00    -0.271 OA
BRANCH  10  13
ATOM     13  N   UNL d   1      27.039 -12.808  -5.528  0.00  0.00    -0.274 N 
ATOM     14  H   UNL d   1      26.640 -12.834  -6.466  0.00  0.00     0.189 HD
BRANCH  13  15
ATOM     15  C   UNL d   1      26.576 -11.985  -4.502  0.00  0.00     0.186 C 
ATOM     16  S   UNL d   1      26.078 -10.402  -4.785  0.00  0.00    -0.040 SA
BRANCH  15  17
ATOM     17  N   UNL d   1      26.571 -12.571  -3.245  0.00  0.00    -0.370 N 
ATOM     18  C   UNL d   1      25.504 -13.442  -2.747  0.00  0.00     0.148 C 
ATOM     19  H   UNL d   1      27.346 -12.412  -2.615  0.00  0.00     0.161 HD
ENDBRANCH  15  17
ENDBRANCH  13  15
ENDBRANCH  10  13
ENDBRANCH   8   9
ENDBRANCH   7   8
ENDBRANCH   1   7
BRANCH   2  20
ATOM     20  N   UNL d   1      29.754 -13.155  -3.179  0.00  0.00    -0.093 N 
ATOM     21  O   UNL d   1      29.367 -11.989  -3.314  0.00  0.00    -0.530 OA
ATOM     22  O   UNL d   1      30.723 -13.644  -3.784  0.00  0.00    -0.530 OA
ENDBRANCH   2  20
BRANCH   6  23
ATOM     23  C   UNL d   1      27.711 -17.018  -0.621  0.00  0.00     0.169 C 
BRANCH  23  24
ATOM     24  C   UNL d   1      26.253 -17.320  -0.712  0.00  0.00    -0.040 C 
ATOM     25  C   UNL d   1      25.621 -18.164   0.210  0.00  0.00     0.009 C 
ATOM     26  C   UNL d   1      24.231 -18.256   0.212  0.00  0.00     0.001 C 
ATOM     27  C   UNL d   1      23.476 -17.441  -0.633  0.00  0.00     0.000 C 
ATOM     28  C   UNL d   1      24.103 -16.627  -1.572  0.00  0.00     0.001 C 
ATOM     29  C   UNL d   1      25.489 -16.621  -1.662  0.00  0.00     0.009 C 
ENDBRANCH  23  24
ENDBRANCH   6  23
TORSDOF 9
ENDMDL
