MODEL 1
REMARK VINA RESULT:    -9.225      0.000      0.000
REMARK INTER + INTRA:         -12.449
REMARK INTER:                 -10.716
REMARK INTRA:                  -1.733
REMARK CONF_INDEPENDENT:        1.492
REMARK UNBOUND:                -1.733
REMARK  5 active torsions:
REMARK  status: ('A' for Active; 'I' for Inactive)
REMARK    1  A    between atoms: O_2  and  C_3 
REMARK    2  A    between atoms: C_3  and  C_5 
REMARK    3  A    between atoms: C_13  and  N_14 
REMARK       I    between atoms: N_14  and  C_15 
REMARK       I    between atoms: C_15  and  N_17 
REMARK    4  A    between atoms: N_17  and  C_18 
REMARK    5  A    between atoms: C_22  and  C_21 
ROOT
ATOM      1  N   UNL d   1      27.878 -14.290  -0.599  0.00  0.00    -0.325 N 
ATOM      2  C   UNL d   1      27.908 -14.451   0.779  0.00  0.00     0.321 C 
ATOM      3  O   UNL d   1      27.700 -15.522   1.326  0.00  0.00    -0.247 OA
ATOM      4  N   UNL d   1      28.215 -13.329   1.556  0.00  0.00    -0.309 N 
ATOM      5  H   UNL d   1      27.911 -13.369  -1.004  0.00  0.00     0.165 HD
ATOM      6  H   UNL d   1      28.055 -12.417   1.145  0.00  0.00     0.170 HD
ENDROOT
BRANCH   4   7
ATOM      7  C   UNL d   1      28.361 -13.471   3.008  0.00  0.00     0.036 C 
ATOM      8  C   UNL d   1      27.464 -12.992   3.952  0.00  0.00     0.030 C 
ATOM      9  C   UNL d   1      27.692 -13.204   5.394  0.00  0.00     0.011 C 
ATOM     10  C   UNL d   1      28.715 -14.075   5.999  0.00  0.00    -0.036 C 
ATOM     11  C   UNL d   1      29.669 -14.377   5.014  0.00  0.00     0.011 C 
ATOM     12  C   UNL d   1      29.486 -14.086   3.582  0.00  0.00     0.030 C 
BRANCH  10  13
ATOM     13  C   UNL d   1      28.905 -14.450   7.704  0.00  0.00     0.117 C 
ATOM     14  C   UNL d   1      28.780 -13.642   9.295  0.00  0.00     0.011 C 
ATOM     15  C   UNL d   1      29.511 -12.506   9.400  0.00  0.00    -0.015 C 
ATOM     16  C   UNL d   1      30.030 -11.302  10.060  0.00  0.00     0.036 C 
ATOM     17  C   UNL d   1      30.172 -12.790   8.148  0.00  0.00     0.019 C 
ATOM     18  C   UNL d   1      30.155 -10.247   9.204  0.00  0.00     0.035 C 
ATOM     19 CL   UNL d   1      30.330  -8.602   9.679  0.00  0.00    -0.084 Cl
ATOM     20  C   UNL d   1      29.926 -10.430   7.788  0.00  0.00     0.026 C 
ATOM     21  C   UNL d   1      29.880 -11.661   7.267  0.00  0.00     0.026 C 
ATOM     22  N   UNL d   1      30.313 -14.047   7.847  0.00  0.00    -0.280 NA
ATOM     23  H   UNL d   1      30.576 -14.726   8.582  0.00  0.00     0.128 HD
ENDBRANCH  10  13
ENDBRANCH   4   7
BRANCH   1  24
ATOM     24  C   UNL d   1      27.577 -15.366  -1.581  0.00  0.00     0.189 C 
ATOM     25  S   UNL d   1      28.021 -17.035  -0.992  0.00  0.00    -0.129 SA
ATOM     26  C   UNL d   1      26.297 -17.599  -0.882  0.00  0.00     0.079 C 
ATOM     27  C   UNL d   1      25.757 -17.825   0.532  0.00  0.00     0.020 C 
ATOM     28  C   UNL d   1      25.465 -16.545  -1.575  0.00  0.00    -0.051 C 
ATOM     29  C   UNL d   1      24.289 -18.245   0.431  0.00  0.00     0.002 C 
ATOM     30  C   UNL d   1      23.466 -17.138  -0.236  0.00  0.00     0.004 C 
ATOM     31  C   UNL d   1      23.986 -16.828  -1.645  0.00  0.00     0.036 C 
ATOM     32  C   UNL d   1      26.126 -15.432  -1.958  0.00  0.00     0.053 C 
BRANCH  32  33
ATOM     33  C   UNL d   1      25.484 -14.341  -2.710  0.00  0.00     0.292 C 
ATOM     34  O   UNL d   1      24.565 -14.517  -3.522  0.00  0.00    -0.260 OA
BRANCH  33  35
ATOM     35  O   UNL d   1      26.024 -13.133  -2.416  0.00  0.00    -0.323 OA
ATOM     36  C   UNL d   1      25.914 -12.165  -3.477  0.00  0.00     0.213 C 
ENDBRANCH  33  35
ENDBRANCH  32  33
ENDBRANCH   1  24
TORSDOF 5
ENDMDL
MODEL 2
REMARK VINA RESULT:    -8.949      2.433      3.939
REMARK INTER + INTRA:         -11.955
REMARK INTER:                 -10.440
REMARK INTRA:                  -1.515
REMARK CONF_INDEPENDENT:        1.492
REMARK UNBOUND:                -1.515
REMARK  5 active torsions:
REMARK  status: ('A' for Active; 'I' for Inactive)
REMARK    1  A    between atoms: O_2  and  C_3 
REMARK    2  A    between atoms: C_3  and  C_5 
REMARK    3  A    between atoms: C_13  and  N_14 
REMARK       I    between atoms: N_14  and  C_15 
REMARK       I    between atoms: C_15  and  N_17 
REMARK    4  A    between atoms: N_17  and  C_18 
REMARK    5  A    between atoms: C_22  and  C_21 
ROOT
ATOM      1  N   UNL d   1      27.070 -14.783   0.947  0.00  0.00    -0.325 N 
ATOM      2  C   UNL d   1      27.430 -14.071   2.082  0.00  0.00     0.321 C 
ATOM      3  O   UNL d   1      27.114 -12.905   2.262  0.00  0.00    -0.247 OA
ATOM      4  N   UNL d   1      28.168 -14.743   3.062  0.00  0.00    -0.309 N 
ATOM      5  H   UNL d   1      27.467 -15.690   0.770  0.00  0.00     0.165 HD
ATOM      6  H   UNL d   1      28.695 -15.558   2.775  0.00  0.00     0.170 HD
ENDROOT
BRANCH   4   7
ATOM      7  C   UNL d   1      28.483 -14.065   4.325  0.00  0.00     0.036 C 
ATOM      8  C   UNL d   1      29.749 -13.968   4.885  0.00  0.00     0.030 C 
ATOM      9  C   UNL d   1      29.966 -13.245   6.153  0.00  0.00     0.011 C 
ATOM     10  C   UNL d   1      28.986 -12.397   6.855  0.00  0.00    -0.036 C 
ATOM     11  C   UNL d   1      27.713 -12.680   6.335  0.00  0.00     0.011 C 
ATOM     12  C   UNL d   1      27.484 -13.478   5.119  0.00  0.00     0.030 C 
BRANCH  10  13
ATOM     13  C   UNL d   1      29.274 -11.417   8.283  0.00  0.00     0.117 C 
ATOM     14  C   UNL d   1      30.215 -11.475   9.803  0.00  0.00     0.011 C 
ATOM     15  C   UNL d   1      30.017 -12.597  10.537  0.00  0.00    -0.015 C 
ATOM     16  C   UNL d   1      30.218 -13.512  11.666  0.00  0.00     0.036 C 
ATOM     17  C   UNL d   1      28.912 -12.980   9.691  0.00  0.00     0.019 C 
ATOM     18  C   UNL d   1      30.188 -14.824  11.290  0.00  0.00     0.035 C 
ATOM     19 CL   UNL d   1      30.781 -16.137  12.230  0.00  0.00    -0.084 Cl
ATOM     20  C   UNL d   1      29.836 -15.181   9.933  0.00  0.00     0.026 C 
ATOM     21  C   UNL d   1      29.262 -14.282   9.127  0.00  0.00     0.026 C 
ATOM     22  N   UNL d   1      28.241 -12.007   9.149  0.00  0.00    -0.280 NA
ATOM     23  H   UNL d   1      28.024 -11.160   9.701  0.00  0.00     0.128 HD
ENDBRANCH  10  13
ENDBRANCH   4   7
BRANCH   1  24
ATOM     24  C   UNL d   1      26.284 -14.239  -0.192  0.00  0.00     0.189 C 
ATOM     25  S   UNL d   1      26.951 -12.676  -0.857  0.00  0.00    -0.129 SA
ATOM     26  C   UNL d   1      27.448 -13.409  -2.444  0.00  0.00     0.079 C 
ATOM     27  C   UNL d   1      28.955 -13.532  -2.679  0.00  0.00     0.020 C 
ATOM     28  C   UNL d   1      26.819 -14.783  -2.488  0.00  0.00    -0.051 C 
ATOM     29  C   UNL d   1      29.183 -14.211  -4.032  0.00  0.00     0.002 C 
ATOM     30  C   UNL d   1      28.571 -15.617  -4.028  0.00  0.00     0.004 C 
ATOM     31  C   UNL d   1      27.064 -15.569  -3.750  0.00  0.00     0.036 C 
ATOM     32  C   UNL d   1      26.201 -15.181  -1.356  0.00  0.00     0.053 C 
BRANCH  32  33
ATOM     33  C   UNL d   1      25.473 -16.458  -1.251  0.00  0.00     0.292 C 
ATOM     34  O   UNL d   1      24.826 -16.956  -2.183  0.00  0.00    -0.260 OA
BRANCH  33  35
ATOM     35  O   UNL d   1      25.589 -17.011  -0.019  0.00  0.00    -0.323 OA
ATOM     36  C   UNL d   1      26.418 -18.189   0.022  0.00  0.00     0.213 C 
ENDBRANCH  33  35
ENDBRANCH  32  33
ENDBRANCH   1  24
TORSDOF 5
ENDMDL
MODEL 3
REMARK VINA RESULT:    -8.920      7.412     10.354
REMARK INTER + INTRA:         -11.808
REMARK INTER:                 -10.411
REMARK INTRA:                  -1.397
REMARK CONF_INDEPENDENT:        1.492
REMARK UNBOUND:                -1.397
REMARK  5 active torsions:
REMARK  status: ('A' for Active; 'I' for Inactive)
REMARK    1  A    between atoms: O_2  and  C_3 
REMARK    2  A    between atoms: C_3  and  C_5 
REMARK    3  A    between atoms: C_13  and  N_14 
REMARK       I    between atoms: N_14  and  C_15 
REMARK       I    between atoms: C_15  and  N_17 
REMARK    4  A    between atoms: N_17  and  C_18 
REMARK    5  A    between atoms: C_22  and  C_21 
ROOT
ATOM      1  N   UNL d   1      25.386  -9.619  -5.894  0.00  0.00    -0.325 N 
ATOM      2  C   UNL d   1      25.956 -10.547  -5.033  0.00  0.00     0.321 C 
ATOM      3  O   UNL d   1      26.896 -10.282  -4.300  0.00  0.00    -0.247 OA
ATOM      4  N   UNL d   1      25.399 -11.830  -5.002  0.00  0.00    -0.309 N 
ATOM      5  H   UNL d   1      24.712  -9.911  -6.581  0.00  0.00     0.165 HD
ATOM      6  H   UNL d   1      24.873 -12.132  -5.814  0.00  0.00     0.170 HD
ENDROOT
BRANCH   4   7
ATOM      7  C   UNL d   1      25.898 -12.814  -4.036  0.00  0.00     0.036 C 
ATOM      8  C   UNL d   1      26.264 -12.534  -2.727  0.00  0.00     0.030 C 
ATOM      9  C   UNL d   1      26.737 -13.602  -1.826  0.00  0.00     0.011 C 
ATOM     10  C   UNL d   1      26.692 -15.051  -2.087  0.00  0.00    -0.036 C 
ATOM     11  C   UNL d   1      26.479 -15.240  -3.462  0.00  0.00     0.011 C 
ATOM     12  C   UNL d   1      26.095 -14.160  -4.386  0.00  0.00     0.030 C 
BRANCH  10  13
ATOM     13  C   UNL d   1      27.116 -16.337  -0.968  0.00  0.00     0.117 C 
ATOM     14  C   UNL d   1      26.558 -17.971  -0.503  0.00  0.00     0.011 C 
ATOM     15  C   UNL d   1      25.243 -18.039  -0.180  0.00  0.00    -0.015 C 
ATOM     16  C   UNL d   1      23.996 -18.694   0.229  0.00  0.00     0.036 C 
ATOM     17  C   UNL d   1      25.146 -16.599  -0.188  0.00  0.00     0.019 C 
ATOM     18  C   UNL d   1      22.901 -18.179  -0.401  0.00  0.00     0.035 C 
ATOM     19 CL   UNL d   1      21.360 -18.940  -0.492  0.00  0.00    -0.084 Cl
ATOM     20  C   UNL d   1      23.032 -17.013  -1.246  0.00  0.00     0.026 C 
ATOM     21  C   UNL d   1      24.138 -16.263  -1.192  0.00  0.00     0.026 C 
ATOM     22  N   UNL d   1      26.225 -15.949   0.137  0.00  0.00    -0.280 NA
ATOM     23  H   UNL d   1      26.816 -16.289   0.915  0.00  0.00     0.128 HD
ENDBRANCH  10  13
ENDBRANCH   4   7
BRANCH   1  24
ATOM     24  C   UNL d   1      25.839  -8.212  -6.057  0.00  0.00     0.189 C 
ATOM     25  S   UNL d   1      25.140  -7.386  -7.525  0.00  0.00    -0.129 SA
ATOM     26  C   UNL d   1      24.131  -6.226  -6.557  0.00  0.00     0.079 C 
ATOM     27  C   UNL d   1      22.618  -6.444  -6.619  0.00  0.00     0.020 C 
ATOM     28  C   UNL d   1      24.599  -6.355  -5.126  0.00  0.00    -0.051 C 
ATOM     29  C   UNL d   1      21.940  -5.415  -5.711  0.00  0.00     0.002 C 
ATOM     30  C   UNL d   1      22.403  -5.602  -4.261  0.00  0.00     0.004 C 
ATOM     31  C   UNL d   1      23.923  -5.442  -4.136  0.00  0.00     0.036 C 
ATOM     32  C   UNL d   1      25.491  -7.340  -4.887  0.00  0.00     0.053 C 
BRANCH  32  33
ATOM     33  C   UNL d   1      26.105  -7.557  -3.565  0.00  0.00     0.292 C 
ATOM     34  O   UNL d   1      27.257  -7.203  -3.279  0.00  0.00    -0.260 OA
BRANCH  33  35
ATOM     35  O   UNL d   1      25.267  -8.196  -2.713  0.00  0.00    -0.323 OA
ATOM     36  C   UNL d   1      25.529  -7.934  -1.321  0.00  0.00     0.213 C 
ENDBRANCH  33  35
ENDBRANCH  32  33
ENDBRANCH   1  24
TORSDOF 5
ENDMDL
MODEL 4
REMARK VINA RESULT:    -8.750      7.150      9.856
REMARK INTER + INTRA:         -11.527
REMARK INTER:                 -10.242
REMARK INTRA:                  -1.285
REMARK CONF_INDEPENDENT:        1.492
REMARK UNBOUND:                -1.285
REMARK  5 active torsions:
REMARK  status: ('A' for Active; 'I' for Inactive)
REMARK    1  A    between atoms: O_2  and  C_3 
REMARK    2  A    between atoms: C_3  and  C_5 
REMARK    3  A    between atoms: C_13  and  N_14 
REMARK       I    between atoms: N_14  and  C_15 
REMARK       I    between atoms: C_15  and  N_17 
REMARK    4  A    between atoms: N_17  and  C_18 
REMARK    5  A    between atoms: C_22  and  C_21 
ROOT
ATOM      1  N   UNL d   1      28.527 -13.320  -8.129  0.00  0.00    -0.325 N 
ATOM      2  C   UNL d   1      28.495 -13.580  -6.766  0.00  0.00     0.321 C 
ATOM      3  O   UNL d   1      28.354 -12.704  -5.926  0.00  0.00    -0.247 OA
ATOM      4  N   UNL d   1      28.607 -14.913  -6.358  0.00  0.00    -0.309 N 
ATOM      5  H   UNL d   1      28.787 -14.043  -8.778  0.00  0.00     0.165 HD
ATOM      6  H   UNL d   1      29.046 -15.564  -6.998  0.00  0.00     0.170 HD
ENDROOT
BRANCH   4   7
ATOM      7  C   UNL d   1      28.475 -15.250  -4.936  0.00  0.00     0.036 C 
ATOM      8  C   UNL d   1      27.591 -14.649  -4.051  0.00  0.00     0.030 C 
ATOM      9  C   UNL d   1      27.521 -15.073  -2.640  0.00  0.00     0.011 C 
ATOM     10  C   UNL d   1      28.174 -16.255  -2.049  0.00  0.00    -0.036 C 
ATOM     11  C   UNL d   1      29.164 -16.699  -2.941  0.00  0.00     0.011 C 
ATOM     12  C   UNL d   1      29.296 -16.212  -4.324  0.00  0.00     0.030 C 
BRANCH  10  13
ATOM     13  C   UNL d   1      27.983 -16.854  -0.410  0.00  0.00     0.117 C 
ATOM     14  C   UNL d   1      26.993 -18.035   0.499  0.00  0.00     0.011 C 
ATOM     15  C   UNL d   1      25.657 -17.885   0.332  0.00  0.00    -0.015 C 
ATOM     16  C   UNL d   1      24.238 -18.210   0.519  0.00  0.00     0.036 C 
ATOM     17  C   UNL d   1      25.861 -16.627  -0.344  0.00  0.00     0.019 C 
ATOM     18  C   UNL d   1      23.502 -18.022  -0.614  0.00  0.00     0.035 C 
ATOM     19 CL   UNL d   1      21.933 -18.670  -0.896  0.00  0.00    -0.084 Cl
ATOM     20  C   UNL d   1      24.108 -17.417  -1.780  0.00  0.00     0.026 C 
ATOM     21  C   UNL d   1      25.279 -16.779  -1.676  0.00  0.00     0.026 C 
ATOM     22  N   UNL d   1      26.908 -15.945   0.018  0.00  0.00    -0.280 NA
ATOM     23  H   UNL d   1      27.165 -15.888   1.017  0.00  0.00     0.128 HD
ENDBRANCH  10  13
ENDBRANCH   4   7
BRANCH   1  24
ATOM     24  C   UNL d   1      28.416 -11.971  -8.746  0.00  0.00     0.189 C 
ATOM     25  S   UNL d   1      26.696 -11.450  -9.057  0.00  0.00    -0.129 SA
ATOM     26  C   UNL d   1      26.733 -10.123  -7.815  0.00  0.00     0.079 C 
ATOM     27  C   UNL d   1      25.875 -10.351  -6.568  0.00  0.00     0.020 C 
ATOM     28  C   UNL d   1      28.180  -9.970  -7.407  0.00  0.00    -0.051 C 
ATOM     29  C   UNL d   1      26.069  -9.166  -5.621  0.00  0.00     0.002 C 
ATOM     30  C   UNL d   1      27.538  -9.065  -5.193  0.00  0.00     0.004 C 
ATOM     31  C   UNL d   1      28.460  -8.881  -6.404  0.00  0.00     0.036 C 
ATOM     32  C   UNL d   1      29.033 -10.888  -7.911  0.00  0.00     0.053 C 
BRANCH  32  33
ATOM     33  C   UNL d   1      30.486 -10.841  -7.675  0.00  0.00     0.292 C 
ATOM     34  O   UNL d   1      31.107  -9.798  -7.430  0.00  0.00    -0.260 OA
BRANCH  33  35
ATOM     35  O   UNL d   1      31.057 -12.067  -7.770  0.00  0.00    -0.323 OA
ATOM     36  C   UNL d   1      31.758 -12.297  -9.008  0.00  0.00     0.213 C 
ENDBRANCH  33  35
ENDBRANCH  32  33
ENDBRANCH   1  24
TORSDOF 5
ENDMDL
MODEL 5
REMARK VINA RESULT:    -8.635      4.337     10.615
REMARK INTER + INTRA:         -11.217
REMARK INTER:                 -10.127
REMARK INTRA:                  -1.091
REMARK CONF_INDEPENDENT:        1.492
REMARK UNBOUND:                -1.091
REMARK  5 active torsions:
REMARK  status: ('A' for Active; 'I' for Inactive)
REMARK    1  A    between atoms: O_2  and  C_3 
REMARK    2  A    between atoms: C_3  and  C_5 
REMARK    3  A    between atoms: C_13  and  N_14 
REMARK       I    between atoms: N_14  and  C_15 
REMARK       I    between atoms: C_15  and  N_17 
REMARK    4  A    between atoms: N_17  and  C_18 
REMARK    5  A    between atoms: C_22  and  C_21 
ROOT
ATOM      1  N   UNL d   1      29.253 -14.191   7.080  0.00  0.00    -0.325 N 
ATOM      2  C   UNL d   1      28.739 -14.051   5.799  0.00  0.00     0.321 C 
ATOM      3  O   UNL d   1      27.726 -13.413   5.556  0.00  0.00    -0.247 OA
ATOM      4  N   UNL d   1      29.440 -14.656   4.750  0.00  0.00    -0.309 N 
ATOM      5  H   UNL d   1      30.003 -14.838   7.259  0.00  0.00     0.165 HD
ATOM      6  H   UNL d   1      30.052 -15.429   4.980  0.00  0.00     0.170 HD
ENDROOT
BRANCH   4   7
ATOM      7  C   UNL d   1      28.995 -14.450   3.367  0.00  0.00     0.036 C 
ATOM      8  C   UNL d   1      29.822 -14.448   2.254  0.00  0.00     0.030 C 
ATOM      9  C   UNL d   1      29.273 -14.251   0.899  0.00  0.00     0.011 C 
ATOM     10  C   UNL d   1      27.847 -14.242   0.526  0.00  0.00    -0.036 C 
ATOM     11  C   UNL d   1      27.091 -14.078   1.698  0.00  0.00     0.011 C 
ATOM     12  C   UNL d   1      27.652 -14.183   3.055  0.00  0.00     0.030 C 
BRANCH  10  13
ATOM     13  C   UNL d   1      27.184 -14.155  -1.098  0.00  0.00     0.117 C 
ATOM     14  C   UNL d   1      25.692 -14.595  -1.981  0.00  0.00     0.011 C 
ATOM     15  C   UNL d   1      25.319 -15.889  -1.832  0.00  0.00    -0.015 C 
ATOM     16  C   UNL d   1      24.468 -17.069  -2.023  0.00  0.00     0.036 C 
ATOM     17  C   UNL d   1      26.574 -16.199  -1.190  0.00  0.00     0.019 C 
ATOM     18  C   UNL d   1      24.385 -17.843  -0.903  0.00  0.00     0.035 C 
ATOM     19 CL   UNL d   1      23.188 -19.047  -0.618  0.00  0.00    -0.084 Cl
ATOM     20  C   UNL d   1      25.203 -17.541   0.251  0.00  0.00     0.026 C 
ATOM     21  C   UNL d   1      26.240 -16.703   0.140  0.00  0.00     0.026 C 
ATOM     22  N   UNL d   1      27.598 -15.488  -1.561  0.00  0.00    -0.280 NA
ATOM     23  H   UNL d   1      27.727 -15.252  -2.560  0.00  0.00     0.128 HD
ENDBRANCH  10  13
ENDBRANCH   4   7
BRANCH   1  24
ATOM     24  C   UNL d   1      28.650 -13.616   8.313  0.00  0.00     0.189 C 
ATOM     25  S   UNL d   1      28.527 -14.807   9.689  0.00  0.00    -0.129 SA
ATOM     26  C   UNL d   1      29.756 -13.949  10.716  0.00  0.00     0.079 C 
ATOM     27  C   UNL d   1      31.089 -14.676  10.911  0.00  0.00     0.020 C 
ATOM     28  C   UNL d   1      30.004 -12.616  10.050  0.00  0.00    -0.051 C 
ATOM     29  C   UNL d   1      32.009 -13.790  11.753  0.00  0.00     0.002 C 
ATOM     30  C   UNL d   1      32.275 -12.465  11.029  0.00  0.00     0.004 C 
ATOM     31  C   UNL d   1      30.970 -11.704  10.761  0.00  0.00     0.036 C 
ATOM     32  C   UNL d   1      29.412 -12.440   8.849  0.00  0.00     0.053 C 
BRANCH  32  33
ATOM     33  C   UNL d   1      29.489 -11.175   8.099  0.00  0.00     0.292 C 
ATOM     34  O   UNL d   1      30.367 -10.321   8.284  0.00  0.00    -0.260 OA
BRANCH  33  35
ATOM     35  O   UNL d   1      28.484 -11.056   7.197  0.00  0.00    -0.323 OA
ATOM     36  C   UNL d   1      28.851 -10.350   5.996  0.00  0.00     0.213 C 
ENDBRANCH  33  35
ENDBRANCH  32  33
ENDBRANCH   1  24
TORSDOF 5
ENDMDL
MODEL 6
REMARK VINA RESULT:    -8.559      2.581      4.463
REMARK INTER + INTRA:         -11.724
REMARK INTER:                 -10.051
REMARK INTRA:                  -1.674
REMARK CONF_INDEPENDENT:        1.492
REMARK UNBOUND:                -1.674
REMARK  5 active torsions:
REMARK  status: ('A' for Active; 'I' for Inactive)
REMARK    1  A    between atoms: O_2  and  C_3 
REMARK    2  A    between atoms: C_3  and  C_5 
REMARK    3  A    between atoms: C_13  and  N_14 
REMARK       I    between atoms: N_14  and  C_15 
REMARK       I    between atoms: C_15  and  N_17 
REMARK    4  A    between atoms: N_17  and  C_18 
REMARK    5  A    between atoms: C_22  and  C_21 
ROOT
ATOM      1  N   UNL d   1      26.899 -15.719  -2.010  0.00  0.00    -0.325 N 
ATOM      2  C   UNL d   1      27.141 -14.763  -1.033  0.00  0.00     0.321 C 
ATOM      3  O   UNL d   1      26.675 -13.635  -1.079  0.00  0.00    -0.247 OA
ATOM      4  N   UNL d   1      27.938 -15.136   0.054  0.00  0.00    -0.309 N 
ATOM      5  H   UNL d   1      27.413 -16.584  -2.013  0.00  0.00     0.165 HD
ATOM      6  H   UNL d   1      28.572 -15.915  -0.075  0.00  0.00     0.170 HD
ENDROOT
BRANCH   4   7
ATOM      7  C   UNL d   1      28.138 -14.196   1.162  0.00  0.00     0.036 C 
ATOM      8  C   UNL d   1      29.363 -13.879   1.731  0.00  0.00     0.030 C 
ATOM      9  C   UNL d   1      29.460 -12.903   2.833  0.00  0.00     0.011 C 
ATOM     10  C   UNL d   1      28.384 -12.021   3.318  0.00  0.00    -0.036 C 
ATOM     11  C   UNL d   1      27.163 -12.511   2.826  0.00  0.00     0.011 C 
ATOM     12  C   UNL d   1      27.058 -13.552   1.790  0.00  0.00     0.030 C 
BRANCH  10  13
ATOM     13  C   UNL d   1      28.524 -10.755   4.527  0.00  0.00     0.117 C 
ATOM     14  C   UNL d   1      29.301 -10.471   6.113  0.00  0.00     0.011 C 
ATOM     15  C   UNL d   1      29.025 -11.416   7.044  0.00  0.00    -0.015 C 
ATOM     16  C   UNL d   1      29.106 -12.068   8.356  0.00  0.00     0.036 C 
ATOM     17  C   UNL d   1      28.014 -11.992   6.191  0.00  0.00     0.019 C 
ATOM     18  C   UNL d   1      29.113 -13.429   8.266  0.00  0.00     0.035 C 
ATOM     19 CL   UNL d   1      29.602 -14.502   9.520  0.00  0.00    -0.084 Cl
ATOM     20  C   UNL d   1      28.903 -14.073   6.988  0.00  0.00     0.026 C 
ATOM     21  C   UNL d   1      28.418 -13.376   5.955  0.00  0.00     0.026 C 
ATOM     22  N   UNL d   1      27.405 -11.169   5.388  0.00  0.00    -0.280 NA
ATOM     23  H   UNL d   1      27.134 -10.229   5.723  0.00  0.00     0.128 HD
ENDBRANCH  10  13
ENDBRANCH   4   7
BRANCH   1  24
ATOM     24  C   UNL d   1      26.074 -15.507  -3.230  0.00  0.00     0.189 C 
ATOM     25  S   UNL d   1      24.583 -14.498  -2.936  0.00  0.00    -0.129 SA
ATOM     26  C   UNL d   1      25.175 -13.095  -3.927  0.00  0.00     0.079 C 
ATOM     27  C   UNL d   1      25.535 -11.829  -3.145  0.00  0.00     0.020 C 
ATOM     28  C   UNL d   1      26.394 -13.590  -4.670  0.00  0.00    -0.051 C 
ATOM     29  C   UNL d   1      26.057 -10.781  -4.129  0.00  0.00     0.002 C 
ATOM     30  C   UNL d   1      27.317 -11.296  -4.833  0.00  0.00     0.004 C 
ATOM     31  C   UNL d   1      27.036 -12.594  -5.601  0.00  0.00     0.036 C 
ATOM     32  C   UNL d   1      26.823 -14.826  -4.337  0.00  0.00     0.053 C 
BRANCH  32  33
ATOM     33  C   UNL d   1      27.950 -15.489  -5.015  0.00  0.00     0.292 C 
ATOM     34  O   UNL d   1      28.194 -15.361  -6.223  0.00  0.00    -0.260 OA
BRANCH  33  35
ATOM     35  O   UNL d   1      28.674 -16.258  -4.166  0.00  0.00    -0.323 OA
ATOM     36  C   UNL d   1      29.991 -16.588  -4.648  0.00  0.00     0.213 C 
ENDBRANCH  33  35
ENDBRANCH  32  33
ENDBRANCH   1  24
TORSDOF 5
ENDMDL
MODEL 7
REMARK VINA RESULT:    -8.417      4.426     10.622
REMARK INTER + INTRA:         -11.299
REMARK INTER:                  -9.908
REMARK INTRA:                  -1.391
REMARK CONF_INDEPENDENT:        1.492
REMARK UNBOUND:                -1.391
REMARK  5 active torsions:
REMARK  status: ('A' for Active; 'I' for Inactive)
REMARK    1  A    between atoms: O_2  and  C_3 
REMARK    2  A    between atoms: C_3  and  C_5 
REMARK    3  A    between atoms: C_13  and  N_14 
REMARK       I    between atoms: N_14  and  C_15 
REMARK       I    between atoms: C_15  and  N_17 
REMARK    4  A    between atoms: N_17  and  C_18 
REMARK    5  A    between atoms: C_22  and  C_21 
ROOT
ATOM      1  N   UNL d   1      30.395 -12.859   6.075  0.00  0.00    -0.325 N 
ATOM      2  C   UNL d   1      29.607 -13.093   4.957  0.00  0.00     0.321 C 
ATOM      3  O   UNL d   1      28.474 -12.653   4.840  0.00  0.00    -0.247 OA
ATOM      4  N   UNL d   1      30.163 -13.849   3.919  0.00  0.00    -0.309 N 
ATOM      5  H   UNL d   1      31.263 -13.353   6.197  0.00  0.00     0.165 HD
ATOM      6  H   UNL d   1      30.930 -14.468   4.150  0.00  0.00     0.170 HD
ENDROOT
BRANCH   4   7
ATOM      7  C   UNL d   1      29.409 -14.036   2.675  0.00  0.00     0.036 C 
ATOM      8  C   UNL d   1      28.039 -13.868   2.537  0.00  0.00     0.030 C 
ATOM      9  C   UNL d   1      27.376 -14.062   1.234  0.00  0.00     0.011 C 
ATOM     10  C   UNL d   1      28.041 -14.238  -0.068  0.00  0.00    -0.036 C 
ATOM     11  C   UNL d   1      29.386 -14.565   0.170  0.00  0.00     0.011 C 
ATOM     12  C   UNL d   1      30.032 -14.460   1.489  0.00  0.00     0.030 C 
BRANCH  10  13
ATOM     13  C   UNL d   1      27.270 -14.324  -1.643  0.00  0.00     0.117 C 
ATOM     14  C   UNL d   1      25.706 -14.808  -2.365  0.00  0.00     0.011 C 
ATOM     15  C   UNL d   1      25.302 -16.058  -2.030  0.00  0.00    -0.015 C 
ATOM     16  C   UNL d   1      24.402 -17.216  -2.017  0.00  0.00     0.036 C 
ATOM     17  C   UNL d   1      26.588 -16.337  -1.438  0.00  0.00     0.019 C 
ATOM     18  C   UNL d   1      24.372 -17.843  -0.805  0.00  0.00     0.035 C 
ATOM     19 CL   UNL d   1      23.160 -18.952  -0.293  0.00  0.00    -0.084 Cl
ATOM     20  C   UNL d   1      25.277 -17.434   0.246  0.00  0.00     0.026 C 
ATOM     21  C   UNL d   1      26.332 -16.660  -0.036  0.00  0.00     0.026 C 
ATOM     22  N   UNL d   1      27.607 -15.721  -1.962  0.00  0.00    -0.280 NA
ATOM     23  H   UNL d   1      27.673 -15.615  -2.988  0.00  0.00     0.128 HD
ENDBRANCH  10  13
ENDBRANCH   4   7
BRANCH   1  24
ATOM     24  C   UNL d   1      29.977 -12.076   7.269  0.00  0.00     0.189 C 
ATOM     25  S   UNL d   1      28.314 -12.510   7.880  0.00  0.00    -0.129 SA
ATOM     26  C   UNL d   1      28.928 -13.239   9.426  0.00  0.00     0.079 C 
ATOM     27  C   UNL d   1      28.788 -14.758   9.551  0.00  0.00     0.020 C 
ATOM     28  C   UNL d   1      30.389 -12.861   9.519  0.00  0.00    -0.051 C 
ATOM     29  C   UNL d   1      29.398 -15.196  10.884  0.00  0.00     0.002 C 
ATOM     30  C   UNL d   1      30.888 -14.837  10.927  0.00  0.00     0.004 C 
ATOM     31  C   UNL d   1      31.103 -13.328  10.761  0.00  0.00     0.036 C 
ATOM     32  C   UNL d   1      30.904 -12.240   8.437  0.00  0.00     0.053 C 
BRANCH  32  33
ATOM     33  C   UNL d   1      32.288 -11.738   8.388  0.00  0.00     0.292 C 
ATOM     34  O   UNL d   1      32.771 -10.977   9.238  0.00  0.00    -0.260 OA
BRANCH  33  35
ATOM     35  O   UNL d   1      32.959 -12.198   7.304  0.00  0.00    -0.323 OA
ATOM     36  C   UNL d   1      34.390 -12.061   7.395  0.00  0.00     0.213 C 
ENDBRANCH  33  35
ENDBRANCH  32  33
ENDBRANCH   1  24
TORSDOF 5
ENDMDL
MODEL 8
REMARK VINA RESULT:    -8.125      7.319     10.179
REMARK INTER + INTRA:         -11.078
REMARK INTER:                  -9.617
REMARK INTRA:                  -1.461
REMARK CONF_INDEPENDENT:        1.492
REMARK UNBOUND:                -1.461
REMARK  5 active torsions:
REMARK  status: ('A' for Active; 'I' for Inactive)
REMARK    1  A    between atoms: O_2  and  C_3 
REMARK    2  A    between atoms: C_3  and  C_5 
REMARK    3  A    between atoms: C_13  and  N_14 
REMARK       I    between atoms: N_14  and  C_15 
REMARK       I    between atoms: C_15  and  N_17 
REMARK    4  A    between atoms: N_17  and  C_18 
REMARK    5  A    between atoms: C_22  and  C_21 
ROOT
ATOM      1  N   UNL d   1      26.312  -9.964  -6.494  0.00  0.00    -0.325 N 
ATOM      2  C   UNL d   1      26.602 -11.038  -5.664  0.00  0.00     0.321 C 
ATOM      3  O   UNL d   1      27.741 -11.339  -5.342  0.00  0.00    -0.247 OA
ATOM      4  N   UNL d   1      25.527 -11.780  -5.165  0.00  0.00    -0.309 N 
ATOM      5  H   UNL d   1      25.380  -9.835  -6.850  0.00  0.00     0.165 HD
ATOM      6  H   UNL d   1      24.655 -11.745  -5.679  0.00  0.00     0.170 HD
ENDROOT
BRANCH   4   7
ATOM      7  C   UNL d   1      25.775 -12.859  -4.203  0.00  0.00     0.036 C 
ATOM      8  C   UNL d   1      25.590 -14.211  -4.452  0.00  0.00     0.030 C 
ATOM      9  C   UNL d   1      25.887 -15.223  -3.420  0.00  0.00     0.011 C 
ATOM     10  C   UNL d   1      26.578 -14.989  -2.140  0.00  0.00    -0.036 C 
ATOM     11  C   UNL d   1      26.576 -13.607  -1.889  0.00  0.00     0.011 C 
ATOM     12  C   UNL d   1      26.192 -12.596  -2.887  0.00  0.00     0.030 C 
BRANCH  10  13
ATOM     13  C   UNL d   1      27.068 -16.204  -0.970  0.00  0.00     0.117 C 
ATOM     14  C   UNL d   1      26.574 -17.830  -0.412  0.00  0.00     0.011 C 
ATOM     15  C   UNL d   1      25.270 -17.922  -0.055  0.00  0.00    -0.015 C 
ATOM     16  C   UNL d   1      24.054 -18.595   0.416  0.00  0.00     0.036 C 
ATOM     17  C   UNL d   1      25.125 -16.488  -0.131  0.00  0.00     0.019 C 
ATOM     18  C   UNL d   1      22.929 -18.147  -0.213  0.00  0.00     0.035 C 
ATOM     19 CL   UNL d   1      21.412 -18.960  -0.229  0.00  0.00    -0.084 Cl
ATOM     20  C   UNL d   1      23.003 -17.021  -1.117  0.00  0.00     0.026 C 
ATOM     21  C   UNL d   1      24.085 -16.234  -1.126  0.00  0.00     0.026 C 
ATOM     22  N   UNL d   1      26.190 -15.790   0.136  0.00  0.00    -0.280 NA
ATOM     23  H   UNL d   1      26.808 -16.071   0.915  0.00  0.00     0.128 HD
ENDBRANCH  10  13
ENDBRANCH   4   7
BRANCH   1  24
ATOM     24  C   UNL d   1      27.321  -9.062  -7.111  0.00  0.00     0.189 C 
ATOM     25  S   UNL d   1      28.705  -8.646  -5.997  0.00  0.00    -0.129 SA
ATOM     26  C   UNL d   1      29.937  -9.560  -6.970  0.00  0.00     0.079 C 
ATOM     27  C   UNL d   1      30.495 -10.828  -6.319  0.00  0.00     0.020 C 
ATOM     28  C   UNL d   1      29.261  -9.920  -8.273  0.00  0.00    -0.051 C 
ATOM     29  C   UNL d   1      31.472 -11.487  -7.296  0.00  0.00     0.002 C 
ATOM     30  C   UNL d   1      30.745 -11.879  -8.588  0.00  0.00     0.004 C 
ATOM     31  C   UNL d   1      30.120 -10.655  -9.269  0.00  0.00     0.036 C 
ATOM     32  C   UNL d   1      27.944  -9.632  -8.350  0.00  0.00     0.053 C 
BRANCH  32  33
ATOM     33  C   UNL d   1      27.150  -9.849  -9.572  0.00  0.00     0.292 C 
ATOM     34  O   UNL d   1      27.228 -10.872 -10.267  0.00  0.00    -0.260 OA
BRANCH  33  35
ATOM     35  O   UNL d   1      26.340  -8.798  -9.845  0.00  0.00    -0.323 OA
ATOM     36  C   UNL d   1      27.039  -7.608 -10.261  0.00  0.00     0.213 C 
ENDBRANCH  33  35
ENDBRANCH  32  33
ENDBRANCH   1  24
TORSDOF 5
ENDMDL
MODEL 9
REMARK VINA RESULT:    -8.076      2.839      3.864
REMARK INTER + INTRA:         -11.247
REMARK INTER:                  -9.567
REMARK INTRA:                  -1.680
REMARK CONF_INDEPENDENT:        1.492
REMARK UNBOUND:                -1.680
REMARK  5 active torsions:
REMARK  status: ('A' for Active; 'I' for Inactive)
REMARK    1  A    between atoms: O_2  and  C_3 
REMARK    2  A    between atoms: C_3  and  C_5 
REMARK    3  A    between atoms: C_13  and  N_14 
REMARK       I    between atoms: N_14  and  C_15 
REMARK       I    between atoms: C_15  and  N_17 
REMARK    4  A    between atoms: N_17  and  C_18 
REMARK    5  A    between atoms: C_22  and  C_21 
ROOT
ATOM      1  N   UNL d   1      28.520 -13.581  -2.942  0.00  0.00    -0.325 N 
ATOM      2  C   UNL d   1      28.264 -12.946  -1.735  0.00  0.00     0.321 C 
ATOM      3  O   UNL d   1      27.926 -13.547  -0.727  0.00  0.00    -0.247 OA
ATOM      4  N   UNL d   1      28.428 -11.558  -1.686  0.00  0.00    -0.309 N 
ATOM      5  H   UNL d   1      28.655 -13.043  -3.781  0.00  0.00     0.165 HD
ATOM      6  H   UNL d   1      28.375 -11.048  -2.560  0.00  0.00     0.170 HD
ENDROOT
BRANCH   4   7
ATOM      7  C   UNL d   1      28.271 -10.853  -0.409  0.00  0.00     0.036 C 
ATOM      8  C   UNL d   1      27.104 -10.810   0.341  0.00  0.00     0.030 C 
ATOM      9  C   UNL d   1      27.054 -10.088   1.627  0.00  0.00     0.011 C 
ATOM     10  C   UNL d   1      28.201  -9.528   2.362  0.00  0.00    -0.036 C 
ATOM     11  C   UNL d   1      29.292  -9.459   1.479  0.00  0.00     0.011 C 
ATOM     12  C   UNL d   1      29.315 -10.101   0.155  0.00  0.00     0.030 C 
BRANCH  10  13
ATOM     13  C   UNL d   1      28.175  -8.797   3.958  0.00  0.00     0.117 C 
ATOM     14  C   UNL d   1      28.841  -9.081   5.594  0.00  0.00     0.011 C 
ATOM     15  C   UNL d   1      28.590 -10.318   6.088  0.00  0.00    -0.015 C 
ATOM     16  C   UNL d   1      28.650 -11.405   7.071  0.00  0.00     0.036 C 
ATOM     17  C   UNL d   1      27.675 -10.588   5.006  0.00  0.00     0.019 C 
ATOM     18  C   UNL d   1      28.769 -12.634   6.489  0.00  0.00     0.035 C 
ATOM     19 CL   UNL d   1      29.272 -14.068   7.296  0.00  0.00    -0.084 Cl
ATOM     20  C   UNL d   1      28.680 -12.766   5.051  0.00  0.00     0.026 C 
ATOM     21  C   UNL d   1      28.198 -11.763   4.311  0.00  0.00     0.026 C 
ATOM     22  N   UNL d   1      27.047  -9.560   4.515  0.00  0.00    -0.280 NA
ATOM     23  H   UNL d   1      26.686  -8.827   5.148  0.00  0.00     0.128 HD
ENDBRANCH  10  13
ENDBRANCH   4   7
BRANCH   1  24
ATOM     24  C   UNL d   1      28.404 -15.045  -3.180  0.00  0.00     0.189 C 
ATOM     25  S   UNL d   1      29.048 -16.061  -1.808  0.00  0.00    -0.129 SA
ATOM     26  C   UNL d   1      27.413 -16.703  -1.342  0.00  0.00     0.079 C 
ATOM     27  C   UNL d   1      26.856 -16.205  -0.006  0.00  0.00     0.020 C 
ATOM     28  C   UNL d   1      26.472 -16.308  -2.456  0.00  0.00    -0.051 C 
ATOM     29  C   UNL d   1      25.463 -16.806   0.195  0.00  0.00     0.002 C 
ATOM     30  C   UNL d   1      24.524 -16.351  -0.927  0.00  0.00     0.004 C 
ATOM     31  C   UNL d   1      25.049 -16.779  -2.303  0.00  0.00     0.036 C 
ATOM     32  C   UNL d   1      26.991 -15.497  -3.403  0.00  0.00     0.053 C 
BRANCH  32  33
ATOM     33  C   UNL d   1      26.236 -15.076  -4.596  0.00  0.00     0.292 C 
ATOM     34  O   UNL d   1      26.638 -15.243  -5.755  0.00  0.00    -0.260 OA
BRANCH  33  35
ATOM     35  O   UNL d   1      25.062 -14.481  -4.271  0.00  0.00    -0.323 OA
ATOM     36  C   UNL d   1      25.181 -13.456  -3.264  0.00  0.00     0.213 C 
ENDBRANCH  33  35
ENDBRANCH  32  33
ENDBRANCH   1  24
TORSDOF 5
ENDMDL
