MODEL 1
REMARK VINA RESULT:    -9.237      0.000      0.000
REMARK INTER + INTRA:         -14.651
REMARK INTER:                 -13.414
REMARK INTRA:                  -1.237
REMARK CONF_INDEPENDENT:        4.176
REMARK UNBOUND:                -1.237
REMARK  14 active torsions:
REMARK  status: ('A' for Active; 'I' for Inactive)
REMARK    1  A    between atoms: C_2  and  C_3 
REMARK    2  A    between atoms: C_3  and  C_4 
REMARK    3  A    between atoms: C_4  and  C_5 
REMARK    4  A    between atoms: C_5  and  C_6 
REMARK    5  A    between atoms: C_6  and  O_7 
REMARK    6  A    between atoms: O_7  and  C_8 
REMARK    7  A    between atoms: C_13  and  C_14 
REMARK       I    between atoms: C_14  and  N_16 
REMARK    8  A    between atoms: N_16  and  C_17 
REMARK    9  A    between atoms: C_17  and  N_19 
REMARK   10  A    between atoms: C_25  and  C_26 
REMARK   11  A    between atoms: C_26  and  C_27 
REMARK   12  A    between atoms: C_27  and  O_29 
REMARK   13  A    between atoms: C_30  and  O_29 
REMARK   14  A    between atoms: C_30  and  C_32 
ROOT
ATOM      1  C   UNL d   1      24.513 -15.623  -1.678  0.00  0.00     0.177 C 
ATOM      2  S   UNL d   1      22.905 -15.949  -1.274  0.00  0.00    -0.041 SA
ENDROOT
BRANCH   1   3
ATOM      3  N   UNL d   1      24.864 -14.746  -2.736  0.00  0.00    -0.299 N 
ATOM      4  C   UNL d   1      25.542 -15.072  -3.940  0.00  0.00     0.260 C 
ATOM      5  O   UNL d   1      25.531 -16.197  -4.432  0.00  0.00    -0.267 OA
ATOM      6  H   UNL d   1      24.849 -13.765  -2.568  0.00  0.00     0.171 HD
BRANCH   4   7
ATOM      7  C   UNL d   1      26.247 -14.010  -4.759  0.00  0.00     0.065 C 
ATOM      8  C   UNL d   1      25.618 -12.728  -4.774  0.00  0.00     0.020 C 
ATOM      9  C   UNL d   1      26.185 -11.593  -5.385  0.00  0.00     0.001 C 
ATOM     10  C   UNL d   1      27.455 -11.673  -5.915  0.00  0.00     0.003 C 
ATOM     11  C   UNL d   1      28.035 -12.929  -6.001  0.00  0.00     0.038 C 
ATOM     12  C   UNL d   1      27.400 -14.121  -5.531  0.00  0.00     0.084 C 
BRANCH  12  13
ATOM     13  O   UNL d   1      28.134 -15.190  -5.940  0.00  0.00    -0.350 OA
BRANCH  13  14
ATOM     14  C   UNL d   1      29.499 -15.319  -6.274  0.00  0.00     0.175 C 
BRANCH  14  15
ATOM     15  C   UNL d   1      30.039 -16.795  -6.128  0.00  0.00     0.027 C 
BRANCH  15  16
ATOM     16  C   UNL d   1      29.987 -17.173  -4.679  0.00  0.00     0.002 C 
BRANCH  16  17
ATOM     17  C   UNL d   1      30.895 -18.344  -4.263  0.00  0.00    -0.000 C 
BRANCH  17  18
ATOM     18  C   UNL d   1      31.336 -19.333  -5.389  0.00  0.00    -0.005 C 
ATOM     19  C   UNL d   1      30.662 -20.700  -5.273  0.00  0.00     0.005 C 
ENDBRANCH  17  18
ENDBRANCH  16  17
ENDBRANCH  15  16
ENDBRANCH  14  15
ENDBRANCH  13  14
ENDBRANCH  12  13
ENDBRANCH   4   7
ENDBRANCH   1   3
BRANCH   1  20
ATOM     20  N   UNL d   1      25.567 -16.356  -1.055  0.00  0.00    -0.343 N 
ATOM     21  C   UNL d   1      26.976 -15.837  -1.312  0.00  0.00     0.146 C 
ATOM     22  C   UNL d   1      27.821 -15.942  -0.098  0.00  0.00     0.142 C 
ATOM     23  N   UNL d   1      27.864 -17.375   0.174  0.00  0.00    -0.358 N 
ATOM     24  C   UNL d   1      26.812 -18.235   0.189  0.00  0.00     0.241 C 
ATOM     25  H   UNL d   1      28.642 -17.793   0.658  0.00  0.00     0.162 HD
ATOM     26  O   UNL d   1      27.034 -19.310   0.741  0.00  0.00    -0.271 OA
ATOM     27  C   UNL d   1      25.526 -17.861  -0.585  0.00  0.00     0.188 C 
BRANCH  27  28
ATOM     28  C   UNL d   1      24.220 -18.245   0.143  0.00  0.00     0.146 C 
BRANCH  28  29
ATOM     29  C   UNL d   1      23.027 -18.963  -0.504  0.00  0.00     0.261 C 
ATOM     30  O   UNL d   1      22.946 -19.148  -1.734  0.00  0.00    -0.265 OA
BRANCH  29  31
ATOM     31  O   UNL d   1      21.973 -19.413   0.233  0.00  0.00    -0.316 OA
BRANCH  31  32
ATOM     32  C   UNL d   1      20.712 -19.978  -0.187  0.00  0.00     0.127 C 
ATOM     33  C   UNL d   1      19.901 -18.954  -0.814  0.00  0.00     0.040 C 
BRANCH  32  34
ATOM     34  C   UNL d   1      19.751 -20.279   0.960  0.00  0.00     0.027 C 
ATOM     35  C   UNL d   1      18.406 -20.551   0.406  0.00  0.00     0.007 C 
ENDBRANCH  32  34
ENDBRANCH  31  32
ENDBRANCH  29  31
ENDBRANCH  28  29
ENDBRANCH  27  28
ENDBRANCH   1  20
TORSDOF 14
ENDMDL
MODEL 2
REMARK VINA RESULT:    -8.510      2.369      8.711
REMARK INTER + INTRA:         -14.799
REMARK INTER:                 -12.686
REMARK INTRA:                  -2.113
REMARK CONF_INDEPENDENT:        4.176
REMARK UNBOUND:                -2.113
REMARK  14 active torsions:
REMARK  status: ('A' for Active; 'I' for Inactive)
REMARK    1  A    between atoms: C_2  and  C_3 
REMARK    2  A    between atoms: C_3  and  C_4 
REMARK    3  A    between atoms: C_4  and  C_5 
REMARK    4  A    between atoms: C_5  and  C_6 
REMARK    5  A    between atoms: C_6  and  O_7 
REMARK    6  A    between atoms: O_7  and  C_8 
REMARK    7  A    between atoms: C_13  and  C_14 
REMARK       I    between atoms: C_14  and  N_16 
REMARK    8  A    between atoms: N_16  and  C_17 
REMARK    9  A    between atoms: C_17  and  N_19 
REMARK   10  A    between atoms: C_25  and  C_26 
REMARK   11  A    between atoms: C_26  and  C_27 
REMARK   12  A    between atoms: C_27  and  O_29 
REMARK   13  A    between atoms: C_30  and  O_29 
REMARK   14  A    between atoms: C_30  and  C_32 
ROOT
ATOM      1  C   UNL d   1      27.388 -13.829  -3.955  0.00  0.00     0.177 C 
ATOM      2  S   UNL d   1      27.046 -12.298  -3.323  0.00  0.00    -0.041 SA
ENDROOT
BRANCH   1   3
ATOM      3  N   UNL d   1      27.098 -15.022  -3.244  0.00  0.00    -0.299 N 
ATOM      4  C   UNL d   1      25.852 -15.419  -2.694  0.00  0.00     0.260 C 
ATOM      5  O   UNL d   1      24.772 -15.017  -3.120  0.00  0.00    -0.267 OA
ATOM      6  H   UNL d   1      27.856 -15.559  -2.884  0.00  0.00     0.171 HD
BRANCH   4   7
ATOM      7  C   UNL d   1      25.771 -16.460  -1.596  0.00  0.00     0.065 C 
ATOM      8  C   UNL d   1      27.021 -17.017  -1.185  0.00  0.00     0.020 C 
ATOM      9  C   UNL d   1      27.153 -17.911  -0.106  0.00  0.00     0.001 C 
ATOM     10  C   UNL d   1      26.053 -18.200   0.672  0.00  0.00     0.003 C 
ATOM     11  C   UNL d   1      24.818 -17.753   0.228  0.00  0.00     0.038 C 
ATOM     12  C   UNL d   1      24.646 -16.978  -0.962  0.00  0.00     0.084 C 
BRANCH  12  13
ATOM     13  O   UNL d   1      23.315 -16.875  -1.219  0.00  0.00    -0.350 OA
BRANCH  13  14
ATOM     14  C   UNL d   1      22.196 -17.519  -0.648  0.00  0.00     0.175 C 
BRANCH  14  15
ATOM     15  C   UNL d   1      21.917 -18.945  -1.264  0.00  0.00     0.027 C 
BRANCH  15  16
ATOM     16  C   UNL d   1      20.510 -19.335  -0.931  0.00  0.00     0.002 C 
BRANCH  16  17
ATOM     17  C   UNL d   1      20.321 -20.069   0.409  0.00  0.00    -0.000 C 
BRANCH  17  18
ATOM     18  C   UNL d   1      18.923 -19.941   1.096  0.00  0.00    -0.005 C 
ATOM     19  C   UNL d   1      18.168 -21.269   1.151  0.00  0.00     0.005 C 
ENDBRANCH  17  18
ENDBRANCH  16  17
ENDBRANCH  15  16
ENDBRANCH  14  15
ENDBRANCH  13  14
ENDBRANCH  12  13
ENDBRANCH   4   7
ENDBRANCH   1   3
BRANCH   1  20
ATOM     20  N   UNL d   1      28.131 -13.949  -5.167  0.00  0.00    -0.343 N 
ATOM     21  C   UNL d   1      27.639 -13.098  -6.331  0.00  0.00     0.146 C 
ATOM     22  C   UNL d   1      28.770 -12.546  -7.114  0.00  0.00     0.142 C 
ATOM     23  N   UNL d   1      29.454 -13.731  -7.621  0.00  0.00    -0.358 N 
ATOM     24  C   UNL d   1      29.793 -14.842  -6.917  0.00  0.00     0.241 C 
ATOM     25  H   UNL d   1      29.988 -13.702  -8.475  0.00  0.00     0.162 HD
ATOM     26  O   UNL d   1      30.625 -15.563  -7.463  0.00  0.00    -0.271 OA
ATOM     27  C   UNL d   1      29.029 -15.165  -5.612  0.00  0.00     0.188 C 
BRANCH  27  28
ATOM     28  C   UNL d   1      29.923 -15.720  -4.481  0.00  0.00     0.146 C 
BRANCH  28  29
ATOM     29  C   UNL d   1      29.702 -17.055  -3.755  0.00  0.00     0.261 C 
ATOM     30  O   UNL d   1      29.478 -17.120  -2.531  0.00  0.00    -0.265 OA
BRANCH  29  31
ATOM     31  O   UNL d   1      29.769 -18.248  -4.410  0.00  0.00    -0.316 OA
BRANCH  31  32
ATOM     32  C   UNL d   1      30.902 -19.095  -4.696  0.00  0.00     0.127 C 
ATOM     33  C   UNL d   1      30.452 -20.324  -5.318  0.00  0.00     0.040 C 
BRANCH  32  34
ATOM     34  C   UNL d   1      31.523 -19.745  -3.462  0.00  0.00     0.027 C 
ATOM     35  C   UNL d   1      31.155 -21.178  -3.433  0.00  0.00     0.007 C 
ENDBRANCH  32  34
ENDBRANCH  31  32
ENDBRANCH  29  31
ENDBRANCH  28  29
ENDBRANCH  27  28
ENDBRANCH   1  20
TORSDOF 14
ENDMDL
MODEL 3
REMARK VINA RESULT:    -8.252      3.104      8.262
REMARK INTER + INTRA:         -14.666
REMARK INTER:                 -12.428
REMARK INTRA:                  -2.238
REMARK CONF_INDEPENDENT:        4.176
REMARK UNBOUND:                -2.238
REMARK  14 active torsions:
REMARK  status: ('A' for Active; 'I' for Inactive)
REMARK    1  A    between atoms: C_2  and  C_3 
REMARK    2  A    between atoms: C_3  and  C_4 
REMARK    3  A    between atoms: C_4  and  C_5 
REMARK    4  A    between atoms: C_5  and  C_6 
REMARK    5  A    between atoms: C_6  and  O_7 
REMARK    6  A    between atoms: O_7  and  C_8 
REMARK    7  A    between atoms: C_13  and  C_14 
REMARK       I    between atoms: C_14  and  N_16 
REMARK    8  A    between atoms: N_16  and  C_17 
REMARK    9  A    between atoms: C_17  and  N_19 
REMARK   10  A    between atoms: C_25  and  C_26 
REMARK   11  A    between atoms: C_26  and  C_27 
REMARK   12  A    between atoms: C_27  and  O_29 
REMARK   13  A    between atoms: C_30  and  O_29 
REMARK   14  A    between atoms: C_30  and  C_32 
ROOT
ATOM      1  C   UNL d   1      27.413 -14.376  -4.273  0.00  0.00     0.177 C 
ATOM      2  S   UNL d   1      27.768 -14.533  -5.918  0.00  0.00    -0.041 SA
ENDROOT
BRANCH   1   3
ATOM      3  N   UNL d   1      27.148 -15.498  -3.446  0.00  0.00    -0.299 N 
ATOM      4  C   UNL d   1      25.964 -15.769  -2.711  0.00  0.00     0.260 C 
ATOM      5  O   UNL d   1      24.864 -15.317  -3.020  0.00  0.00    -0.267 OA
ATOM      6  H   UNL d   1      27.911 -16.064  -3.150  0.00  0.00     0.171 HD
BRANCH   4   7
ATOM      7  C   UNL d   1      25.967 -16.730  -1.539  0.00  0.00     0.065 C 
ATOM      8  C   UNL d   1      27.233 -16.919  -0.904  0.00  0.00     0.020 C 
ATOM      9  C   UNL d   1      27.406 -17.684   0.265  0.00  0.00     0.001 C 
ATOM     10  C   UNL d   1      26.301 -18.203   0.904  0.00  0.00     0.003 C 
ATOM     11  C   UNL d   1      25.082 -18.117   0.249  0.00  0.00     0.038 C 
ATOM     12  C   UNL d   1      24.918 -17.484  -1.023  0.00  0.00     0.084 C 
BRANCH  12  13
ATOM     13  O   UNL d   1      23.663 -17.744  -1.474  0.00  0.00    -0.350 OA
BRANCH  13  14
ATOM     14  C   UNL d   1      22.743 -18.767  -1.156  0.00  0.00     0.175 C 
BRANCH  14  15
ATOM     15  C   UNL d   1      21.280 -18.233  -0.905  0.00  0.00     0.027 C 
BRANCH  15  16
ATOM     16  C   UNL d   1      20.314 -19.321  -1.261  0.00  0.00     0.002 C 
BRANCH  16  17
ATOM     17  C   UNL d   1      19.155 -19.534  -0.271  0.00  0.00    -0.000 C 
BRANCH  17  18
ATOM     18  C   UNL d   1      19.282 -20.733   0.723  0.00  0.00    -0.005 C 
ATOM     19  C   UNL d   1      19.458 -20.285   2.173  0.00  0.00     0.005 C 
ENDBRANCH  17  18
ENDBRANCH  16  17
ENDBRANCH  15  16
ENDBRANCH  14  15
ENDBRANCH  13  14
ENDBRANCH  12  13
ENDBRANCH   4   7
ENDBRANCH   1   3
BRANCH   1  20
ATOM     20  N   UNL d   1      27.217 -13.081  -3.707  0.00  0.00    -0.343 N 
ATOM     21  C   UNL d   1      26.501 -12.073  -4.597  0.00  0.00     0.146 C 
ATOM     22  C   UNL d   1      25.570 -11.225  -3.813  0.00  0.00     0.142 C 
ATOM     23  N   UNL d   1      26.441 -10.527  -2.875  0.00  0.00    -0.358 N 
ATOM     24  C   UNL d   1      27.424 -11.071  -2.112  0.00  0.00     0.241 C 
ATOM     25  H   UNL d   1      26.192  -9.625  -2.501  0.00  0.00     0.162 HD
ATOM     26  O   UNL d   1      27.807 -10.364  -1.184  0.00  0.00    -0.271 OA
ATOM     27  C   UNL d   1      28.053 -12.416  -2.548  0.00  0.00     0.188 C 
BRANCH  27  28
ATOM     28  C   UNL d   1      28.358 -13.375  -1.377  0.00  0.00     0.146 C 
BRANCH  28  29
ATOM     29  C   UNL d   1      27.462 -13.581  -0.147  0.00  0.00     0.261 C 
ATOM     30  O   UNL d   1      26.263 -13.241  -0.130  0.00  0.00    -0.265 OA
BRANCH  29  31
ATOM     31  O   UNL d   1      27.941 -14.121   1.008  0.00  0.00    -0.316 OA
BRANCH  31  32
ATOM     32  C   UNL d   1      27.416 -14.070   2.352  0.00  0.00     0.127 C 
ATOM     33  C   UNL d   1      27.224 -12.690   2.752  0.00  0.00     0.040 C 
BRANCH  32  34
ATOM     34  C   UNL d   1      28.435 -14.421   3.434  0.00  0.00     0.027 C 
ATOM     35  C   UNL d   1      27.778 -14.355   4.758  0.00  0.00     0.007 C 
ENDBRANCH  32  34
ENDBRANCH  31  32
ENDBRANCH  29  31
ENDBRANCH  28  29
ENDBRANCH  27  28
ENDBRANCH   1  20
TORSDOF 14
ENDMDL
MODEL 4
REMARK VINA RESULT:    -8.232      2.351      8.726
REMARK INTER + INTRA:         -14.982
REMARK INTER:                 -12.408
REMARK INTRA:                  -2.574
REMARK CONF_INDEPENDENT:        4.176
REMARK UNBOUND:                -2.574
REMARK  14 active torsions:
REMARK  status: ('A' for Active; 'I' for Inactive)
REMARK    1  A    between atoms: C_2  and  C_3 
REMARK    2  A    between atoms: C_3  and  C_4 
REMARK    3  A    between atoms: C_4  and  C_5 
REMARK    4  A    between atoms: C_5  and  C_6 
REMARK    5  A    between atoms: C_6  and  O_7 
REMARK    6  A    between atoms: O_7  and  C_8 
REMARK    7  A    between atoms: C_13  and  C_14 
REMARK       I    between atoms: C_14  and  N_16 
REMARK    8  A    between atoms: N_16  and  C_17 
REMARK    9  A    between atoms: C_17  and  N_19 
REMARK   10  A    between atoms: C_25  and  C_26 
REMARK   11  A    between atoms: C_26  and  C_27 
REMARK   12  A    between atoms: C_27  and  O_29 
REMARK   13  A    between atoms: C_30  and  O_29 
REMARK   14  A    between atoms: C_30  and  C_32 
ROOT
ATOM      1  C   UNL d   1      26.804 -12.851  -3.735  0.00  0.00     0.177 C 
ATOM      2  S   UNL d   1      25.533 -11.757  -3.521  0.00  0.00    -0.041 SA
ENDROOT
BRANCH   1   3
ATOM      3  N   UNL d   1      26.764 -14.167  -3.207  0.00  0.00    -0.299 N 
ATOM      4  C   UNL d   1      25.642 -14.849  -2.666  0.00  0.00     0.260 C 
ATOM      5  O   UNL d   1      24.483 -14.579  -2.971  0.00  0.00    -0.267 OA
ATOM      6  H   UNL d   1      27.622 -14.614  -2.972  0.00  0.00     0.171 HD
BRANCH   4   7
ATOM      7  C   UNL d   1      25.812 -16.038  -1.743  0.00  0.00     0.065 C 
ATOM      8  C   UNL d   1      27.163 -16.408  -1.462  0.00  0.00     0.020 C 
ATOM      9  C   UNL d   1      27.515 -17.412  -0.540  0.00  0.00     0.001 C 
ATOM     10  C   UNL d   1      26.532 -18.012   0.216  0.00  0.00     0.003 C 
ATOM     11  C   UNL d   1      25.213 -17.739  -0.114  0.00  0.00     0.038 C 
ATOM     12  C   UNL d   1      24.837 -16.843  -1.163  0.00  0.00     0.084 C 
BRANCH  12  13
ATOM     13  O   UNL d   1      23.496 -16.950  -1.360  0.00  0.00    -0.350 OA
BRANCH  13  14
ATOM     14  C   UNL d   1      22.452 -17.375  -0.509  0.00  0.00     0.175 C 
BRANCH  14  15
ATOM     15  C   UNL d   1      22.076 -18.896  -0.697  0.00  0.00     0.027 C 
BRANCH  15  16
ATOM     16  C   UNL d   1      20.651 -18.974  -1.154  0.00  0.00     0.002 C 
BRANCH  16  17
ATOM     17  C   UNL d   1      19.750 -19.939  -0.363  0.00  0.00    -0.000 C 
BRANCH  17  18
ATOM     18  C   UNL d   1      19.965 -20.002   1.183  0.00  0.00    -0.005 C 
ATOM     19  C   UNL d   1      18.709 -20.437   1.938  0.00  0.00     0.005 C 
ENDBRANCH  17  18
ENDBRANCH  16  17
ENDBRANCH  15  16
ENDBRANCH  14  15
ENDBRANCH  13  14
ENDBRANCH  12  13
ENDBRANCH   4   7
ENDBRANCH   1   3
BRANCH   1  20
ATOM     20  N   UNL d   1      28.028 -12.416  -4.325  0.00  0.00    -0.343 N 
ATOM     21  C   UNL d   1      28.743 -11.282  -3.602  0.00  0.00     0.146 C 
ATOM     22  C   UNL d   1      30.214 -11.475  -3.616  0.00  0.00     0.142 C 
ATOM     23  N   UNL d   1      30.554 -11.450  -5.034  0.00  0.00    -0.358 N 
ATOM     24  C   UNL d   1      29.927 -12.118  -6.036  0.00  0.00     0.241 C 
ATOM     25  H   UNL d   1      31.466 -11.160  -5.349  0.00  0.00     0.162 HD
ATOM     26  O   UNL d   1      30.567 -12.197  -7.082  0.00  0.00    -0.271 OA
ATOM     27  C   UNL d   1      28.464 -12.577  -5.831  0.00  0.00     0.188 C 
BRANCH  27  28
ATOM     28  C   UNL d   1      28.153 -13.970  -6.419  0.00  0.00     0.146 C 
BRANCH  28  29
ATOM     29  C   UNL d   1      27.596 -15.160  -5.624  0.00  0.00     0.261 C 
ATOM     30  O   UNL d   1      26.430 -15.575  -5.773  0.00  0.00    -0.265 OA
BRANCH  29  31
ATOM     31  O   UNL d   1      28.341 -15.810  -4.687  0.00  0.00    -0.316 OA
BRANCH  31  32
ATOM     32  C   UNL d   1      29.541 -16.599  -4.830  0.00  0.00     0.127 C 
ATOM     33  C   UNL d   1      30.143 -16.817  -3.530  0.00  0.00     0.040 C 
BRANCH  32  34
ATOM     34  C   UNL d   1      30.717 -15.840  -5.439  0.00  0.00     0.027 C 
ATOM     35  C   UNL d   1      30.768 -16.113  -6.892  0.00  0.00     0.007 C 
ENDBRANCH  32  34
ENDBRANCH  31  32
ENDBRANCH  29  31
ENDBRANCH  28  29
ENDBRANCH  27  28
ENDBRANCH   1  20
TORSDOF 14
ENDMDL
MODEL 5
REMARK VINA RESULT:    -8.093      2.550      8.574
REMARK INTER + INTRA:         -15.425
REMARK INTER:                 -12.269
REMARK INTRA:                  -3.156
REMARK CONF_INDEPENDENT:        4.176
REMARK UNBOUND:                -3.156
REMARK  14 active torsions:
REMARK  status: ('A' for Active; 'I' for Inactive)
REMARK    1  A    between atoms: C_2  and  C_3 
REMARK    2  A    between atoms: C_3  and  C_4 
REMARK    3  A    between atoms: C_4  and  C_5 
REMARK    4  A    between atoms: C_5  and  C_6 
REMARK    5  A    between atoms: C_6  and  O_7 
REMARK    6  A    between atoms: O_7  and  C_8 
REMARK    7  A    between atoms: C_13  and  C_14 
REMARK       I    between atoms: C_14  and  N_16 
REMARK    8  A    between atoms: N_16  and  C_17 
REMARK    9  A    between atoms: C_17  and  N_19 
REMARK   10  A    between atoms: C_25  and  C_26 
REMARK   11  A    between atoms: C_26  and  C_27 
REMARK   12  A    between atoms: C_27  and  O_29 
REMARK   13  A    between atoms: C_30  and  O_29 
REMARK   14  A    between atoms: C_30  and  C_32 
ROOT
ATOM      1  C   UNL d   1      27.706 -12.688  -2.572  0.00  0.00     0.177 C 
ATOM      2  S   UNL d   1      28.927 -11.999  -1.627  0.00  0.00    -0.041 SA
ENDROOT
BRANCH   1   3
ATOM      3  N   UNL d   1      27.125 -13.943  -2.258  0.00  0.00    -0.299 N 
ATOM      4  C   UNL d   1      26.654 -14.386  -0.994  0.00  0.00     0.260 C 
ATOM      5  O   UNL d   1      26.281 -13.618  -0.111  0.00  0.00    -0.267 OA
ATOM      6  H   UNL d   1      27.236 -14.695  -2.901  0.00  0.00     0.171 HD
BRANCH   4   7
ATOM      7  C   UNL d   1      26.483 -15.860  -0.689  0.00  0.00     0.065 C 
ATOM      8  C   UNL d   1      27.692 -16.580  -0.444  0.00  0.00     0.020 C 
ATOM      9  C   UNL d   1      27.723 -17.927  -0.035  0.00  0.00     0.001 C 
ATOM     10  C   UNL d   1      26.540 -18.575   0.247  0.00  0.00     0.003 C 
ATOM     11  C   UNL d   1      25.359 -17.928  -0.083  0.00  0.00     0.038 C 
ATOM     12  C   UNL d   1      25.317 -16.618  -0.654  0.00  0.00     0.084 C 
BRANCH  12  13
ATOM     13  O   UNL d   1      24.039 -16.358  -1.039  0.00  0.00    -0.350 OA
BRANCH  13  14
ATOM     14  C   UNL d   1      22.798 -16.821  -0.550  0.00  0.00     0.175 C 
BRANCH  14  15
ATOM     15  C   UNL d   1      22.414 -18.255  -1.087  0.00  0.00     0.027 C 
BRANCH  15  16
ATOM     16  C   UNL d   1      20.941 -18.450  -0.895  0.00  0.00     0.002 C 
BRANCH  16  17
ATOM     17  C   UNL d   1      20.503 -19.874  -0.508  0.00  0.00    -0.000 C 
BRANCH  17  18
ATOM     18  C   UNL d   1      19.002 -20.073  -0.123  0.00  0.00    -0.005 C 
ATOM     19  C   UNL d   1      18.779 -20.125   1.388  0.00  0.00     0.005 C 
ENDBRANCH  17  18
ENDBRANCH  16  17
ENDBRANCH  15  16
ENDBRANCH  14  15
ENDBRANCH  13  14
ENDBRANCH  12  13
ENDBRANCH   4   7
ENDBRANCH   1   3
BRANCH   1  20
ATOM     20  N   UNL d   1      27.340 -12.085  -3.812  0.00  0.00    -0.343 N 
ATOM     21  C   UNL d   1      28.245 -10.958  -4.292  0.00  0.00     0.146 C 
ATOM     22  C   UNL d   1      28.436 -11.006  -5.762  0.00  0.00     0.142 C 
ATOM     23  N   UNL d   1      27.091 -10.821  -6.294  0.00  0.00    -0.358 N 
ATOM     24  C   UNL d   1      25.958 -11.453  -5.890  0.00  0.00     0.241 C 
ATOM     25  H   UNL d   1      26.939 -10.417  -7.205  0.00  0.00     0.162 HD
ATOM     26  O   UNL d   1      25.017 -11.375  -6.675  0.00  0.00    -0.271 OA
ATOM     27  C   UNL d   1      25.908 -12.067  -4.471  0.00  0.00     0.188 C 
BRANCH  27  28
ATOM     28  C   UNL d   1      25.177 -13.425  -4.399  0.00  0.00     0.146 C 
BRANCH  28  29
ATOM     29  C   UNL d   1      25.853 -14.799  -4.514  0.00  0.00     0.261 C 
ATOM     30  O   UNL d   1      25.532 -15.763  -3.794  0.00  0.00    -0.265 OA
BRANCH  29  31
ATOM     31  O   UNL d   1      26.866 -15.029  -5.395  0.00  0.00    -0.316 OA
BRANCH  31  32
ATOM     32  C   UNL d   1      28.286 -14.798  -5.268  0.00  0.00     0.127 C 
ATOM     33  C   UNL d   1      28.934 -15.014  -6.546  0.00  0.00     0.040 C 
BRANCH  32  34
ATOM     34  C   UNL d   1      29.030 -15.895  -4.511  0.00  0.00     0.027 C 
ATOM     35  C   UNL d   1      30.061 -15.275  -3.650  0.00  0.00     0.007 C 
ENDBRANCH  32  34
ENDBRANCH  31  32
ENDBRANCH  29  31
ENDBRANCH  28  29
ENDBRANCH  27  28
ENDBRANCH   1  20
TORSDOF 14
ENDMDL
MODEL 6
REMARK VINA RESULT:    -7.569      2.431      8.630
REMARK INTER + INTRA:         -14.679
REMARK INTER:                 -11.746
REMARK INTRA:                  -2.934
REMARK CONF_INDEPENDENT:        4.176
REMARK UNBOUND:                -2.934
REMARK  14 active torsions:
REMARK  status: ('A' for Active; 'I' for Inactive)
REMARK    1  A    between atoms: C_2  and  C_3 
REMARK    2  A    between atoms: C_3  and  C_4 
REMARK    3  A    between atoms: C_4  and  C_5 
REMARK    4  A    between atoms: C_5  and  C_6 
REMARK    5  A    between atoms: C_6  and  O_7 
REMARK    6  A    between atoms: O_7  and  C_8 
REMARK    7  A    between atoms: C_13  and  C_14 
REMARK       I    between atoms: C_14  and  N_16 
REMARK    8  A    between atoms: N_16  and  C_17 
REMARK    9  A    between atoms: C_17  and  N_19 
REMARK   10  A    between atoms: C_25  and  C_26 
REMARK   11  A    between atoms: C_26  and  C_27 
REMARK   12  A    between atoms: C_27  and  O_29 
REMARK   13  A    between atoms: C_30  and  O_29 
REMARK   14  A    between atoms: C_30  and  C_32 
ROOT
ATOM      1  C   UNL d   1      27.044 -13.912  -4.118  0.00  0.00     0.177 C 
ATOM      2  S   UNL d   1      26.563 -12.393  -3.555  0.00  0.00    -0.041 SA
ENDROOT
BRANCH   1   3
ATOM      3  N   UNL d   1      26.763 -15.107  -3.407  0.00  0.00    -0.299 N 
ATOM      4  C   UNL d   1      25.580 -15.428  -2.691  0.00  0.00     0.260 C 
ATOM      5  O   UNL d   1      24.486 -14.928  -2.943  0.00  0.00    -0.267 OA
ATOM      6  H   UNL d   1      27.517 -15.714  -3.175  0.00  0.00     0.171 HD
BRANCH   4   7
ATOM      7  C   UNL d   1      25.572 -16.502  -1.622  0.00  0.00     0.065 C 
ATOM      8  C   UNL d   1      26.856 -16.877  -1.121  0.00  0.00     0.020 C 
ATOM      9  C   UNL d   1      27.038 -17.773  -0.051  0.00  0.00     0.001 C 
ATOM     10  C   UNL d   1      25.937 -18.247   0.630  0.00  0.00     0.003 C 
ATOM     11  C   UNL d   1      24.687 -17.977   0.095  0.00  0.00     0.038 C 
ATOM     12  C   UNL d   1      24.493 -17.201  -1.091  0.00  0.00     0.084 C 
BRANCH  12  13
ATOM     13  O   UNL d   1      23.186 -17.291  -1.454  0.00  0.00    -0.350 OA
BRANCH  13  14
ATOM     14  C   UNL d   1      22.024 -17.599  -0.713  0.00  0.00     0.175 C 
BRANCH  14  15
ATOM     15  C   UNL d   1      21.554 -19.095  -0.888  0.00  0.00     0.027 C 
BRANCH  15  16
ATOM     16  C   UNL d   1      20.187 -19.232  -0.288  0.00  0.00     0.002 C 
BRANCH  16  17
ATOM     17  C   UNL d   1      19.664 -20.671  -0.145  0.00  0.00    -0.000 C 
BRANCH  17  18
ATOM     18  C   UNL d   1      18.466 -20.895   0.833  0.00  0.00    -0.005 C 
ATOM     19  C   UNL d   1      18.580 -20.064   2.110  0.00  0.00     0.005 C 
ENDBRANCH  17  18
ENDBRANCH  16  17
ENDBRANCH  15  16
ENDBRANCH  14  15
ENDBRANCH  13  14
ENDBRANCH  12  13
ENDBRANCH   4   7
ENDBRANCH   1   3
BRANCH   1  20
ATOM     20  N   UNL d   1      27.893 -14.012  -5.261  0.00  0.00    -0.343 N 
ATOM     21  C   UNL d   1      27.577 -13.058  -6.405  0.00  0.00     0.146 C 
ATOM     22  C   UNL d   1      28.815 -12.543  -7.039  0.00  0.00     0.142 C 
ATOM     23  N   UNL d   1      29.463 -13.742  -7.559  0.00  0.00    -0.358 N 
ATOM     24  C   UNL d   1      29.656 -14.916  -6.904  0.00  0.00     0.241 C 
ATOM     25  H   UNL d   1      30.080 -13.700  -8.355  0.00  0.00     0.162 HD
ATOM     26  O   UNL d   1      30.487 -15.662  -7.418  0.00  0.00    -0.271 OA
ATOM     27  C   UNL d   1      28.747 -15.262  -5.702  0.00  0.00     0.188 C 
BRANCH  27  28
ATOM     28  C   UNL d   1      29.485 -15.950  -4.533  0.00  0.00     0.146 C 
BRANCH  28  29
ATOM     29  C   UNL d   1      29.983 -15.242  -3.265  0.00  0.00     0.261 C 
ATOM     30  O   UNL d   1      31.014 -14.541  -3.253  0.00  0.00    -0.265 OA
BRANCH  29  31
ATOM     31  O   UNL d   1      29.338 -15.365  -2.072  0.00  0.00    -0.316 OA
BRANCH  31  32
ATOM     32  C   UNL d   1      29.754 -14.991  -0.741  0.00  0.00     0.127 C 
ATOM     33  C   UNL d   1      30.044 -16.180   0.035  0.00  0.00     0.040 C 
BRANCH  32  34
ATOM     34  C   UNL d   1      28.620 -14.481   0.146  0.00  0.00     0.027 C 
ATOM     35  C   UNL d   1      27.821 -13.493  -0.611  0.00  0.00     0.007 C 
ENDBRANCH  32  34
ENDBRANCH  31  32
ENDBRANCH  29  31
ENDBRANCH  28  29
ENDBRANCH  27  28
ENDBRANCH   1  20
TORSDOF 14
ENDMDL
MODEL 7
REMARK VINA RESULT:    -7.514      2.873      8.510
REMARK INTER + INTRA:         -14.656
REMARK INTER:                 -11.690
REMARK INTRA:                  -2.966
REMARK CONF_INDEPENDENT:        4.176
REMARK UNBOUND:                -2.966
REMARK  14 active torsions:
REMARK  status: ('A' for Active; 'I' for Inactive)
REMARK    1  A    between atoms: C_2  and  C_3 
REMARK    2  A    between atoms: C_3  and  C_4 
REMARK    3  A    between atoms: C_4  and  C_5 
REMARK    4  A    between atoms: C_5  and  C_6 
REMARK    5  A    between atoms: C_6  and  O_7 
REMARK    6  A    between atoms: O_7  and  C_8 
REMARK    7  A    between atoms: C_13  and  C_14 
REMARK       I    between atoms: C_14  and  N_16 
REMARK    8  A    between atoms: N_16  and  C_17 
REMARK    9  A    between atoms: C_17  and  N_19 
REMARK   10  A    between atoms: C_25  and  C_26 
REMARK   11  A    between atoms: C_26  and  C_27 
REMARK   12  A    between atoms: C_27  and  O_29 
REMARK   13  A    between atoms: C_30  and  O_29 
REMARK   14  A    between atoms: C_30  and  C_32 
ROOT
ATOM      1  C   UNL d   1      27.305 -14.440  -4.380  0.00  0.00     0.177 C 
ATOM      2  S   UNL d   1      27.769 -14.645  -5.993  0.00  0.00    -0.041 SA
ENDROOT
BRANCH   1   3
ATOM      3  N   UNL d   1      26.956 -15.535  -3.549  0.00  0.00    -0.299 N 
ATOM      4  C   UNL d   1      25.790 -15.679  -2.753  0.00  0.00     0.260 C 
ATOM      5  O   UNL d   1      24.734 -15.102  -3.000  0.00  0.00    -0.267 OA
ATOM      6  H   UNL d   1      27.665 -16.188  -3.297  0.00  0.00     0.171 HD
BRANCH   4   7
ATOM      7  C   UNL d   1      25.744 -16.650  -1.590  0.00  0.00     0.065 C 
ATOM      8  C   UNL d   1      27.014 -17.047  -1.072  0.00  0.00     0.020 C 
ATOM      9  C   UNL d   1      27.166 -17.850   0.073  0.00  0.00     0.001 C 
ATOM     10  C   UNL d   1      26.054 -18.200   0.808  0.00  0.00     0.003 C 
ATOM     11  C   UNL d   1      24.811 -17.911   0.265  0.00  0.00     0.038 C 
ATOM     12  C   UNL d   1      24.638 -17.238  -0.984  0.00  0.00     0.084 C 
BRANCH  12  13
ATOM     13  O   UNL d   1      23.322 -17.289  -1.322  0.00  0.00    -0.350 OA
BRANCH  13  14
ATOM     14  C   UNL d   1      22.160 -17.481  -0.544  0.00  0.00     0.175 C 
BRANCH  14  15
ATOM     15  C   UNL d   1      21.790 -19.003  -0.343  0.00  0.00     0.027 C 
BRANCH  15  16
ATOM     16  C   UNL d   1      20.627 -19.325  -1.231  0.00  0.00     0.002 C 
BRANCH  16  17
ATOM     17  C   UNL d   1      19.273 -19.491  -0.521  0.00  0.00    -0.000 C 
BRANCH  17  18
ATOM     18  C   UNL d   1      19.289 -20.166   0.888  0.00  0.00    -0.005 C 
ATOM     19  C   UNL d   1      18.332 -21.353   0.988  0.00  0.00     0.005 C 
ENDBRANCH  17  18
ENDBRANCH  16  17
ENDBRANCH  15  16
ENDBRANCH  14  15
ENDBRANCH  13  14
ENDBRANCH  12  13
ENDBRANCH   4   7
ENDBRANCH   1   3
BRANCH   1  20
ATOM     20  N   UNL d   1      27.100 -13.127  -3.860  0.00  0.00    -0.343 N 
ATOM     21  C   UNL d   1      26.513 -12.115  -4.834  0.00  0.00     0.146 C 
ATOM     22  C   UNL d   1      25.539 -11.219  -4.163  0.00  0.00     0.142 C 
ATOM     23  N   UNL d   1      26.337 -10.531  -3.154  0.00  0.00    -0.358 N 
ATOM     24  C   UNL d   1      27.220 -11.093  -2.288  0.00  0.00     0.241 C 
ATOM     25  H   UNL d   1      26.085  -9.614  -2.823  0.00  0.00     0.162 HD
ATOM     26  O   UNL d   1      27.534 -10.379  -1.338  0.00  0.00    -0.271 OA
ATOM     27  C   UNL d   1      27.840 -12.467  -2.634  0.00  0.00     0.188 C 
BRANCH  27  28
ATOM     28  C   UNL d   1      27.993 -13.411  -1.422  0.00  0.00     0.146 C 
BRANCH  28  29
ATOM     29  C   UNL d   1      29.126 -14.430  -1.235  0.00  0.00     0.261 C 
ATOM     30  O   UNL d   1      29.946 -14.352  -0.300  0.00  0.00    -0.265 OA
BRANCH  29  31
ATOM     31  O   UNL d   1      29.314 -15.464  -2.103  0.00  0.00    -0.316 OA
BRANCH  31  32
ATOM     32  C   UNL d   1      30.406 -16.401  -2.218  0.00  0.00     0.127 C 
ATOM     33  C   UNL d   1      30.242 -17.201  -3.415  0.00  0.00     0.040 C 
BRANCH  32  34
ATOM     34  C   UNL d   1      30.340 -17.560  -1.227  0.00  0.00     0.027 C 
ATOM     35  C   UNL d   1      31.509 -17.491  -0.323  0.00  0.00     0.007 C 
ENDBRANCH  32  34
ENDBRANCH  31  32
ENDBRANCH  29  31
ENDBRANCH  28  29
ENDBRANCH  27  28
ENDBRANCH   1  20
TORSDOF 14
ENDMDL
MODEL 8
REMARK VINA RESULT:    -7.088      2.464      7.912
REMARK INTER + INTRA:         -14.718
REMARK INTER:                 -11.264
REMARK INTRA:                  -3.454
REMARK CONF_INDEPENDENT:        4.176
REMARK UNBOUND:                -3.454
REMARK  14 active torsions:
REMARK  status: ('A' for Active; 'I' for Inactive)
REMARK    1  A    between atoms: C_2  and  C_3 
REMARK    2  A    between atoms: C_3  and  C_4 
REMARK    3  A    between atoms: C_4  and  C_5 
REMARK    4  A    between atoms: C_5  and  C_6 
REMARK    5  A    between atoms: C_6  and  O_7 
REMARK    6  A    between atoms: O_7  and  C_8 
REMARK    7  A    between atoms: C_13  and  C_14 
REMARK       I    between atoms: C_14  and  N_16 
REMARK    8  A    between atoms: N_16  and  C_17 
REMARK    9  A    between atoms: C_17  and  N_19 
REMARK   10  A    between atoms: C_25  and  C_26 
REMARK   11  A    between atoms: C_26  and  C_27 
REMARK   12  A    between atoms: C_27  and  O_29 
REMARK   13  A    between atoms: C_30  and  O_29 
REMARK   14  A    between atoms: C_30  and  C_32 
ROOT
ATOM      1  C   UNL d   1      27.526 -15.149  -2.525  0.00  0.00     0.177 C 
ATOM      2  S   UNL d   1      28.984 -15.980  -2.729  0.00  0.00    -0.041 SA
ENDROOT
BRANCH   1   3
ATOM      3  N   UNL d   1      26.299 -15.821  -2.292  0.00  0.00    -0.299 N 
ATOM      4  C   UNL d   1      25.506 -15.791  -1.115  0.00  0.00     0.260 C 
ATOM      5  O   UNL d   1      25.531 -14.860  -0.314  0.00  0.00    -0.267 OA
ATOM      6  H   UNL d   1      26.041 -16.568  -2.898  0.00  0.00     0.171 HD
BRANCH   4   7
ATOM      7  C   UNL d   1      24.488 -16.874  -0.822  0.00  0.00     0.065 C 
ATOM      8  C   UNL d   1      23.121 -16.467  -0.893  0.00  0.00     0.020 C 
ATOM      9  C   UNL d   1      22.040 -17.359  -0.764  0.00  0.00     0.001 C 
ATOM     10  C   UNL d   1      22.286 -18.712  -0.663  0.00  0.00     0.003 C 
ATOM     11  C   UNL d   1      23.602 -19.112  -0.489  0.00  0.00     0.038 C 
ATOM     12  C   UNL d   1      24.701 -18.199  -0.454  0.00  0.00     0.084 C 
BRANCH  12  13
ATOM     13  O   UNL d   1      25.814 -18.881  -0.073  0.00  0.00    -0.350 OA
BRANCH  13  14
ATOM     14  C   UNL d   1      27.129 -18.450   0.208  0.00  0.00     0.175 C 
BRANCH  14  15
ATOM     15  C   UNL d   1      27.182 -17.074   0.980  0.00  0.00     0.027 C 
BRANCH  15  16
ATOM     16  C   UNL d   1      28.369 -16.304   0.489  0.00  0.00     0.002 C 
BRANCH  16  17
ATOM     17  C   UNL d   1      28.391 -14.810   0.854  0.00  0.00    -0.000 C 
BRANCH  17  18
ATOM     18  C   UNL d   1      27.780 -14.408   2.235  0.00  0.00    -0.005 C 
ATOM     19  C   UNL d   1      26.907 -13.156   2.155  0.00  0.00     0.005 C 
ENDBRANCH  17  18
ENDBRANCH  16  17
ENDBRANCH  15  16
ENDBRANCH  14  15
ENDBRANCH  13  14
ENDBRANCH  12  13
ENDBRANCH   4   7
ENDBRANCH   1   3
BRANCH   1  20
ATOM     20  N   UNL d   1      27.473 -13.740  -2.742  0.00  0.00    -0.343 N 
ATOM     21  C   UNL d   1      28.374 -12.899  -1.846  0.00  0.00     0.146 C 
ATOM     22  C   UNL d   1      28.976 -11.768  -2.593  0.00  0.00     0.142 C 
ATOM     23  N   UNL d   1      27.825 -10.979  -3.018  0.00  0.00    -0.358 N 
ATOM     24  C   UNL d   1      26.685 -11.442  -3.593  0.00  0.00     0.241 C 
ATOM     25  H   UNL d   1      27.901  -9.988  -3.182  0.00  0.00     0.162 HD
ATOM     26  O   UNL d   1      26.000 -10.583  -4.144  0.00  0.00    -0.271 OA
ATOM     27  C   UNL d   1      26.290 -12.924  -3.389  0.00  0.00     0.188 C 
BRANCH  27  28
ATOM     28  C   UNL d   1      25.691 -13.594  -4.644  0.00  0.00     0.146 C 
BRANCH  28  29
ATOM     29  C   UNL d   1      26.064 -14.990  -5.163  0.00  0.00     0.261 C 
ATOM     30  O   UNL d   1      25.396 -16.005  -4.888  0.00  0.00    -0.265 OA
BRANCH  29  31
ATOM     31  O   UNL d   1      27.170 -15.199  -5.931  0.00  0.00    -0.316 OA
BRANCH  31  32
ATOM     32  C   UNL d   1      28.491 -14.621  -5.845  0.00  0.00     0.127 C 
ATOM     33  C   UNL d   1      28.532 -13.378  -6.589  0.00  0.00     0.040 C 
BRANCH  32  34
ATOM     34  C   UNL d   1      29.545 -15.351  -6.673  0.00  0.00     0.027 C 
ATOM     35  C   UNL d   1      30.612 -15.841  -5.773  0.00  0.00     0.007 C 
ENDBRANCH  32  34
ENDBRANCH  31  32
ENDBRANCH  29  31
ENDBRANCH  28  29
ENDBRANCH  27  28
ENDBRANCH   1  20
TORSDOF 14
ENDMDL
MODEL 9
REMARK VINA RESULT:    -6.758      2.562      8.012
REMARK INTER + INTRA:         -14.564
REMARK INTER:                 -10.935
REMARK INTRA:                  -3.630
REMARK CONF_INDEPENDENT:        4.176
REMARK UNBOUND:                -3.630
REMARK  14 active torsions:
REMARK  status: ('A' for Active; 'I' for Inactive)
REMARK    1  A    between atoms: C_2  and  C_3 
REMARK    2  A    between atoms: C_3  and  C_4 
REMARK    3  A    between atoms: C_4  and  C_5 
REMARK    4  A    between atoms: C_5  and  C_6 
REMARK    5  A    between atoms: C_6  and  O_7 
REMARK    6  A    between atoms: O_7  and  C_8 
REMARK    7  A    between atoms: C_13  and  C_14 
REMARK       I    between atoms: C_14  and  N_16 
REMARK    8  A    between atoms: N_16  and  C_17 
REMARK    9  A    between atoms: C_17  and  N_19 
REMARK   10  A    between atoms: C_25  and  C_26 
REMARK   11  A    between atoms: C_26  and  C_27 
REMARK   12  A    between atoms: C_27  and  O_29 
REMARK   13  A    between atoms: C_30  and  O_29 
REMARK   14  A    between atoms: C_30  and  C_32 
ROOT
ATOM      1  C   UNL d   1      27.488 -14.264  -3.236  0.00  0.00     0.177 C 
ATOM      2  S   UNL d   1      27.911 -12.916  -2.309  0.00  0.00    -0.041 SA
ENDROOT
BRANCH   1   3
ATOM      3  N   UNL d   1      26.765 -15.357  -2.694  0.00  0.00    -0.299 N 
ATOM      4  C   UNL d   1      25.364 -15.446  -2.480  0.00  0.00     0.260 C 
ATOM      5  O   UNL d   1      24.545 -14.791  -3.120  0.00  0.00    -0.267 OA
ATOM      6  H   UNL d   1      27.265 -16.064  -2.202  0.00  0.00     0.171 HD
BRANCH   4   7
ATOM      7  C   UNL d   1      24.778 -16.445  -1.503  0.00  0.00     0.065 C 
ATOM      8  C   UNL d   1      23.374 -16.323  -1.270  0.00  0.00     0.020 C 
ATOM      9  C   UNL d   1      22.638 -17.231  -0.485  0.00  0.00     0.001 C 
ATOM     10  C   UNL d   1      23.260 -18.356   0.011  0.00  0.00     0.003 C 
ATOM     11  C   UNL d   1      24.638 -18.436  -0.117  0.00  0.00     0.038 C 
ATOM     12  C   UNL d   1      25.424 -17.437  -0.772  0.00  0.00     0.084 C 
BRANCH  12  13
ATOM     13  O   UNL d   1      26.737 -17.711  -0.554  0.00  0.00    -0.350 OA
BRANCH  13  14
ATOM     14  C   UNL d   1      27.630 -17.288   0.455  0.00  0.00     0.175 C 
BRANCH  14  15
ATOM     15  C   UNL d   1      28.156 -15.815   0.243  0.00  0.00     0.027 C 
BRANCH  15  16
ATOM     16  C   UNL d   1      27.034 -14.867   0.538  0.00  0.00     0.002 C 
BRANCH  16  17
ATOM     17  C   UNL d   1      27.267 -13.907   1.717  0.00  0.00    -0.000 C 
BRANCH  17  18
ATOM     18  C   UNL d   1      28.349 -14.320   2.766  0.00  0.00    -0.005 C 
ATOM     19  C   UNL d   1      27.784 -14.452   4.180  0.00  0.00     0.005 C 
ENDBRANCH  17  18
ENDBRANCH  16  17
ENDBRANCH  15  16
ENDBRANCH  14  15
ENDBRANCH  13  14
ENDBRANCH  12  13
ENDBRANCH   4   7
ENDBRANCH   1   3
BRANCH   1  20
ATOM     20  N   UNL d   1      27.995 -14.404  -4.563  0.00  0.00    -0.343 N 
ATOM     21  C   UNL d   1      27.211 -13.679  -5.649  0.00  0.00     0.146 C 
ATOM     22  C   UNL d   1      28.116 -13.088  -6.666  0.00  0.00     0.142 C 
ATOM     23  N   UNL d   1      28.800 -14.243  -7.236  0.00  0.00    -0.358 N 
ATOM     24  C   UNL d   1      29.371 -15.271  -6.557  0.00  0.00     0.241 C 
ATOM     25  H   UNL d   1      29.157 -14.228  -8.178  0.00  0.00     0.162 HD
ATOM     26  O   UNL d   1      30.149 -15.956  -7.218  0.00  0.00    -0.271 OA
ATOM     27  C   UNL d   1      28.904 -15.568  -5.113  0.00  0.00     0.188 C 
BRANCH  27  28
ATOM     28  C   UNL d   1      30.045 -15.968  -4.153  0.00  0.00     0.146 C 
BRANCH  28  29
ATOM     29  C   UNL d   1      29.963 -17.081  -3.098  0.00  0.00     0.261 C 
ATOM     30  O   UNL d   1      29.008 -17.178  -2.304  0.00  0.00    -0.265 OA
BRANCH  29  31
ATOM     31  O   UNL d   1      30.950 -18.009  -2.954  0.00  0.00    -0.316 OA
BRANCH  31  32
ATOM     32  C   UNL d   1      31.259 -19.175  -3.747  0.00  0.00     0.127 C 
ATOM     33  C   UNL d   1      32.522 -18.984  -4.430  0.00  0.00     0.040 C 
BRANCH  32  34
ATOM     34  C   UNL d   1      30.404 -19.319  -5.004  0.00  0.00     0.027 C 
ATOM     35  C   UNL d   1      31.068 -18.614  -6.123  0.00  0.00     0.007 C 
ENDBRANCH  32  34
ENDBRANCH  31  32
ENDBRANCH  29  31
ENDBRANCH  28  29
ENDBRANCH  27  28
ENDBRANCH   1  20
TORSDOF 14
ENDMDL
