MODEL 1
REMARK VINA RESULT:    -8.736      0.000      0.000
REMARK INTER + INTRA:         -10.280
REMARK INTER:                  -9.930
REMARK INTRA:                  -0.351
REMARK CONF_INDEPENDENT:        1.193
REMARK UNBOUND:                -0.351
REMARK  4 active torsions:
REMARK  status: ('A' for Active; 'I' for Inactive)
REMARK       I    between atoms: C_2  and  N_3 
REMARK    1  A    between atoms: C_2  and  C_18 
REMARK    2  A    between atoms: N_3  and  C_4 
REMARK    3  A    between atoms: C_4  and  C_5 
REMARK    4  A    between atoms: C_8  and  N_9 
ROOT
ATOM      1  C   UNL d   1      25.509 -17.352  -0.657  0.00  0.00    -0.025 A 
ATOM      2  C   UNL d   1      26.638 -16.516  -0.573  0.00  0.00     0.014 A 
ATOM      3  C   UNL d   1      26.931 -15.576  -1.590  0.00  0.00     0.049 A 
ATOM      4  C   UNL d   1      26.082 -15.470  -2.689  0.00  0.00     0.102 A 
ATOM      5  N   UNL d   1      25.030 -16.298  -2.711  0.00  0.00    -0.352 N 
ATOM      6  C   UNL d   1      24.707 -17.172  -1.765  0.00  0.00     0.098 A 
ATOM      7  H   UNL d   1      24.447 -16.256  -3.531  0.00  0.00     0.166 HD
ENDROOT
BRANCH   1   8
ATOM      8  C   UNL d   1      25.153 -18.362   0.416  0.00  0.00     0.162 C 
BRANCH   8   9
ATOM      9  N   UNL d   1      23.828 -18.965   0.264  0.00  0.00    -0.353 N 
ATOM     10  C   UNL d   1      22.697 -18.193   0.173  0.00  0.00     0.249 C 
ATOM     11  O   UNL d   1      22.725 -16.968   0.230  0.00  0.00    -0.268 OA
ATOM     12  H   UNL d   1      23.688 -19.957   0.193  0.00  0.00     0.163 HD
BRANCH  10  13
ATOM     13  C   UNL d   1      21.423 -18.951  -0.005  0.00  0.00     0.031 C 
ATOM     14  C   UNL d   1      21.006 -19.137  -1.268  0.00  0.00     0.147 C 
ATOM     15  O   UNL d   1      19.811 -19.705  -1.636  0.00  0.00    -0.362 OA
ATOM     16  C   UNL d   1      18.833 -19.723  -0.588  0.00  0.00     0.174 C 
ATOM     17  C   UNL d   1      19.418 -20.297   0.693  0.00  0.00     0.031 C 
ATOM     18  C   UNL d   1      20.598 -19.431   1.155  0.00  0.00     0.048 C 
ENDBRANCH  10  13
ENDBRANCH   8   9
ENDBRANCH   1   8
BRANCH   4  19
ATOM     19  N   UNL d   1      26.120 -14.545  -3.698  0.00  0.00    -0.367 N 
ATOM     20  C   UNL d   1      26.363 -15.087  -5.038  0.00  0.00     0.124 C 
ATOM     21  C   UNL d   1      27.837 -14.892  -5.389  0.00  0.00     0.020 C 
ATOM     22  C   UNL d   1      28.210 -13.470  -5.780  0.00  0.00     0.002 C 
ATOM     23  C   UNL d   1      27.795 -12.393  -4.771  0.00  0.00     0.002 C 
ATOM     24  C   UNL d   1      26.276 -12.231  -4.645  0.00  0.00     0.020 C 
ATOM     25  C   UNL d   1      25.622 -13.164  -3.596  0.00  0.00     0.124 C 
ENDBRANCH   4  19
TORSDOF 4
ENDMDL
MODEL 2
REMARK VINA RESULT:    -8.497      1.236      1.925
REMARK INTER + INTRA:         -10.190
REMARK INTER:                  -9.691
REMARK INTRA:                  -0.500
REMARK CONF_INDEPENDENT:        1.193
REMARK UNBOUND:                -0.500
REMARK  4 active torsions:
REMARK  status: ('A' for Active; 'I' for Inactive)
REMARK       I    between atoms: C_2  and  N_3 
REMARK    1  A    between atoms: C_2  and  C_18 
REMARK    2  A    between atoms: N_3  and  C_4 
REMARK    3  A    between atoms: C_4  and  C_5 
REMARK    4  A    between atoms: C_8  and  N_9 
ROOT
ATOM      1  C   UNL d   1      25.256 -17.029  -0.560  0.00  0.00    -0.025 A 
ATOM      2  C   UNL d   1      24.911 -17.130  -1.920  0.00  0.00     0.014 A 
ATOM      3  C   UNL d   1      25.155 -16.064  -2.820  0.00  0.00     0.049 A 
ATOM      4  C   UNL d   1      25.755 -14.897  -2.350  0.00  0.00     0.102 A 
ATOM      5  N   UNL d   1      26.052 -14.864  -1.046  0.00  0.00    -0.352 N 
ATOM      6  C   UNL d   1      25.865 -15.852  -0.178  0.00  0.00     0.098 A 
ATOM      7  H   UNL d   1      26.438 -14.000  -0.698  0.00  0.00     0.166 HD
ENDROOT
BRANCH   1   8
ATOM      8  C   UNL d   1      25.024 -18.152   0.432  0.00  0.00     0.162 C 
BRANCH   8   9
ATOM      9  N   UNL d   1      23.739 -18.836   0.283  0.00  0.00    -0.353 N 
ATOM     10  C   UNL d   1      22.570 -18.134   0.129  0.00  0.00     0.249 C 
ATOM     11  O   UNL d   1      22.529 -16.908   0.122  0.00  0.00    -0.268 OA
ATOM     12  H   UNL d   1      23.655 -19.836   0.261  0.00  0.00     0.163 HD
BRANCH  10  13
ATOM     13  C   UNL d   1      21.344 -18.970  -0.037  0.00  0.00     0.031 C 
ATOM     14  C   UNL d   1      20.851 -19.075  -1.282  0.00  0.00     0.147 C 
ATOM     15  O   UNL d   1      19.676 -19.700  -1.623  0.00  0.00    -0.362 OA
ATOM     16  C   UNL d   1      18.780 -19.888  -0.519  0.00  0.00     0.174 C 
ATOM     17  C   UNL d   1      19.496 -20.525   0.660  0.00  0.00     0.031 C 
ATOM     18  C   UNL d   1      20.641 -19.614   1.124  0.00  0.00     0.048 C 
ENDBRANCH  10  13
ENDBRANCH   8   9
ENDBRANCH   1   8
BRANCH   4  19
ATOM     19  N   UNL d   1      26.188 -13.820  -3.077  0.00  0.00    -0.367 N 
ATOM     20  C   UNL d   1      27.433 -13.206  -2.608  0.00  0.00     0.124 C 
ATOM     21  C   UNL d   1      27.091 -11.964  -1.785  0.00  0.00     0.020 C 
ATOM     22  C   UNL d   1      26.679 -10.755  -2.610  0.00  0.00     0.002 C 
ATOM     23  C   UNL d   1      25.549 -11.011  -3.613  0.00  0.00     0.002 C 
ATOM     24  C   UNL d   1      25.944 -11.967  -4.744  0.00  0.00     0.020 C 
ATOM     25  C   UNL d   1      25.711 -13.464  -4.422  0.00  0.00     0.124 C 
ENDBRANCH   4  19
TORSDOF 4
ENDMDL
MODEL 3
REMARK VINA RESULT:    -7.839      4.504      6.212
REMARK INTER + INTRA:          -9.476
REMARK INTER:                  -9.032
REMARK INTRA:                  -0.443
REMARK CONF_INDEPENDENT:        1.193
REMARK UNBOUND:                -0.443
REMARK  4 active torsions:
REMARK  status: ('A' for Active; 'I' for Inactive)
REMARK       I    between atoms: C_2  and  N_3 
REMARK    1  A    between atoms: C_2  and  C_18 
REMARK    2  A    between atoms: N_3  and  C_4 
REMARK    3  A    between atoms: C_4  and  C_5 
REMARK    4  A    between atoms: C_8  and  N_9 
ROOT
ATOM      1  C   UNL d   1      26.849 -15.303   0.080  0.00  0.00    -0.025 A 
ATOM      2  C   UNL d   1      26.346 -14.013   0.327  0.00  0.00     0.014 A 
ATOM      3  C   UNL d   1      26.713 -13.293   1.490  0.00  0.00     0.049 A 
ATOM      4  C   UNL d   1      27.597 -13.869   2.400  0.00  0.00     0.102 A 
ATOM      5  N   UNL d   1      28.033 -15.100   2.109  0.00  0.00    -0.352 N 
ATOM      6  C   UNL d   1      27.734 -15.795   1.018  0.00  0.00     0.098 A 
ATOM      7  H   UNL d   1      28.630 -15.535   2.794  0.00  0.00     0.166 HD
ENDROOT
BRANCH   1   8
ATOM      8  C   UNL d   1      26.491 -16.102  -1.158  0.00  0.00     0.162 C 
BRANCH   8   9
ATOM      9  N   UNL d   1      25.160 -16.707  -1.124  0.00  0.00    -0.353 N 
ATOM     10  C   UNL d   1      24.951 -17.944  -0.567  0.00  0.00     0.249 C 
ATOM     11  O   UNL d   1      25.858 -18.615  -0.084  0.00  0.00    -0.268 OA
ATOM     12  H   UNL d   1      24.343 -16.243  -1.478  0.00  0.00     0.163 HD
BRANCH  10  13
ATOM     13  C   UNL d   1      23.535 -18.417  -0.583  0.00  0.00     0.031 C 
ATOM     14  C   UNL d   1      23.089 -18.940  -1.737  0.00  0.00     0.147 C 
ATOM     15  O   UNL d   1      21.795 -19.325  -1.990  0.00  0.00    -0.362 OA
ATOM     16  C   UNL d   1      20.837 -18.758  -1.085  0.00  0.00     0.174 C 
ATOM     17  C   UNL d   1      21.268 -18.957   0.359  0.00  0.00     0.031 C 
ATOM     18  C   UNL d   1      22.617 -18.264   0.596  0.00  0.00     0.048 C 
ENDBRANCH  10  13
ENDBRANCH   8   9
ENDBRANCH   1   8
BRANCH   4  19
ATOM     19  N   UNL d   1      28.169 -13.290   3.502  0.00  0.00    -0.367 N 
ATOM     20  C   UNL d   1      29.405 -13.922   3.973  0.00  0.00     0.124 C 
ATOM     21  C   UNL d   1      29.074 -14.829   5.157  0.00  0.00     0.020 C 
ATOM     22  C   UNL d   1      28.825 -14.093   6.465  0.00  0.00     0.002 C 
ATOM     23  C   UNL d   1      27.778 -12.977   6.389  0.00  0.00     0.002 C 
ATOM     24  C   UNL d   1      28.209 -11.796   5.512  0.00  0.00     0.020 C 
ATOM     25  C   UNL d   1      27.844 -11.950   4.015  0.00  0.00     0.124 C 
ENDBRANCH   4  19
TORSDOF 4
ENDMDL
MODEL 4
REMARK VINA RESULT:    -7.234      1.613      2.785
REMARK INTER + INTRA:          -8.778
REMARK INTER:                  -8.427
REMARK INTRA:                  -0.351
REMARK CONF_INDEPENDENT:        1.193
REMARK UNBOUND:                -0.351
REMARK  4 active torsions:
REMARK  status: ('A' for Active; 'I' for Inactive)
REMARK       I    between atoms: C_2  and  N_3 
REMARK    1  A    between atoms: C_2  and  C_18 
REMARK    2  A    between atoms: N_3  and  C_4 
REMARK    3  A    between atoms: C_4  and  C_5 
REMARK    4  A    between atoms: C_8  and  N_9 
ROOT
ATOM      1  C   UNL d   1      25.953 -15.742  -2.200  0.00  0.00    -0.025 A 
ATOM      2  C   UNL d   1      25.550 -15.777  -3.547  0.00  0.00     0.014 A 
ATOM      3  C   UNL d   1      25.726 -14.656  -4.395  0.00  0.00     0.049 A 
ATOM      4  C   UNL d   1      26.318 -13.502  -3.887  0.00  0.00     0.102 A 
ATOM      5  N   UNL d   1      26.673 -13.532  -2.597  0.00  0.00    -0.352 N 
ATOM      6  C   UNL d   1      26.550 -14.571  -1.779  0.00  0.00     0.098 A 
ATOM      7  H   UNL d   1      27.052 -12.679  -2.219  0.00  0.00     0.166 HD
ENDROOT
BRANCH   1   8
ATOM      8  C   UNL d   1      25.795 -16.924  -1.264  0.00  0.00     0.162 C 
BRANCH   8   9
ATOM      9  N   UNL d   1      24.473 -17.551  -1.299  0.00  0.00    -0.353 N 
ATOM     10  C   UNL d   1      23.928 -18.134  -0.183  0.00  0.00     0.249 C 
ATOM     11  O   UNL d   1      24.515 -18.179   0.894  0.00  0.00    -0.268 OA
ATOM     12  H   UNL d   1      23.899 -17.562  -2.123  0.00  0.00     0.163 HD
BRANCH  10  13
ATOM     13  C   UNL d   1      22.563 -18.709  -0.368  0.00  0.00     0.031 C 
ATOM     14  C   UNL d   1      22.179 -18.951  -1.632  0.00  0.00     0.147 C 
ATOM     15  O   UNL d   1      20.928 -19.369  -2.018  0.00  0.00    -0.362 OA
ATOM     16  C   UNL d   1      19.913 -19.143  -1.030  0.00  0.00     0.174 C 
ATOM     17  C   UNL d   1      20.348 -19.673   0.327  0.00  0.00     0.031 C 
ATOM     18  C   UNL d   1      21.624 -18.950   0.779  0.00  0.00     0.048 C 
ENDBRANCH  10  13
ENDBRANCH   8   9
ENDBRANCH   1   8
BRANCH   4  19
ATOM     19  N   UNL d   1      26.691 -12.375  -4.571  0.00  0.00    -0.367 N 
ATOM     20  C   UNL d   1      26.807 -11.159  -3.761  0.00  0.00     0.124 C 
ATOM     21  C   UNL d   1      25.539 -10.324  -3.940  0.00  0.00     0.020 C 
ATOM     22  C   UNL d   1      25.463  -9.568  -5.258  0.00  0.00     0.002 C 
ATOM     23  C   UNL d   1      25.670 -10.428  -6.509  0.00  0.00     0.002 C 
ATOM     24  C   UNL d   1      27.088 -11.000  -6.627  0.00  0.00     0.020 C 
ATOM     25  C   UNL d   1      27.284 -12.362  -5.916  0.00  0.00     0.124 C 
ENDBRANCH   4  19
TORSDOF 4
ENDMDL
MODEL 5
REMARK VINA RESULT:    -6.957      3.592      5.127
REMARK INTER + INTRA:          -8.718
REMARK INTER:                  -8.151
REMARK INTRA:                  -0.567
REMARK CONF_INDEPENDENT:        1.193
REMARK UNBOUND:                -0.567
REMARK  4 active torsions:
REMARK  status: ('A' for Active; 'I' for Inactive)
REMARK       I    between atoms: C_2  and  N_3 
REMARK    1  A    between atoms: C_2  and  C_18 
REMARK    2  A    between atoms: N_3  and  C_4 
REMARK    3  A    between atoms: C_4  and  C_5 
REMARK    4  A    between atoms: C_8  and  N_9 
ROOT
ATOM      1  C   UNL d   1      26.085 -16.339  -0.693  0.00  0.00    -0.025 A 
ATOM      2  C   UNL d   1      25.928 -14.957  -0.483  0.00  0.00     0.014 A 
ATOM      3  C   UNL d   1      26.634 -14.286   0.544  0.00  0.00     0.049 A 
ATOM      4  C   UNL d   1      27.507 -15.007   1.356  0.00  0.00     0.102 A 
ATOM      5  N   UNL d   1      27.606 -16.318   1.108  0.00  0.00    -0.352 N 
ATOM      6  C   UNL d   1      26.982 -16.977   0.138  0.00  0.00     0.098 A 
ATOM      7  H   UNL d   1      28.197 -16.846   1.730  0.00  0.00     0.166 HD
ENDROOT
BRANCH   1   8
ATOM      8  C   UNL d   1      25.358 -17.091  -1.790  0.00  0.00     0.162 C 
BRANCH   8   9
ATOM      9  N   UNL d   1      24.245 -17.918  -1.322  0.00  0.00    -0.353 N 
ATOM     10  C   UNL d   1      23.057 -17.360  -0.922  0.00  0.00     0.249 C 
ATOM     11  O   UNL d   1      22.864 -16.148  -0.918  0.00  0.00    -0.268 OA
ATOM     12  H   UNL d   1      24.288 -18.921  -1.297  0.00  0.00     0.163 HD
BRANCH  10  13
ATOM     13  C   UNL d   1      22.009 -18.333  -0.496  0.00  0.00     0.031 C 
ATOM     14  C   UNL d   1      21.327 -18.950  -1.475  0.00  0.00     0.147 C 
ATOM     15  O   UNL d   1      20.254 -19.788  -1.292  0.00  0.00    -0.362 OA
ATOM     16  C   UNL d   1      19.628 -19.654  -0.009  0.00  0.00     0.174 C 
ATOM     17  C   UNL d   1      20.658 -19.719   1.108  0.00  0.00     0.031 C 
ATOM     18  C   UNL d   1      21.668 -18.575   0.947  0.00  0.00     0.048 C 
ENDBRANCH  10  13
ENDBRANCH   8   9
ENDBRANCH   1   8
BRANCH   4  19
ATOM     19  N   UNL d   1      28.369 -14.524   2.305  0.00  0.00    -0.367 N 
ATOM     20  C   UNL d   1      28.007 -14.825   3.693  0.00  0.00     0.124 C 
ATOM     21  C   UNL d   1      27.332 -13.598   4.305  0.00  0.00     0.020 C 
ATOM     22  C   UNL d   1      28.287 -12.476   4.684  0.00  0.00     0.002 C 
ATOM     23  C   UNL d   1      29.223 -12.018   3.561  0.00  0.00     0.002 C 
ATOM     24  C   UNL d   1      30.241 -13.086   3.143  0.00  0.00     0.020 C 
ATOM     25  C   UNL d   1      29.735 -14.048   2.040  0.00  0.00     0.124 C 
ENDBRANCH   4  19
TORSDOF 4
ENDMDL
MODEL 6
REMARK VINA RESULT:    -6.926      4.622      8.807
REMARK INTER + INTRA:          -8.522
REMARK INTER:                  -8.119
REMARK INTRA:                  -0.403
REMARK CONF_INDEPENDENT:        1.193
REMARK UNBOUND:                -0.403
REMARK  4 active torsions:
REMARK  status: ('A' for Active; 'I' for Inactive)
REMARK       I    between atoms: C_2  and  N_3 
REMARK    1  A    between atoms: C_2  and  C_18 
REMARK    2  A    between atoms: N_3  and  C_4 
REMARK    3  A    between atoms: C_4  and  C_5 
REMARK    4  A    between atoms: C_8  and  N_9 
ROOT
ATOM      1  C   UNL d   1      28.175 -15.110  -4.821  0.00  0.00    -0.025 A 
ATOM      2  C   UNL d   1      26.800 -14.944  -5.066  0.00  0.00     0.014 A 
ATOM      3  C   UNL d   1      25.835 -15.274  -4.084  0.00  0.00     0.049 A 
ATOM      4  C   UNL d   1      26.256 -15.764  -2.850  0.00  0.00     0.102 A 
ATOM      5  N   UNL d   1      27.577 -15.904  -2.684  0.00  0.00    -0.352 N 
ATOM      6  C   UNL d   1      28.512 -15.581  -3.569  0.00  0.00     0.098 A 
ATOM      7  H   UNL d   1      27.876 -16.309  -1.811  0.00  0.00     0.166 HD
ENDROOT
BRANCH   1   8
ATOM      8  C   UNL d   1      29.240 -14.756  -5.841  0.00  0.00     0.162 C 
BRANCH   8   9
ATOM      9  N   UNL d   1      29.737 -15.893  -6.617  0.00  0.00    -0.353 N 
ATOM     10  C   UNL d   1      30.394 -16.936  -6.016  0.00  0.00     0.249 C 
ATOM     11  O   UNL d   1      30.617 -16.972  -4.810  0.00  0.00    -0.268 OA
ATOM     12  H   UNL d   1      29.599 -15.975  -7.608  0.00  0.00     0.163 HD
BRANCH  10  13
ATOM     13  C   UNL d   1      30.818 -18.034  -6.935  0.00  0.00     0.031 C 
ATOM     14  C   UNL d   1      31.521 -17.672  -8.021  0.00  0.00     0.147 C 
ATOM     15  O   UNL d   1      31.903 -18.512  -9.039  0.00  0.00    -0.362 OA
ATOM     16  C   UNL d   1      31.155 -19.735  -9.089  0.00  0.00     0.174 C 
ATOM     17  C   UNL d   1      31.112 -20.403  -7.724  0.00  0.00     0.031 C 
ATOM     18  C   UNL d   1      30.432 -19.469  -6.714  0.00  0.00     0.048 C 
ENDBRANCH  10  13
ENDBRANCH   8   9
ENDBRANCH   1   8
BRANCH   4  19
ATOM     19  N   UNL d   1      25.497 -16.013  -1.737  0.00  0.00    -0.367 N 
ATOM     20  C   UNL d   1      26.224 -16.005  -0.465  0.00  0.00     0.124 C 
ATOM     21  C   UNL d   1      26.519 -17.447  -0.056  0.00  0.00     0.020 C 
ATOM     22  C   UNL d   1      25.324 -18.199   0.510  0.00  0.00     0.002 C 
ATOM     23  C   UNL d   1      24.073 -18.181  -0.374  0.00  0.00     0.002 C 
ATOM     24  C   UNL d   1      23.450 -16.788  -0.520  0.00  0.00     0.020 C 
ATOM     25  C   UNL d   1      24.028 -15.952  -1.688  0.00  0.00     0.124 C 
ENDBRANCH   4  19
TORSDOF 4
ENDMDL
MODEL 7
REMARK VINA RESULT:    -6.918      5.446      7.390
REMARK INTER + INTRA:          -8.584
REMARK INTER:                  -8.111
REMARK INTRA:                  -0.473
REMARK CONF_INDEPENDENT:        1.193
REMARK UNBOUND:                -0.473
REMARK  4 active torsions:
REMARK  status: ('A' for Active; 'I' for Inactive)
REMARK       I    between atoms: C_2  and  N_3 
REMARK    1  A    between atoms: C_2  and  C_18 
REMARK    2  A    between atoms: N_3  and  C_4 
REMARK    3  A    between atoms: C_4  and  C_5 
REMARK    4  A    between atoms: C_8  and  N_9 
ROOT
ATOM      1  C   UNL d   1      27.230 -14.212   1.159  0.00  0.00    -0.025 A 
ATOM      2  C   UNL d   1      26.718 -13.105   1.860  0.00  0.00     0.014 A 
ATOM      3  C   UNL d   1      27.030 -12.892   3.224  0.00  0.00     0.049 A 
ATOM      4  C   UNL d   1      27.867 -13.790   3.882  0.00  0.00     0.102 A 
ATOM      5  N   UNL d   1      28.314 -14.825   3.161  0.00  0.00    -0.352 N 
ATOM      6  C   UNL d   1      28.067 -15.044   1.875  0.00  0.00     0.098 A 
ATOM      7  H   UNL d   1      28.876 -15.502   3.653  0.00  0.00     0.166 HD
ENDROOT
BRANCH   1   8
ATOM      8  C   UNL d   1      26.930 -14.469  -0.305  0.00  0.00     0.162 C 
BRANCH   8   9
ATOM      9  N   UNL d   1      25.726 -15.263  -0.546  0.00  0.00    -0.353 N 
ATOM     10  C   UNL d   1      25.683 -16.604  -0.257  0.00  0.00     0.249 C 
ATOM     11  O   UNL d   1      26.644 -17.214   0.201  0.00  0.00    -0.268 OA
ATOM     12  H   UNL d   1      24.876 -14.866  -0.905  0.00  0.00     0.163 HD
BRANCH  10  13
ATOM     13  C   UNL d   1      24.377 -17.272  -0.534  0.00  0.00     0.031 C 
ATOM     14  C   UNL d   1      23.321 -16.468  -0.739  0.00  0.00     0.147 C 
ATOM     15  O   UNL d   1      22.021 -16.885  -0.895  0.00  0.00    -0.362 OA
ATOM     16  C   UNL d   1      21.780 -18.215  -0.417  0.00  0.00     0.174 C 
ATOM     17  C   UNL d   1      22.809 -19.187  -0.971  0.00  0.00     0.031 C 
ATOM     18  C   UNL d   1      24.214 -18.765  -0.520  0.00  0.00     0.048 C 
ENDBRANCH  10  13
ENDBRANCH   8   9
ENDBRANCH   1   8
BRANCH   4  19
ATOM     19  N   UNL d   1      28.386 -13.689   5.146  0.00  0.00    -0.367 N 
ATOM     20  C   UNL d   1      27.577 -12.923   6.098  0.00  0.00     0.124 C 
ATOM     21  C   UNL d   1      28.155 -11.513   6.214  0.00  0.00     0.020 C 
ATOM     22  C   UNL d   1      29.422 -11.418   7.050  0.00  0.00     0.002 C 
ATOM     23  C   UNL d   1      30.542 -12.379   6.638  0.00  0.00     0.002 C 
ATOM     24  C   UNL d   1      30.194 -13.854   6.871  0.00  0.00     0.020 C 
ATOM     25  C   UNL d   1      29.466 -14.531   5.684  0.00  0.00     0.124 C 
ENDBRANCH   4  19
TORSDOF 4
ENDMDL
MODEL 8
REMARK VINA RESULT:    -6.815      7.249      9.697
REMARK INTER + INTRA:          -8.477
REMARK INTER:                  -8.009
REMARK INTRA:                  -0.469
REMARK CONF_INDEPENDENT:        1.193
REMARK UNBOUND:                -0.469
REMARK  4 active torsions:
REMARK  status: ('A' for Active; 'I' for Inactive)
REMARK       I    between atoms: C_2  and  N_3 
REMARK    1  A    between atoms: C_2  and  C_18 
REMARK    2  A    between atoms: N_3  and  C_4 
REMARK    3  A    between atoms: C_4  and  C_5 
REMARK    4  A    between atoms: C_8  and  N_9 
ROOT
ATOM      1  C   UNL d   1      29.328 -14.047   3.393  0.00  0.00    -0.025 A 
ATOM      2  C   UNL d   1      28.165 -14.326   4.133  0.00  0.00     0.014 A 
ATOM      3  C   UNL d   1      28.132 -14.157   5.538  0.00  0.00     0.049 A 
ATOM      4  C   UNL d   1      29.270 -13.698   6.199  0.00  0.00     0.102 A 
ATOM      5  N   UNL d   1      30.344 -13.458   5.437  0.00  0.00    -0.352 N 
ATOM      6  C   UNL d   1      30.405 -13.577   4.116  0.00  0.00     0.098 A 
ATOM      7  H   UNL d   1      31.181 -13.177   5.923  0.00  0.00     0.166 HD
ENDROOT
BRANCH   1   8
ATOM      8  C   UNL d   1      29.400 -14.202   1.886  0.00  0.00     0.162 C 
BRANCH   8   9
ATOM      9  N   UNL d   1      28.534 -15.247   1.342  0.00  0.00    -0.353 N 
ATOM     10  C   UNL d   1      27.396 -14.940   0.639  0.00  0.00     0.249 C 
ATOM     11  O   UNL d   1      27.033 -13.784   0.439  0.00  0.00    -0.268 OA
ATOM     12  H   UNL d   1      28.740 -16.226   1.434  0.00  0.00     0.163 HD
BRANCH  10  13
ATOM     13  C   UNL d   1      26.629 -16.113   0.125  0.00  0.00     0.031 C 
ATOM     14  C   UNL d   1      25.685 -15.858  -0.795  0.00  0.00     0.147 C 
ATOM     15  O   UNL d   1      24.801 -16.778  -1.304  0.00  0.00    -0.362 OA
ATOM     16  C   UNL d   1      24.663 -17.955  -0.497  0.00  0.00     0.174 C 
ATOM     17  C   UNL d   1      26.023 -18.537  -0.147  0.00  0.00     0.031 C 
ATOM     18  C   UNL d   1      26.838 -17.506   0.646  0.00  0.00     0.048 C 
ENDBRANCH  10  13
ENDBRANCH   8   9
ENDBRANCH   1   8
BRANCH   4  19
ATOM     19  N   UNL d   1      29.397 -13.350   7.517  0.00  0.00    -0.367 N 
ATOM     20  C   UNL d   1      30.738 -13.517   8.085  0.00  0.00     0.124 C 
ATOM     21  C   UNL d   1      30.779 -14.825   8.875  0.00  0.00     0.020 C 
ATOM     22  C   UNL d   1      30.095 -14.764  10.232  0.00  0.00     0.002 C 
ATOM     23  C   UNL d   1      28.653 -14.246  10.206  0.00  0.00     0.002 C 
ATOM     24  C   UNL d   1      28.542 -12.772   9.800  0.00  0.00     0.020 C 
ATOM     25  C   UNL d   1      28.428 -12.541   8.273  0.00  0.00     0.124 C 
ENDBRANCH   4  19
TORSDOF 4
ENDMDL
MODEL 9
REMARK VINA RESULT:    -6.701      6.717     10.184
REMARK INTER + INTRA:          -8.343
REMARK INTER:                  -7.894
REMARK INTRA:                  -0.449
REMARK CONF_INDEPENDENT:        1.193
REMARK UNBOUND:                -0.449
REMARK  4 active torsions:
REMARK  status: ('A' for Active; 'I' for Inactive)
REMARK       I    between atoms: C_2  and  N_3 
REMARK    1  A    between atoms: C_2  and  C_18 
REMARK    2  A    between atoms: N_3  and  C_4 
REMARK    3  A    between atoms: C_4  and  C_5 
REMARK    4  A    between atoms: C_8  and  N_9 
ROOT
ATOM      1  C   UNL d   1      24.448  -7.917  -4.772  0.00  0.00    -0.025 A 
ATOM      2  C   UNL d   1      24.246  -6.546  -4.535  0.00  0.00     0.014 A 
ATOM      3  C   UNL d   1      23.388  -5.778  -5.360  0.00  0.00     0.049 A 
ATOM      4  C   UNL d   1      22.726  -6.394  -6.419  0.00  0.00     0.102 A 
ATOM      5  N   UNL d   1      22.967  -7.699  -6.593  0.00  0.00    -0.352 N 
ATOM      6  C   UNL d   1      23.741  -8.458  -5.826  0.00  0.00     0.098 A 
ATOM      7  H   UNL d   1      22.529  -8.131  -7.392  0.00  0.00     0.166 HD
ENDROOT
BRANCH   1   8
ATOM      8  C   UNL d   1      25.347  -8.777  -3.905  0.00  0.00     0.162 C 
BRANCH   8   9
ATOM      9  N   UNL d   1      25.395 -10.187  -4.293  0.00  0.00    -0.353 N 
ATOM     10  C   UNL d   1      26.298 -11.053  -3.731  0.00  0.00     0.249 C 
ATOM     11  O   UNL d   1      27.121 -10.700  -2.892  0.00  0.00    -0.268 OA
ATOM     12  H   UNL d   1      24.761 -10.588  -4.961  0.00  0.00     0.163 HD
BRANCH  10  13
ATOM     13  C   UNL d   1      26.208 -12.465  -4.210  0.00  0.00     0.031 C 
ATOM     14  C   UNL d   1      25.040 -13.095  -4.005  0.00  0.00     0.147 C 
ATOM     15  O   UNL d   1      24.795 -14.422  -4.267  0.00  0.00    -0.362 OA
ATOM     16  C   UNL d   1      25.983 -15.215  -4.394  0.00  0.00     0.174 C 
ATOM     17  C   UNL d   1      26.968 -14.569  -5.355  0.00  0.00     0.031 C 
ATOM     18  C   UNL d   1      27.371 -13.185  -4.829  0.00  0.00     0.048 C 
ENDBRANCH  10  13
ENDBRANCH   8   9
ENDBRANCH   1   8
BRANCH   4  19
ATOM     19  N   UNL d   1      21.767  -5.861  -7.239  0.00  0.00    -0.367 N 
ATOM     20  C   UNL d   1      20.637  -5.227  -6.553  0.00  0.00     0.124 C 
ATOM     21  C   UNL d   1      19.462  -6.203  -6.533  0.00  0.00     0.020 C 
ATOM     22  C   UNL d   1      18.725  -6.331  -7.858  0.00  0.00     0.002 C 
ATOM     23  C   UNL d   1      19.615  -6.653  -9.063  0.00  0.00     0.002 C 
ATOM     24  C   UNL d   1      20.586  -5.522  -9.422  0.00  0.00     0.020 C 
ATOM     25  C   UNL d   1      21.941  -5.587  -8.673  0.00  0.00     0.124 C 
ENDBRANCH   4  19
TORSDOF 4
ENDMDL
