MODEL 1
REMARK VINA RESULT:    -9.466      0.000      0.000
REMARK INTER + INTRA:         -12.808
REMARK INTER:                 -12.151
REMARK INTRA:                  -0.657
REMARK CONF_INDEPENDENT:        2.685
REMARK UNBOUND:                -0.657
REMARK  9 active torsions:
REMARK  status: ('A' for Active; 'I' for Inactive)
REMARK    1  A    between atoms: C_2  and  C_3 
REMARK       I    between atoms: C_2  and  N_21 
REMARK    2  A    between atoms: C_3  and  S_4 
REMARK    3  A    between atoms: S_4  and  C_5 
REMARK    4  A    between atoms: C_8  and  N_9 
REMARK    5  A    between atoms: N_9  and  N_10 
REMARK    6  A    between atoms: C_11  and  C_12 
REMARK    7  A    between atoms: N_21  and  C_22 
REMARK    8  A    between atoms: C_22  and  C_23 
REMARK    9  A    between atoms: C_26  and  C_27 
ROOT
ATOM      1  C   UNL d   1      25.250 -14.974  -2.953  0.00  0.00     0.226 A 
ATOM      2  N   UNL d   1      24.244 -14.333  -3.561  0.00  0.00    -0.132 NA
ATOM      3  N   UNL d   1      24.875 -13.838  -4.658  0.00  0.00    -0.103 N 
ATOM      4  C   UNL d   1      26.195 -14.214  -4.704  0.00  0.00     0.739 A 
ATOM      5  N   UNL d   1      26.440 -14.926  -3.627  0.00  0.00    -0.034 NA
ATOM      6  H   UNL d   1      24.353 -13.263  -5.307  0.00  0.00     0.208 HD
ENDROOT
BRANCH   1   7
ATOM      7  S   UNL d   1      25.189 -15.575  -1.318  0.00  0.00    -0.079 SA
BRANCH   7   8
ATOM      8  C   UNL d   1      25.293 -17.382  -1.440  0.00  0.00     0.185 C 
BRANCH   8   9
ATOM      9  C   UNL d   1      24.888 -18.039  -0.109  0.00  0.00     0.227 C 
ATOM     10  O   UNL d   1      25.681 -18.407   0.766  0.00  0.00    -0.273 OA
ATOM     11  N   UNL d   1      23.559 -18.242   0.139  0.00  0.00    -0.356 N 
ATOM     12  H   UNL d   1      23.369 -18.685   1.034  0.00  0.00     0.162 HD
BRANCH  11  13
ATOM     13  C   UNL d   1      22.439 -17.906  -0.713  0.00  0.00     0.161 C 
BRANCH  13  14
ATOM     14  C   UNL d   1      21.217 -18.683  -0.299  0.00  0.00    -0.041 A 
ATOM     15  C   UNL d   1      21.062 -19.094   1.033  0.00  0.00     0.009 A 
ATOM     16  C   UNL d   1      20.053 -19.993   1.378  0.00  0.00     0.017 A 
ATOM     17  C   UNL d   1      19.118 -20.416   0.423  0.00  0.00     0.047 A 
ATOM     18  C   UNL d   1      19.245 -19.967  -0.898  0.00  0.00     0.017 A 
ATOM     19  C   UNL d   1      20.287 -19.109  -1.257  0.00  0.00     0.009 A 
BRANCH  17  20
ATOM     20  C   UNL d   1      17.969 -21.297   0.842  0.00  0.00     0.417 C 
ATOM     21  F   UNL d   1      17.036 -21.456  -0.137  0.00  0.00    -0.166 F 
ATOM     22  F   UNL d   1      18.387 -22.552   1.169  0.00  0.00    -0.166 F 
ATOM     23  F   UNL d   1      17.297 -20.834   1.933  0.00  0.00    -0.166 F 
ENDBRANCH  17  20
ENDBRANCH  13  14
ENDBRANCH  11  13
ENDBRANCH   8   9
ENDBRANCH   7   8
ENDBRANCH   1   7
BRANCH   4  24
ATOM     24  N   UNL d   1      27.046 -13.873  -5.716  0.00  0.00    -0.106 N 
ATOM     25  H   UNL d   1      27.070 -12.925  -6.089  0.00  0.00     0.208 HD
BRANCH  24  26
ATOM     26  N   UNL d   1      27.907 -14.814  -6.231  0.00  0.00    -0.172 NA
ATOM     27  C   UNL d   1      29.115 -14.861  -5.765  0.00  0.00     0.152 C 
BRANCH  27  28
ATOM     28  C   UNL d   1      30.087 -15.882  -6.241  0.00  0.00     0.005 A 
ATOM     29  C   UNL d   1      30.006 -17.200  -5.766  0.00  0.00     0.016 A 
ATOM     30  C   UNL d   1      30.890 -18.179  -6.242  0.00  0.00     0.025 A 
ATOM     31  C   UNL d   1      31.869 -17.840  -7.173  0.00  0.00     0.035 A 
ATOM     32 CL   UNL d   1      32.951 -19.044  -7.760  0.00  0.00    -0.084 Cl
ATOM     33  C   UNL d   1      31.973 -16.530  -7.637  0.00  0.00     0.048 A 
ATOM     34  C   UNL d   1      31.080 -15.554  -7.177  0.00  0.00     0.047 A 
ATOM     35 CL   UNL d   1      31.281 -13.945  -7.775  0.00  0.00    -0.083 Cl
ENDBRANCH  27  28
ENDBRANCH  24  26
ENDBRANCH   4  24
TORSDOF 9
ENDMDL
MODEL 2
REMARK VINA RESULT:    -9.202      5.952      7.884
REMARK INTER + INTRA:         -12.519
REMARK INTER:                 -11.886
REMARK INTRA:                  -0.633
REMARK CONF_INDEPENDENT:        2.685
REMARK UNBOUND:                -0.633
REMARK  9 active torsions:
REMARK  status: ('A' for Active; 'I' for Inactive)
REMARK    1  A    between atoms: C_2  and  C_3 
REMARK       I    between atoms: C_2  and  N_21 
REMARK    2  A    between atoms: C_3  and  S_4 
REMARK    3  A    between atoms: S_4  and  C_5 
REMARK    4  A    between atoms: C_8  and  N_9 
REMARK    5  A    between atoms: N_9  and  N_10 
REMARK    6  A    between atoms: C_11  and  C_12 
REMARK    7  A    between atoms: N_21  and  C_22 
REMARK    8  A    between atoms: C_22  and  C_23 
REMARK    9  A    between atoms: C_26  and  C_27 
ROOT
ATOM      1  C   UNL d   1      27.482 -15.441  -0.662  0.00  0.00     0.226 A 
ATOM      2  N   UNL d   1      27.846 -16.240   0.349  0.00  0.00    -0.132 NA
ATOM      3  N   UNL d   1      28.691 -15.427   1.034  0.00  0.00    -0.103 N 
ATOM      4  C   UNL d   1      28.782 -14.182   0.461  0.00  0.00     0.739 A 
ATOM      5  N   UNL d   1      28.026 -14.187  -0.615  0.00  0.00    -0.034 NA
ATOM      6  H   UNL d   1      29.159 -15.785   1.857  0.00  0.00     0.208 HD
ENDROOT
BRANCH   1   7
ATOM      7  S   UNL d   1      26.638 -15.980  -2.089  0.00  0.00    -0.079 SA
BRANCH   7   8
ATOM      8  C   UNL d   1      24.932 -16.315  -1.571  0.00  0.00     0.185 C 
BRANCH   8   9
ATOM      9  C   UNL d   1      24.892 -17.475  -0.561  0.00  0.00     0.227 C 
ATOM     10  O   UNL d   1      25.887 -17.998  -0.046  0.00  0.00    -0.273 OA
ATOM     11  N   UNL d   1      23.673 -17.981  -0.199  0.00  0.00    -0.356 N 
ATOM     12  H   UNL d   1      23.727 -18.749   0.464  0.00  0.00     0.162 HD
BRANCH  11  13
ATOM     13  C   UNL d   1      22.368 -17.552  -0.652  0.00  0.00     0.161 C 
BRANCH  13  14
ATOM     14  C   UNL d   1      21.327 -18.578  -0.289  0.00  0.00    -0.041 A 
ATOM     15  C   UNL d   1      20.442 -19.060  -1.263  0.00  0.00     0.009 A 
ATOM     16  C   UNL d   1      19.344 -19.837  -0.894  0.00  0.00     0.017 A 
ATOM     17  C   UNL d   1      19.169 -20.235   0.439  0.00  0.00     0.047 A 
ATOM     18  C   UNL d   1      20.082 -19.793   1.406  0.00  0.00     0.017 A 
ATOM     19  C   UNL d   1      21.150 -18.969   1.046  0.00  0.00     0.009 A 
BRANCH  17  20
ATOM     20  C   UNL d   1      18.042 -21.169   0.798  0.00  0.00     0.417 C 
ATOM     21  F   UNL d   1      18.453 -22.453   0.983  0.00  0.00    -0.166 F 
ATOM     22  F   UNL d   1      17.429 -20.801   1.957  0.00  0.00    -0.166 F 
ATOM     23  F   UNL d   1      17.056 -21.220  -0.142  0.00  0.00    -0.166 F 
ENDBRANCH  17  20
ENDBRANCH  13  14
ENDBRANCH  11  13
ENDBRANCH   8   9
ENDBRANCH   7   8
ENDBRANCH   1   7
BRANCH   4  24
ATOM     24  N   UNL d   1      29.543 -13.167   0.967  0.00  0.00    -0.106 N 
ATOM     25  H   UNL d   1      30.141 -12.604   0.365  0.00  0.00     0.208 HD
BRANCH  24  26
ATOM     26  N   UNL d   1      29.489 -12.880   2.312  0.00  0.00    -0.172 NA
ATOM     27  C   UNL d   1      28.713 -13.596   3.062  0.00  0.00     0.152 C 
BRANCH  27  28
ATOM     28  C   UNL d   1      28.638 -13.374   4.531  0.00  0.00     0.005 A 
ATOM     29  C   UNL d   1      29.004 -14.401   5.414  0.00  0.00     0.016 A 
ATOM     30  C   UNL d   1      28.979 -14.185   6.800  0.00  0.00     0.025 A 
ATOM     31  C   UNL d   1      28.566 -12.954   7.305  0.00  0.00     0.035 A 
ATOM     32 CL   UNL d   1      28.540 -12.689   9.006  0.00  0.00    -0.084 Cl
ATOM     33  C   UNL d   1      28.180 -11.933   6.440  0.00  0.00     0.048 A 
ATOM     34  C   UNL d   1      28.222 -12.140   5.054  0.00  0.00     0.047 A 
ATOM     35 CL   UNL d   1      27.706 -10.839   4.039  0.00  0.00    -0.083 Cl
ENDBRANCH  27  28
ENDBRANCH  24  26
ENDBRANCH   4  24
TORSDOF 9
ENDMDL
MODEL 3
REMARK VINA RESULT:    -8.991      6.752     11.249
REMARK INTER + INTRA:         -12.563
REMARK INTER:                 -11.675
REMARK INTRA:                  -0.888
REMARK CONF_INDEPENDENT:        2.685
REMARK UNBOUND:                -0.888
REMARK  9 active torsions:
REMARK  status: ('A' for Active; 'I' for Inactive)
REMARK    1  A    between atoms: C_2  and  C_3 
REMARK       I    between atoms: C_2  and  N_21 
REMARK    2  A    between atoms: C_3  and  S_4 
REMARK    3  A    between atoms: S_4  and  C_5 
REMARK    4  A    between atoms: C_8  and  N_9 
REMARK    5  A    between atoms: N_9  and  N_10 
REMARK    6  A    between atoms: C_11  and  C_12 
REMARK    7  A    between atoms: N_21  and  C_22 
REMARK    8  A    between atoms: C_22  and  C_23 
REMARK    9  A    between atoms: C_26  and  C_27 
ROOT
ATOM      1  C   UNL d   1      30.286 -17.224  -2.475  0.00  0.00     0.226 A 
ATOM      2  N   UNL d   1      30.982 -18.099  -1.738  0.00  0.00    -0.132 NA
ATOM      3  N   UNL d   1      30.405 -17.933  -0.520  0.00  0.00    -0.103 N 
ATOM      4  C   UNL d   1      29.380 -17.019  -0.558  0.00  0.00     0.739 A 
ATOM      5  N   UNL d   1      29.305 -16.563  -1.789  0.00  0.00    -0.034 NA
ATOM      6  H   UNL d   1      30.759 -18.460   0.268  0.00  0.00     0.208 HD
ENDROOT
BRANCH   1   7
ATOM      7  S   UNL d   1      30.734 -16.713  -4.081  0.00  0.00    -0.079 SA
BRANCH   7   8
ATOM      8  C   UNL d   1      29.818 -15.179  -4.396  0.00  0.00     0.185 C 
BRANCH   8   9
ATOM      9  C   UNL d   1      28.996 -15.296  -5.691  0.00  0.00     0.227 C 
ATOM     10  O   UNL d   1      27.766 -15.195  -5.758  0.00  0.00    -0.273 OA
ATOM     11  N   UNL d   1      29.660 -15.533  -6.864  0.00  0.00    -0.356 N 
ATOM     12  H   UNL d   1      29.051 -15.605  -7.674  0.00  0.00     0.162 HD
BRANCH  11  13
ATOM     13  C   UNL d   1      31.085 -15.691  -7.056  0.00  0.00     0.161 C 
BRANCH  13  14
ATOM     14  C   UNL d   1      31.397 -17.094  -7.507  0.00  0.00    -0.041 A 
ATOM     15  C   UNL d   1      30.775 -18.188  -6.888  0.00  0.00     0.009 A 
ATOM     16  C   UNL d   1      31.216 -19.486  -7.144  0.00  0.00     0.017 A 
ATOM     17  C   UNL d   1      32.215 -19.724  -8.100  0.00  0.00     0.047 A 
ATOM     18  C   UNL d   1      32.804 -18.633  -8.753  0.00  0.00     0.017 A 
ATOM     19  C   UNL d   1      32.401 -17.329  -8.457  0.00  0.00     0.009 A 
BRANCH  17  20
ATOM     20  C   UNL d   1      32.596 -21.141  -8.445  0.00  0.00     0.417 C 
ATOM     21  F   UNL d   1      33.839 -21.479  -8.006  0.00  0.00    -0.166 F 
ATOM     22  F   UNL d   1      31.742 -22.044  -7.887  0.00  0.00    -0.166 F 
ATOM     23  F   UNL d   1      32.585 -21.398  -9.783  0.00  0.00    -0.166 F 
ENDBRANCH  17  20
ENDBRANCH  13  14
ENDBRANCH  11  13
ENDBRANCH   8   9
ENDBRANCH   7   8
ENDBRANCH   1   7
BRANCH   4  24
ATOM     24  N   UNL d   1      28.618 -16.688   0.526  0.00  0.00    -0.106 N 
ATOM     25  H   UNL d   1      29.020 -16.200   1.324  0.00  0.00     0.208 HD
BRANCH  24  26
ATOM     26  N   UNL d   1      27.277 -16.995   0.536  0.00  0.00    -0.172 NA
ATOM     27  C   UNL d   1      26.683 -17.188  -0.599  0.00  0.00     0.152 C 
BRANCH  27  28
ATOM     28  C   UNL d   1      25.245 -17.568  -0.664  0.00  0.00     0.005 A 
ATOM     29  C   UNL d   1      24.821 -18.794  -0.130  0.00  0.00     0.016 A 
ATOM     30  C   UNL d   1      23.462 -19.141  -0.146  0.00  0.00     0.025 A 
ATOM     31  C   UNL d   1      22.530 -18.276  -0.717  0.00  0.00     0.035 A 
ATOM     32 CL   UNL d   1      20.862 -18.701  -0.733  0.00  0.00    -0.084 Cl
ATOM     33  C   UNL d   1      22.942 -17.066  -1.269  0.00  0.00     0.048 A 
ATOM     34  C   UNL d   1      24.296 -16.708  -1.237  0.00  0.00     0.047 A 
ATOM     35 CL   UNL d   1      24.740 -15.203  -1.962  0.00  0.00    -0.083 Cl
ENDBRANCH  27  28
ENDBRANCH  24  26
ENDBRANCH   4  24
TORSDOF 9
ENDMDL
MODEL 4
REMARK VINA RESULT:    -8.970      4.557      6.519
REMARK INTER + INTRA:         -12.481
REMARK INTER:                 -11.655
REMARK INTRA:                  -0.826
REMARK CONF_INDEPENDENT:        2.685
REMARK UNBOUND:                -0.826
REMARK  9 active torsions:
REMARK  status: ('A' for Active; 'I' for Inactive)
REMARK    1  A    between atoms: C_2  and  C_3 
REMARK       I    between atoms: C_2  and  N_21 
REMARK    2  A    between atoms: C_3  and  S_4 
REMARK    3  A    between atoms: S_4  and  C_5 
REMARK    4  A    between atoms: C_8  and  N_9 
REMARK    5  A    between atoms: N_9  and  N_10 
REMARK    6  A    between atoms: C_11  and  C_12 
REMARK    7  A    between atoms: N_21  and  C_22 
REMARK    8  A    between atoms: C_22  and  C_23 
REMARK    9  A    between atoms: C_26  and  C_27 
ROOT
ATOM      1  C   UNL d   1      25.466 -14.774  -3.417  0.00  0.00     0.226 A 
ATOM      2  N   UNL d   1      24.595 -14.209  -4.263  0.00  0.00    -0.132 NA
ATOM      3  N   UNL d   1      25.055 -12.932  -4.299  0.00  0.00    -0.103 N 
ATOM      4  C   UNL d   1      26.182 -12.771  -3.530  0.00  0.00     0.739 A 
ATOM      5  N   UNL d   1      26.442 -13.929  -2.965  0.00  0.00    -0.034 NA
ATOM      6  H   UNL d   1      24.557 -12.246  -4.852  0.00  0.00     0.208 HD
ENDROOT
BRANCH   1   7
ATOM      7  S   UNL d   1      25.257 -16.345  -2.691  0.00  0.00    -0.079 SA
BRANCH   7   8
ATOM      8  C   UNL d   1      25.273 -16.077  -0.896  0.00  0.00     0.185 C 
BRANCH   8   9
ATOM      9  C   UNL d   1      25.182 -17.419  -0.149  0.00  0.00     0.227 C 
ATOM     10  O   UNL d   1      26.131 -17.984   0.406  0.00  0.00    -0.273 OA
ATOM     11  N   UNL d   1      23.969 -18.049  -0.088  0.00  0.00    -0.356 N 
ATOM     12  H   UNL d   1      23.988 -18.931   0.416  0.00  0.00     0.162 HD
BRANCH  11  13
ATOM     13  C   UNL d   1      22.713 -17.604  -0.650  0.00  0.00     0.161 C 
BRANCH  13  14
ATOM     14  C   UNL d   1      21.611 -18.567  -0.291  0.00  0.00    -0.041 A 
ATOM     15  C   UNL d   1      20.701 -18.992  -1.269  0.00  0.00     0.009 A 
ATOM     16  C   UNL d   1      19.558 -19.703  -0.904  0.00  0.00     0.017 A 
ATOM     17  C   UNL d   1      19.356 -20.093   0.428  0.00  0.00     0.047 A 
ATOM     18  C   UNL d   1      20.291 -19.708   1.398  0.00  0.00     0.017 A 
ATOM     19  C   UNL d   1      21.408 -18.949   1.042  0.00  0.00     0.009 A 
BRANCH  17  20
ATOM     20  C   UNL d   1      18.174 -20.959   0.781  0.00  0.00     0.417 C 
ATOM     21  F   UNL d   1      17.525 -20.541   1.902  0.00  0.00    -0.166 F 
ATOM     22  F   UNL d   1      17.240 -20.969  -0.211  0.00  0.00    -0.166 F 
ATOM     23  F   UNL d   1      18.499 -22.264   0.997  0.00  0.00    -0.166 F 
ENDBRANCH  17  20
ENDBRANCH  13  14
ENDBRANCH  11  13
ENDBRANCH   8   9
ENDBRANCH   7   8
ENDBRANCH   1   7
BRANCH   4  24
ATOM     24  N   UNL d   1      26.859 -11.591  -3.415  0.00  0.00    -0.106 N 
ATOM     25  H   UNL d   1      27.673 -11.506  -2.808  0.00  0.00     0.208 HD
BRANCH  24  26
ATOM     26  N   UNL d   1      26.456 -10.499  -4.148  0.00  0.00    -0.172 NA
ATOM     27  C   UNL d   1      25.487  -9.773  -3.685  0.00  0.00     0.152 C 
BRANCH  27  28
ATOM     28  C   UNL d   1      25.028  -8.551  -4.398  0.00  0.00     0.005 A 
ATOM     29  C   UNL d   1      24.428  -8.662  -5.662  0.00  0.00     0.016 A 
ATOM     30  C   UNL d   1      23.952  -7.521  -6.322  0.00  0.00     0.025 A 
ATOM     31  C   UNL d   1      24.094  -6.266  -5.733  0.00  0.00     0.035 A 
ATOM     32 CL   UNL d   1      23.505  -4.865  -6.543  0.00  0.00    -0.084 Cl
ATOM     33  C   UNL d   1      24.706  -6.140  -4.488  0.00  0.00     0.048 A 
ATOM     34  C   UNL d   1      25.166  -7.281  -3.818  0.00  0.00     0.047 A 
ATOM     35 CL   UNL d   1      25.937  -7.050  -2.288  0.00  0.00    -0.083 Cl
ENDBRANCH  27  28
ENDBRANCH  24  26
ENDBRANCH   4  24
TORSDOF 9
ENDMDL
MODEL 5
REMARK VINA RESULT:    -8.819      8.969     11.093
REMARK INTER + INTRA:         -12.451
REMARK INTER:                 -11.503
REMARK INTRA:                  -0.948
REMARK CONF_INDEPENDENT:        2.685
REMARK UNBOUND:                -0.948
REMARK  9 active torsions:
REMARK  status: ('A' for Active; 'I' for Inactive)
REMARK    1  A    between atoms: C_2  and  C_3 
REMARK       I    between atoms: C_2  and  N_21 
REMARK    2  A    between atoms: C_3  and  S_4 
REMARK    3  A    between atoms: S_4  and  C_5 
REMARK    4  A    between atoms: C_8  and  N_9 
REMARK    5  A    between atoms: N_9  and  N_10 
REMARK    6  A    between atoms: C_11  and  C_12 
REMARK    7  A    between atoms: N_21  and  C_22 
REMARK    8  A    between atoms: C_22  and  C_23 
REMARK    9  A    between atoms: C_26  and  C_27 
ROOT
ATOM      1  C   UNL d   1      29.877 -12.457   2.322  0.00  0.00     0.226 A 
ATOM      2  N   UNL d   1      30.272 -13.243   3.331  0.00  0.00    -0.132 NA
ATOM      3  N   UNL d   1      29.968 -14.473   2.840  0.00  0.00    -0.103 N 
ATOM      4  C   UNL d   1      29.451 -14.403   1.569  0.00  0.00     0.739 A 
ATOM      5  N   UNL d   1      29.385 -13.133   1.239  0.00  0.00    -0.034 NA
ATOM      6  H   UNL d   1      30.133 -15.287   3.417  0.00  0.00     0.208 HD
ENDROOT
BRANCH   1   7
ATOM      7  S   UNL d   1      29.703 -10.726   2.432  0.00  0.00    -0.079 SA
BRANCH   7   8
ATOM      8  C   UNL d   1      27.924 -10.390   2.325  0.00  0.00     0.185 C 
BRANCH   8   9
ATOM      9  C   UNL d   1      27.396  -9.843   3.664  0.00  0.00     0.227 C 
ATOM     10  O   UNL d   1      26.995  -8.688   3.845  0.00  0.00    -0.273 OA
ATOM     11  N   UNL d   1      27.366 -10.683   4.743  0.00  0.00    -0.356 N 
ATOM     12  H   UNL d   1      27.012 -10.251   5.591  0.00  0.00     0.162 HD
BRANCH  11  13
ATOM     13  C   UNL d   1      27.775 -12.070   4.796  0.00  0.00     0.161 C 
BRANCH  13  14
ATOM     14  C   UNL d   1      28.301 -12.405   6.167  0.00  0.00    -0.041 A 
ATOM     15  C   UNL d   1      28.782 -13.693   6.442  0.00  0.00     0.009 A 
ATOM     16  C   UNL d   1      29.062 -14.074   7.754  0.00  0.00     0.017 A 
ATOM     17  C   UNL d   1      28.969 -13.147   8.801  0.00  0.00     0.047 A 
ATOM     18  C   UNL d   1      28.533 -11.845   8.519  0.00  0.00     0.017 A 
ATOM     19  C   UNL d   1      28.200 -11.478   7.214  0.00  0.00     0.009 A 
BRANCH  17  20
ATOM     20  C   UNL d   1      29.387 -13.547  10.193  0.00  0.00     0.417 C 
ATOM     21  F   UNL d   1      28.367 -14.075  10.923  0.00  0.00    -0.166 F 
ATOM     22  F   UNL d   1      30.366 -14.494  10.174  0.00  0.00    -0.166 F 
ATOM     23  F   UNL d   1      29.884 -12.515  10.930  0.00  0.00    -0.166 F 
ENDBRANCH  17  20
ENDBRANCH  13  14
ENDBRANCH  11  13
ENDBRANCH   8   9
ENDBRANCH   7   8
ENDBRANCH   1   7
BRANCH   4  24
ATOM     24  N   UNL d   1      29.088 -15.498   0.837  0.00  0.00    -0.106 N 
ATOM     25  H   UNL d   1      29.782 -16.168   0.509  0.00  0.00     0.208 HD
BRANCH  24  26
ATOM     26  N   UNL d   1      27.760 -15.719   0.554  0.00  0.00    -0.172 NA
ATOM     27  C   UNL d   1      27.410 -16.894   0.133  0.00  0.00     0.152 C 
BRANCH  27  28
ATOM     28  C   UNL d   1      25.986 -17.221  -0.149  0.00  0.00     0.005 A 
ATOM     29  C   UNL d   1      25.368 -18.288   0.520  0.00  0.00     0.016 A 
ATOM     30  C   UNL d   1      24.014 -18.575   0.293  0.00  0.00     0.025 A 
ATOM     31  C   UNL d   1      23.283 -17.814  -0.617  0.00  0.00     0.035 A 
ATOM     32 CL   UNL d   1      21.620 -18.165  -0.891  0.00  0.00    -0.084 Cl
ATOM     33  C   UNL d   1      23.892 -16.765  -1.303  0.00  0.00     0.048 A 
ATOM     34  C   UNL d   1      25.239 -16.464  -1.065  0.00  0.00     0.047 A 
ATOM     35 CL   UNL d   1      25.936 -15.165  -1.967  0.00  0.00    -0.083 Cl
ENDBRANCH  27  28
ENDBRANCH  24  26
ENDBRANCH   4  24
TORSDOF 9
ENDMDL
MODEL 6
REMARK VINA RESULT:    -8.626      8.341     10.799
REMARK INTER + INTRA:         -12.616
REMARK INTER:                 -11.311
REMARK INTRA:                  -1.305
REMARK CONF_INDEPENDENT:        2.685
REMARK UNBOUND:                -1.305
REMARK  9 active torsions:
REMARK  status: ('A' for Active; 'I' for Inactive)
REMARK    1  A    between atoms: C_2  and  C_3 
REMARK       I    between atoms: C_2  and  N_21 
REMARK    2  A    between atoms: C_3  and  S_4 
REMARK    3  A    between atoms: S_4  and  C_5 
REMARK    4  A    between atoms: C_8  and  N_9 
REMARK    5  A    between atoms: N_9  and  N_10 
REMARK    6  A    between atoms: C_11  and  C_12 
REMARK    7  A    between atoms: N_21  and  C_22 
REMARK    8  A    between atoms: C_22  and  C_23 
REMARK    9  A    between atoms: C_26  and  C_27 
ROOT
ATOM      1  C   UNL d   1      30.645 -13.438   1.873  0.00  0.00     0.226 A 
ATOM      2  N   UNL d   1      31.361 -12.679   2.713  0.00  0.00    -0.132 NA
ATOM      3  N   UNL d   1      31.159 -13.328   3.889  0.00  0.00    -0.103 N 
ATOM      4  C   UNL d   1      30.383 -14.450   3.729  0.00  0.00     0.739 A 
ATOM      5  N   UNL d   1      30.050 -14.521   2.459  0.00  0.00    -0.034 NA
ATOM      6  H   UNL d   1      31.567 -12.951   4.735  0.00  0.00     0.208 HD
ENDROOT
BRANCH   1   7
ATOM      7  S   UNL d   1      30.228 -12.978   0.244  0.00  0.00    -0.079 SA
BRANCH   7   8
ATOM      8  C   UNL d   1      28.478 -12.502   0.287  0.00  0.00     0.185 C 
BRANCH   8   9
ATOM      9  C   UNL d   1      27.746 -13.233   1.425  0.00  0.00     0.227 C 
ATOM     10  O   UNL d   1      27.413 -12.716   2.498  0.00  0.00    -0.273 OA
ATOM     11  N   UNL d   1      27.437 -14.555   1.257  0.00  0.00    -0.356 N 
ATOM     12  H   UNL d   1      26.962 -14.972   2.053  0.00  0.00     0.162 HD
BRANCH  11  13
ATOM     13  C   UNL d   1      27.714 -15.388   0.107  0.00  0.00     0.161 C 
BRANCH  13  14
ATOM     14  C   UNL d   1      26.507 -16.222  -0.235  0.00  0.00    -0.041 A 
ATOM     15  C   UNL d   1      25.476 -15.682  -1.018  0.00  0.00     0.009 A 
ATOM     16  C   UNL d   1      24.267 -16.363  -1.155  0.00  0.00     0.017 A 
ATOM     17  C   UNL d   1      24.101 -17.640  -0.601  0.00  0.00     0.047 A 
ATOM     18  C   UNL d   1      25.150 -18.200   0.142  0.00  0.00     0.017 A 
ATOM     19  C   UNL d   1      26.341 -17.496   0.326  0.00  0.00     0.009 A 
BRANCH  17  20
ATOM     20  C   UNL d   1      22.829 -18.407  -0.857  0.00  0.00     0.417 C 
ATOM     21  F   UNL d   1      21.742 -17.600  -1.002  0.00  0.00    -0.166 F 
ATOM     22  F   UNL d   1      22.904 -19.143  -2.001  0.00  0.00    -0.166 F 
ATOM     23  F   UNL d   1      22.515 -19.290   0.132  0.00  0.00    -0.166 F 
ENDBRANCH  17  20
ENDBRANCH  13  14
ENDBRANCH  11  13
ENDBRANCH   8   9
ENDBRANCH   7   8
ENDBRANCH   1   7
BRANCH   4  24
ATOM     24  N   UNL d   1      30.052 -15.296   4.749  0.00  0.00    -0.106 N 
ATOM     25  H   UNL d   1      29.844 -16.277   4.575  0.00  0.00     0.208 HD
BRANCH  24  26
ATOM     26  N   UNL d   1      30.021 -14.825   6.041  0.00  0.00    -0.172 NA
ATOM     27  C   UNL d   1      28.963 -14.190   6.438  0.00  0.00     0.152 C 
BRANCH  27  28
ATOM     28  C   UNL d   1      28.838 -13.693   7.835  0.00  0.00     0.005 A 
ATOM     29  C   UNL d   1      28.905 -14.596   8.907  0.00  0.00     0.016 A 
ATOM     30  C   UNL d   1      28.833 -14.131  10.228  0.00  0.00     0.025 A 
ATOM     31  C   UNL d   1      28.671 -12.770  10.480  0.00  0.00     0.035 A 
ATOM     32 CL   UNL d   1      28.588 -12.200  12.102  0.00  0.00    -0.084 Cl
ATOM     33  C   UNL d   1      28.583 -11.866   9.423  0.00  0.00     0.048 A 
ATOM     34  C   UNL d   1      28.673 -12.326   8.103  0.00  0.00     0.047 A 
ATOM     35 CL   UNL d   1      28.532 -11.153   6.840  0.00  0.00    -0.083 Cl
ENDBRANCH  27  28
ENDBRANCH  24  26
ENDBRANCH   4  24
TORSDOF 9
ENDMDL
MODEL 7
REMARK VINA RESULT:    -8.481      5.982      9.852
REMARK INTER + INTRA:         -12.613
REMARK INTER:                 -11.166
REMARK INTRA:                  -1.447
REMARK CONF_INDEPENDENT:        2.685
REMARK UNBOUND:                -1.447
REMARK  9 active torsions:
REMARK  status: ('A' for Active; 'I' for Inactive)
REMARK    1  A    between atoms: C_2  and  C_3 
REMARK       I    between atoms: C_2  and  N_21 
REMARK    2  A    between atoms: C_3  and  S_4 
REMARK    3  A    between atoms: S_4  and  C_5 
REMARK    4  A    between atoms: C_8  and  N_9 
REMARK    5  A    between atoms: N_9  and  N_10 
REMARK    6  A    between atoms: C_11  and  C_12 
REMARK    7  A    between atoms: N_21  and  C_22 
REMARK    8  A    between atoms: C_22  and  C_23 
REMARK    9  A    between atoms: C_26  and  C_27 
ROOT
ATOM      1  C   UNL d   1      31.037 -17.263  -2.170  0.00  0.00     0.226 A 
ATOM      2  N   UNL d   1      31.425 -18.262  -1.368  0.00  0.00    -0.132 NA
ATOM      3  N   UNL d   1      30.746 -17.962  -0.230  0.00  0.00    -0.103 N 
ATOM      4  C   UNL d   1      29.958 -16.846  -0.382  0.00  0.00     0.739 A 
ATOM      5  N   UNL d   1      30.143 -16.397  -1.603  0.00  0.00    -0.034 NA
ATOM      6  H   UNL d   1      30.874 -18.545   0.587  0.00  0.00     0.208 HD
ENDROOT
BRANCH   1   7
ATOM      7  S   UNL d   1      31.788 -16.878  -3.697  0.00  0.00    -0.079 SA
BRANCH   7   8
ATOM      8  C   UNL d   1      32.214 -18.466  -4.464  0.00  0.00     0.185 C 
BRANCH   8   9
ATOM      9  C   UNL d   1      31.022 -19.017  -5.265  0.00  0.00     0.227 C 
ATOM     10  O   UNL d   1      30.553 -20.154  -5.141  0.00  0.00    -0.273 OA
ATOM     11  N   UNL d   1      30.428 -18.203  -6.190  0.00  0.00    -0.356 N 
ATOM     12  H   UNL d   1      29.653 -18.637  -6.684  0.00  0.00     0.162 HD
BRANCH  11  13
ATOM     13  C   UNL d   1      30.781 -16.841  -6.526  0.00  0.00     0.161 C 
BRANCH  13  14
ATOM     14  C   UNL d   1      29.668 -15.903  -6.140  0.00  0.00    -0.041 A 
ATOM     15  C   UNL d   1      29.409 -14.761  -6.910  0.00  0.00     0.009 A 
ATOM     16  C   UNL d   1      28.534 -13.781  -6.443  0.00  0.00     0.017 A 
ATOM     17  C   UNL d   1      27.822 -13.971  -5.251  0.00  0.00     0.047 A 
ATOM     18  C   UNL d   1      28.045 -15.136  -4.504  0.00  0.00     0.017 A 
ATOM     19  C   UNL d   1      28.962 -16.093  -4.944  0.00  0.00     0.009 A 
BRANCH  17  20
ATOM     20  C   UNL d   1      26.796 -12.953  -4.822  0.00  0.00     0.417 C 
ATOM     21  F   UNL d   1      25.517 -13.393  -4.967  0.00  0.00    -0.166 F 
ATOM     22  F   UNL d   1      26.932 -12.621  -3.508  0.00  0.00    -0.166 F 
ATOM     23  F   UNL d   1      26.873 -11.779  -5.510  0.00  0.00    -0.166 F 
ENDBRANCH  17  20
ENDBRANCH  13  14
ENDBRANCH  11  13
ENDBRANCH   8   9
ENDBRANCH   7   8
ENDBRANCH   1   7
BRANCH   4  24
ATOM     24  N   UNL d   1      29.154 -16.346   0.602  0.00  0.00    -0.106 N 
ATOM     25  H   UNL d   1      29.542 -15.836   1.393  0.00  0.00     0.208 HD
BRANCH  24  26
ATOM     26  N   UNL d   1      27.791 -16.510   0.518  0.00  0.00    -0.172 NA
ATOM     27  C   UNL d   1      27.314 -17.177  -0.486  0.00  0.00     0.152 C 
BRANCH  27  28
ATOM     28  C   UNL d   1      25.854 -17.434  -0.619  0.00  0.00     0.005 A 
ATOM     29  C   UNL d   1      25.290 -18.579  -0.036  0.00  0.00     0.016 A 
ATOM     30  C   UNL d   1      23.908 -18.807  -0.118  0.00  0.00     0.025 A 
ATOM     31  C   UNL d   1      23.094 -17.906  -0.801  0.00  0.00     0.035 A 
ATOM     32 CL   UNL d   1      21.397 -18.184  -0.897  0.00  0.00    -0.084 Cl
ATOM     33  C   UNL d   1      23.645 -16.776  -1.402  0.00  0.00     0.048 A 
ATOM     34  C   UNL d   1      25.022 -16.537  -1.306  0.00  0.00     0.047 A 
ATOM     35 CL   UNL d   1      25.642 -15.129  -2.094  0.00  0.00    -0.083 Cl
ENDBRANCH  27  28
ENDBRANCH  24  26
ENDBRANCH   4  24
TORSDOF 9
ENDMDL
MODEL 8
REMARK VINA RESULT:    -8.384      7.782     10.160
REMARK INTER + INTRA:         -12.807
REMARK INTER:                 -11.068
REMARK INTRA:                  -1.739
REMARK CONF_INDEPENDENT:        2.685
REMARK UNBOUND:                -1.739
REMARK  9 active torsions:
REMARK  status: ('A' for Active; 'I' for Inactive)
REMARK    1  A    between atoms: C_2  and  C_3 
REMARK       I    between atoms: C_2  and  N_21 
REMARK    2  A    between atoms: C_3  and  S_4 
REMARK    3  A    between atoms: S_4  and  C_5 
REMARK    4  A    between atoms: C_8  and  N_9 
REMARK    5  A    between atoms: N_9  and  N_10 
REMARK    6  A    between atoms: C_11  and  C_12 
REMARK    7  A    between atoms: N_21  and  C_22 
REMARK    8  A    between atoms: C_22  and  C_23 
REMARK    9  A    between atoms: C_26  and  C_27 
ROOT
ATOM      1  C   UNL d   1      29.516 -13.697   0.098  0.00  0.00     0.226 A 
ATOM      2  N   UNL d   1      30.176 -13.887   1.248  0.00  0.00    -0.132 NA
ATOM      3  N   UNL d   1      30.098 -15.237   1.374  0.00  0.00    -0.103 N 
ATOM      4  C   UNL d   1      29.450 -15.815   0.310  0.00  0.00     0.739 A 
ATOM      5  N   UNL d   1      29.074 -14.847  -0.496  0.00  0.00    -0.034 NA
ATOM      6  H   UNL d   1      30.496 -15.678   2.193  0.00  0.00     0.208 HD
ENDROOT
BRANCH   1   7
ATOM      7  S   UNL d   1      28.981 -12.143  -0.485  0.00  0.00    -0.079 SA
BRANCH   7   8
ATOM      8  C   UNL d   1      27.345 -11.865   0.248  0.00  0.00     0.185 C 
BRANCH   8   9
ATOM      9  C   UNL d   1      26.911 -13.085   1.080  0.00  0.00     0.227 C 
ATOM     10  O   UNL d   1      26.246 -14.034   0.647  0.00  0.00    -0.273 OA
ATOM     11  N   UNL d   1      27.276 -13.139   2.397  0.00  0.00    -0.356 N 
ATOM     12  H   UNL d   1      26.948 -13.969   2.881  0.00  0.00     0.162 HD
BRANCH  11  13
ATOM     13  C   UNL d   1      28.047 -12.166   3.141  0.00  0.00     0.161 C 
BRANCH  13  14
ATOM     14  C   UNL d   1      28.314 -12.670   4.535  0.00  0.00    -0.041 A 
ATOM     15  C   UNL d   1      28.264 -11.790   5.625  0.00  0.00     0.009 A 
ATOM     16  C   UNL d   1      28.721 -12.195   6.878  0.00  0.00     0.017 A 
ATOM     17  C   UNL d   1      29.138 -13.516   7.092  0.00  0.00     0.047 A 
ATOM     18  C   UNL d   1      29.143 -14.410   6.013  0.00  0.00     0.017 A 
ATOM     19  C   UNL d   1      28.737 -13.990   4.744  0.00  0.00     0.009 A 
BRANCH  17  20
ATOM     20  C   UNL d   1      29.519 -13.964   8.480  0.00  0.00     0.417 C 
ATOM     21  F   UNL d   1      28.517 -14.626   9.119  0.00  0.00    -0.166 F 
ATOM     22  F   UNL d   1      30.581 -14.818   8.462  0.00  0.00    -0.166 F 
ATOM     23  F   UNL d   1      29.881 -12.941   9.303  0.00  0.00    -0.166 F 
ENDBRANCH  17  20
ENDBRANCH  13  14
ENDBRANCH  11  13
ENDBRANCH   8   9
ENDBRANCH   7   8
ENDBRANCH   1   7
BRANCH   4  24
ATOM     24  N   UNL d   1      29.261 -17.161   0.177  0.00  0.00    -0.106 N 
ATOM     25  H   UNL d   1      30.045 -17.810   0.209  0.00  0.00     0.208 HD
BRANCH  24  26
ATOM     26  N   UNL d   1      27.988 -17.659   0.021  0.00  0.00    -0.172 NA
ATOM     27  C   UNL d   1      27.011 -16.817  -0.108  0.00  0.00     0.152 C 
BRANCH  27  28
ATOM     28  C   UNL d   1      25.615 -17.282  -0.327  0.00  0.00     0.005 A 
ATOM     29  C   UNL d   1      25.021 -18.168   0.585  0.00  0.00     0.016 A 
ATOM     30  C   UNL d   1      23.690 -18.575   0.411  0.00  0.00     0.025 A 
ATOM     31  C   UNL d   1      22.960 -18.119  -0.684  0.00  0.00     0.035 A 
ATOM     32 CL   UNL d   1      21.325 -18.617  -0.895  0.00  0.00    -0.084 Cl
ATOM     33  C   UNL d   1      23.545 -17.256  -1.608  0.00  0.00     0.048 A 
ATOM     34  C   UNL d   1      24.868 -16.832  -1.427  0.00  0.00     0.047 A 
ATOM     35 CL   UNL d   1      25.538 -15.780  -2.624  0.00  0.00    -0.083 Cl
ENDBRANCH  27  28
ENDBRANCH  24  26
ENDBRANCH   4  24
TORSDOF 9
ENDMDL
MODEL 9
REMARK VINA RESULT:    -8.043      6.422      9.959
REMARK INTER + INTRA:         -12.466
REMARK INTER:                 -10.727
REMARK INTRA:                  -1.738
REMARK CONF_INDEPENDENT:        2.685
REMARK UNBOUND:                -1.738
REMARK  9 active torsions:
REMARK  status: ('A' for Active; 'I' for Inactive)
REMARK    1  A    between atoms: C_2  and  C_3 
REMARK       I    between atoms: C_2  and  N_21 
REMARK    2  A    between atoms: C_3  and  S_4 
REMARK    3  A    between atoms: S_4  and  C_5 
REMARK    4  A    between atoms: C_8  and  N_9 
REMARK    5  A    between atoms: N_9  and  N_10 
REMARK    6  A    between atoms: C_11  and  C_12 
REMARK    7  A    between atoms: N_21  and  C_22 
REMARK    8  A    between atoms: C_22  and  C_23 
REMARK    9  A    between atoms: C_26  and  C_27 
ROOT
ATOM      1  C   UNL d   1      29.195 -13.872  -1.140  0.00  0.00     0.226 A 
ATOM      2  N   UNL d   1      30.140 -13.825  -0.193  0.00  0.00    -0.132 NA
ATOM      3  N   UNL d   1      30.046 -15.073   0.334  0.00  0.00    -0.103 N 
ATOM      4  C   UNL d   1      29.103 -15.833  -0.315  0.00  0.00     0.739 A 
ATOM      5  N   UNL d   1      28.558 -15.078  -1.243  0.00  0.00    -0.034 NA
ATOM      6  H   UNL d   1      30.637 -15.323   1.116  0.00  0.00     0.208 HD
ENDROOT
BRANCH   1   7
ATOM      7  S   UNL d   1      28.583 -12.479  -1.992  0.00  0.00    -0.079 SA
BRANCH   7   8
ATOM      8  C   UNL d   1      26.778 -12.653  -2.013  0.00  0.00     0.185 C 
BRANCH   8   9
ATOM      9  C   UNL d   1      26.151 -11.666  -3.012  0.00  0.00     0.227 C 
ATOM     10  O   UNL d   1      26.122 -10.438  -2.868  0.00  0.00    -0.273 OA
ATOM     11  N   UNL d   1      25.575 -12.166  -4.147  0.00  0.00    -0.356 N 
ATOM     12  H   UNL d   1      25.177 -11.456  -4.755  0.00  0.00     0.162 HD
BRANCH  11  13
ATOM     13  C   UNL d   1      25.476 -13.552  -4.551  0.00  0.00     0.161 C 
BRANCH  13  14
ATOM     14  C   UNL d   1      26.838 -14.092  -4.899  0.00  0.00    -0.041 A 
ATOM     15  C   UNL d   1      27.560 -13.547  -5.971  0.00  0.00     0.009 A 
ATOM     16  C   UNL d   1      28.713 -14.178  -6.435  0.00  0.00     0.017 A 
ATOM     17  C   UNL d   1      29.226 -15.303  -5.774  0.00  0.00     0.047 A 
ATOM     18  C   UNL d   1      28.530 -15.820  -4.673  0.00  0.00     0.017 A 
ATOM     19  C   UNL d   1      27.345 -15.221  -4.241  0.00  0.00     0.009 A 
BRANCH  17  20
ATOM     20  C   UNL d   1      30.535 -15.901  -6.221  0.00  0.00     0.417 C 
ATOM     21  F   UNL d   1      31.301 -15.031  -6.934  0.00  0.00    -0.166 F 
ATOM     22  F   UNL d   1      31.300 -16.294  -5.164  0.00  0.00    -0.166 F 
ATOM     23  F   UNL d   1      30.391 -17.006  -7.004  0.00  0.00    -0.166 F 
ENDBRANCH  17  20
ENDBRANCH  13  14
ENDBRANCH  11  13
ENDBRANCH   8   9
ENDBRANCH   7   8
ENDBRANCH   1   7
BRANCH   4  24
ATOM     24  N   UNL d   1      28.829 -17.133   0.000  0.00  0.00    -0.106 N 
ATOM     25  H   UNL d   1      29.535 -17.734   0.422  0.00  0.00     0.208 HD
BRANCH  24  26
ATOM     26  N   UNL d   1      27.572 -17.642  -0.232  0.00  0.00    -0.172 NA
ATOM     27  C   UNL d   1      26.548 -16.908   0.074  0.00  0.00     0.152 C 
BRANCH  27  28
ATOM     28  C   UNL d   1      25.159 -17.372  -0.191  0.00  0.00     0.005 A 
ATOM     29  C   UNL d   1      24.677 -18.531   0.437  0.00  0.00     0.016 A 
ATOM     30  C   UNL d   1      23.355 -18.950   0.228  0.00  0.00     0.025 A 
ATOM     31  C   UNL d   1      22.522 -18.228  -0.625  0.00  0.00     0.035 A 
ATOM     32 CL   UNL d   1      20.898 -18.742  -0.877  0.00  0.00    -0.084 Cl
ATOM     33  C   UNL d   1      22.996 -17.088  -1.270  0.00  0.00     0.048 A 
ATOM     34  C   UNL d   1      24.310 -16.657  -1.049  0.00  0.00     0.047 A 
ATOM     35 CL   UNL d   1      24.839 -15.248  -1.900  0.00  0.00    -0.083 Cl
ENDBRANCH  27  28
ENDBRANCH  24  26
ENDBRANCH   4  24
TORSDOF 9
ENDMDL
