MODEL 1
REMARK VINA RESULT:   -10.446      0.000      0.000
REMARK INTER + INTRA:         -15.619
REMARK INTER:                 -13.728
REMARK INTRA:                  -1.892
REMARK CONF_INDEPENDENT:        3.281
REMARK UNBOUND:                -1.892
REMARK  11 active torsions:
REMARK  status: ('A' for Active; 'I' for Inactive)
REMARK    1  A    between atoms: C_2  and  C_5 
REMARK    2  A    between atoms: C_8  and  O_9 
REMARK    3  A    between atoms: O_9  and  C_10 
REMARK    4  A    between atoms: C_10  and  C_11 
REMARK       I    between atoms: C_11  and  N_13 
REMARK    5  A    between atoms: N_13  and  C_14 
REMARK    6  A    between atoms: C_14  and  N_16 
REMARK    7  A    between atoms: N_16  and  N_17 
REMARK       I    between atoms: N_17  and  C_18 
REMARK    8  A    between atoms: C_18  and  C_20 
REMARK    9  A    between atoms: C_20  and  C_21 
REMARK   10  A    between atoms: C_21  and  C_22 
REMARK       I    between atoms: C_22  and  N_24 
REMARK   11  A    between atoms: N_24  and  C_25 
ROOT
ATOM      1  C   UNL d   1      28.529 -16.456  -0.168  0.00  0.00     0.193 C 
ATOM      2  S   UNL d   1      29.148 -15.910  -1.642  0.00  0.00    -0.039 SA
ENDROOT
BRANCH   1   3
ATOM      3  N   UNL d   1      28.346 -15.651   0.991  0.00  0.00    -0.301 N 
ATOM      4  C   UNL d   1      27.504 -14.512   1.085  0.00  0.00     0.248 C 
ATOM      5  O   UNL d   1      26.843 -14.092   0.132  0.00  0.00    -0.271 OA
ATOM      6  H   UNL d   1      28.858 -15.912   1.823  0.00  0.00     0.171 HD
BRANCH   4   7
ATOM      7  C   UNL d   1      27.401 -13.752   2.430  0.00  0.00     0.278 C 
BRANCH   7   8
ATOM      8  O   UNL d   1      28.033 -14.574   3.441  0.00  0.00    -0.342 OA
BRANCH   8   9
ATOM      9  C   UNL d   1      28.285 -14.044   4.673  0.00  0.00     0.069 A 
ATOM     10  C   UNL d   1      29.107 -14.790   5.527  0.00  0.00     0.037 A 
ATOM     11  C   UNL d   1      29.373 -14.354   6.832  0.00  0.00     0.011 A 
ATOM     12  C   UNL d   1      28.903 -13.111   7.280  0.00  0.00    -0.050 A 
ATOM     13  C   UNL d   1      28.071 -12.384   6.411  0.00  0.00     0.011 A 
ATOM     14  C   UNL d   1      27.776 -12.837   5.125  0.00  0.00     0.037 A 
BRANCH  12  15
ATOM     15  C   UNL d   1      29.310 -12.490   8.622  0.00  0.00    -0.024 C 
ATOM     16  C   UNL d   1      29.634 -10.991   8.409  0.00  0.00     0.019 C 
ATOM     17  C   UNL d   1      30.568 -13.147   9.225  0.00  0.00     0.019 C 
ATOM     18  C   UNL d   1      28.155 -12.618   9.631  0.00  0.00     0.019 C 
ENDBRANCH  12  15
ENDBRANCH   8   9
ENDBRANCH   7   8
ENDBRANCH   4   7
ENDBRANCH   1   3
BRANCH   1  19
ATOM     19  N   UNL d   1      28.154 -17.810  -0.049  0.00  0.00    -0.273 N 
ATOM     20  H   UNL d   1      28.762 -18.622  -0.146  0.00  0.00     0.189 HD
BRANCH  19  21
ATOM     21  N   UNL d   1      26.756 -18.136   0.245  0.00  0.00    -0.268 N 
ATOM     22  C   UNL d   1      25.712 -17.692  -0.551  0.00  0.00     0.236 C 
ATOM     23  O   UNL d   1      25.911 -16.994  -1.553  0.00  0.00    -0.272 OA
ATOM     24  H   UNL d   1      26.612 -18.715   1.077  0.00  0.00     0.190 HD
BRANCH  22  25
ATOM     25  C   UNL d   1      24.301 -18.119  -0.112  0.00  0.00     0.114 C 
BRANCH  25  26
ATOM     26  C   UNL d   1      23.213 -17.879  -1.195  0.00  0.00     0.112 C 
BRANCH  26  27
ATOM     27  C   UNL d   1      21.815 -18.193  -0.667  0.00  0.00     0.222 C 
ATOM     28  O   UNL d   1      20.857 -17.489  -1.005  0.00  0.00    -0.273 OA
ATOM     29  N   UNL d   1      21.709 -19.266   0.215  0.00  0.00    -0.327 N 
ATOM     30  H   UNL d   1      22.545 -19.685   0.608  0.00  0.00     0.169 HD
BRANCH  29  31
ATOM     31  C   UNL d   1      20.458 -19.758   0.685  0.00  0.00     0.034 A 
ATOM     32  C   UNL d   1      20.143 -19.771   2.050  0.00  0.00     0.029 A 
ATOM     33  C   UNL d   1      18.932 -20.336   2.491  0.00  0.00     0.002 A 
ATOM     34  C   UNL d   1      18.026 -20.869   1.575  0.00  0.00     0.000 A 
ATOM     35  C   UNL d   1      18.334 -20.856   0.220  0.00  0.00     0.002 A 
ATOM     36  C   UNL d   1      19.538 -20.303  -0.217  0.00  0.00     0.029 A 
ENDBRANCH  29  31
ENDBRANCH  26  27
ENDBRANCH  25  26
ENDBRANCH  22  25
ENDBRANCH  19  21
ENDBRANCH   1  19
TORSDOF 11
ENDMDL
MODEL 2
REMARK VINA RESULT:    -9.085      5.721      8.751
REMARK INTER + INTRA:         -14.517
REMARK INTER:                 -12.366
REMARK INTRA:                  -2.151
REMARK CONF_INDEPENDENT:        3.281
REMARK UNBOUND:                -2.151
REMARK  11 active torsions:
REMARK  status: ('A' for Active; 'I' for Inactive)
REMARK    1  A    between atoms: C_2  and  C_5 
REMARK    2  A    between atoms: C_8  and  O_9 
REMARK    3  A    between atoms: O_9  and  C_10 
REMARK    4  A    between atoms: C_10  and  C_11 
REMARK       I    between atoms: C_11  and  N_13 
REMARK    5  A    between atoms: N_13  and  C_14 
REMARK    6  A    between atoms: C_14  and  N_16 
REMARK    7  A    between atoms: N_16  and  N_17 
REMARK       I    between atoms: N_17  and  C_18 
REMARK    8  A    between atoms: C_18  and  C_20 
REMARK    9  A    between atoms: C_20  and  C_21 
REMARK   10  A    between atoms: C_21  and  C_22 
REMARK       I    between atoms: C_22  and  N_24 
REMARK   11  A    between atoms: N_24  and  C_25 
ROOT
ATOM      1  C   UNL d   1      26.952 -14.704  -2.841  0.00  0.00     0.193 C 
ATOM      2  S   UNL d   1      25.830 -13.481  -2.524  0.00  0.00    -0.039 SA
ENDROOT
BRANCH   1   3
ATOM      3  N   UNL d   1      27.867 -14.711  -3.930  0.00  0.00    -0.301 N 
ATOM      4  C   UNL d   1      27.537 -14.953  -5.290  0.00  0.00     0.248 C 
ATOM      5  O   UNL d   1      26.388 -15.204  -5.662  0.00  0.00    -0.271 OA
ATOM      6  H   UNL d   1      28.839 -14.526  -3.721  0.00  0.00     0.171 HD
BRANCH   4   7
ATOM      7  C   UNL d   1      28.654 -14.907  -6.362  0.00  0.00     0.278 C 
BRANCH   7   8
ATOM      8  O   UNL d   1      29.901 -15.236  -5.704  0.00  0.00    -0.342 OA
BRANCH   8   9
ATOM      9  C   UNL d   1      30.331 -16.530  -5.693  0.00  0.00     0.069 A 
ATOM     10  C   UNL d   1      30.727 -17.055  -4.457  0.00  0.00     0.037 A 
ATOM     11  C   UNL d   1      31.239 -18.357  -4.359  0.00  0.00     0.011 A 
ATOM     12  C   UNL d   1      31.275 -19.197  -5.480  0.00  0.00    -0.050 A 
ATOM     13  C   UNL d   1      30.883 -18.646  -6.712  0.00  0.00     0.011 A 
ATOM     14  C   UNL d   1      30.408 -17.339  -6.816  0.00  0.00     0.037 A 
BRANCH  12  15
ATOM     15  C   UNL d   1      31.644 -20.684  -5.407  0.00  0.00    -0.024 C 
ATOM     16  C   UNL d   1      30.681 -21.398  -4.428  0.00  0.00     0.019 C 
ATOM     17  C   UNL d   1      33.078 -20.916  -4.888  0.00  0.00     0.019 C 
ATOM     18  C   UNL d   1      31.514 -21.326  -6.800  0.00  0.00     0.019 C 
ENDBRANCH  12  15
ENDBRANCH   8   9
ENDBRANCH   7   8
ENDBRANCH   4   7
ENDBRANCH   1   3
BRANCH   1  19
ATOM     19  N   UNL d   1      27.009 -15.814  -1.975  0.00  0.00    -0.273 N 
ATOM     20  H   UNL d   1      27.847 -16.302  -1.663  0.00  0.00     0.189 HD
BRANCH  19  21
ATOM     21  N   UNL d   1      25.759 -16.362  -1.440  0.00  0.00    -0.268 N 
ATOM     22  C   UNL d   1      25.743 -17.356  -0.474  0.00  0.00     0.236 C 
ATOM     23  O   UNL d   1      26.788 -17.832  -0.014  0.00  0.00    -0.272 OA
ATOM     24  H   UNL d   1      24.905 -15.954  -1.831  0.00  0.00     0.190 HD
BRANCH  22  25
ATOM     25  C   UNL d   1      24.352 -17.825  -0.013  0.00  0.00     0.114 C 
BRANCH  25  26
ATOM     26  C   UNL d   1      23.300 -17.868  -1.155  0.00  0.00     0.112 C 
BRANCH  26  27
ATOM     27  C   UNL d   1      21.903 -18.179  -0.621  0.00  0.00     0.222 C 
ATOM     28  O   UNL d   1      20.959 -17.431  -0.896  0.00  0.00    -0.273 OA
ATOM     29  N   UNL d   1      21.784 -19.304   0.193  0.00  0.00    -0.327 N 
ATOM     30  H   UNL d   1      22.615 -19.768   0.543  0.00  0.00     0.169 HD
BRANCH  29  31
ATOM     31  C   UNL d   1      20.529 -19.792   0.655  0.00  0.00     0.034 A 
ATOM     32  C   UNL d   1      20.270 -19.970   2.020  0.00  0.00     0.029 A 
ATOM     33  C   UNL d   1      19.050 -20.530   2.442  0.00  0.00     0.002 A 
ATOM     34  C   UNL d   1      18.078 -20.892   1.509  0.00  0.00     0.000 A 
ATOM     35  C   UNL d   1      18.330 -20.715   0.154  0.00  0.00     0.002 A 
ATOM     36  C   UNL d   1      19.544 -20.167  -0.265  0.00  0.00     0.029 A 
ENDBRANCH  29  31
ENDBRANCH  26  27
ENDBRANCH  25  26
ENDBRANCH  22  25
ENDBRANCH  19  21
ENDBRANCH   1  19
TORSDOF 11
ENDMDL
MODEL 3
REMARK VINA RESULT:    -8.934      5.653      8.065
REMARK INTER + INTRA:         -14.923
REMARK INTER:                 -12.215
REMARK INTRA:                  -2.708
REMARK CONF_INDEPENDENT:        3.281
REMARK UNBOUND:                -2.708
REMARK  11 active torsions:
REMARK  status: ('A' for Active; 'I' for Inactive)
REMARK    1  A    between atoms: C_2  and  C_5 
REMARK    2  A    between atoms: C_8  and  O_9 
REMARK    3  A    between atoms: O_9  and  C_10 
REMARK    4  A    between atoms: C_10  and  C_11 
REMARK       I    between atoms: C_11  and  N_13 
REMARK    5  A    between atoms: N_13  and  C_14 
REMARK    6  A    between atoms: C_14  and  N_16 
REMARK    7  A    between atoms: N_16  and  N_17 
REMARK       I    between atoms: N_17  and  C_18 
REMARK    8  A    between atoms: C_18  and  C_20 
REMARK    9  A    between atoms: C_20  and  C_21 
REMARK   10  A    between atoms: C_21  and  C_22 
REMARK       I    between atoms: C_22  and  N_24 
REMARK   11  A    between atoms: N_24  and  C_25 
ROOT
ATOM      1  C   UNL d   1      27.906 -15.902  -2.430  0.00  0.00     0.193 C 
ATOM      2  S   UNL d   1      29.352 -16.685  -2.816  0.00  0.00    -0.039 SA
ENDROOT
BRANCH   1   3
ATOM      3  N   UNL d   1      27.252 -14.941  -3.251  0.00  0.00    -0.301 N 
ATOM      4  C   UNL d   1      25.920 -15.030  -3.732  0.00  0.00     0.248 C 
ATOM      5  O   UNL d   1      25.186 -15.991  -3.487  0.00  0.00    -0.271 OA
ATOM      6  H   UNL d   1      27.780 -14.120  -3.514  0.00  0.00     0.171 HD
BRANCH   4   7
ATOM      7  C   UNL d   1      25.349 -13.885  -4.604  0.00  0.00     0.278 C 
BRANCH   7   8
ATOM      8  O   UNL d   1      26.356 -12.847  -4.669  0.00  0.00    -0.342 OA
BRANCH   8   9
ATOM      9  C   UNL d   1      25.968 -11.539  -4.709  0.00  0.00     0.069 A 
ATOM     10  C   UNL d   1      25.614 -11.022  -5.961  0.00  0.00     0.037 A 
ATOM     11  C   UNL d   1      25.259  -9.673  -6.109  0.00  0.00     0.011 A 
ATOM     12  C   UNL d   1      25.155  -8.835  -4.990  0.00  0.00    -0.050 A 
ATOM     13  C   UNL d   1      25.526  -9.372  -3.745  0.00  0.00     0.011 A 
ATOM     14  C   UNL d   1      25.914 -10.705  -3.604  0.00  0.00     0.037 A 
BRANCH  12  15
ATOM     15  C   UNL d   1      24.595  -7.409  -5.054  0.00  0.00    -0.024 C 
ATOM     16  C   UNL d   1      25.098  -6.611  -3.827  0.00  0.00     0.019 C 
ATOM     17  C   UNL d   1      23.053  -7.374  -5.021  0.00  0.00     0.019 C 
ATOM     18  C   UNL d   1      25.077  -6.714  -6.340  0.00  0.00     0.019 C 
ENDBRANCH  12  15
ENDBRANCH   8   9
ENDBRANCH   7   8
ENDBRANCH   4   7
ENDBRANCH   1   3
BRANCH   1  19
ATOM     19  N   UNL d   1      27.274 -16.207  -1.207  0.00  0.00    -0.273 N 
ATOM     20  H   UNL d   1      27.605 -15.967  -0.274  0.00  0.00     0.189 HD
BRANCH  19  21
ATOM     21  N   UNL d   1      26.007 -16.943  -1.227  0.00  0.00    -0.268 N 
ATOM     22  C   UNL d   1      25.619 -17.772  -0.186  0.00  0.00     0.236 C 
ATOM     23  O   UNL d   1      26.328 -17.931   0.816  0.00  0.00    -0.272 OA
ATOM     24  H   UNL d   1      25.435 -16.797  -2.063  0.00  0.00     0.190 HD
BRANCH  22  25
ATOM     25  C   UNL d   1      24.261 -18.475  -0.354  0.00  0.00     0.114 C 
BRANCH  25  26
ATOM     26  C   UNL d   1      23.176 -17.582  -1.016  0.00  0.00     0.112 C 
BRANCH  26  27
ATOM     27  C   UNL d   1      21.767 -18.047  -0.653  0.00  0.00     0.222 C 
ATOM     28  O   UNL d   1      20.794 -17.601  -1.270  0.00  0.00    -0.273 OA
ATOM     29  N   UNL d   1      21.663 -18.948   0.405  0.00  0.00    -0.327 N 
ATOM     30  H   UNL d   1      22.465 -19.130   0.998  0.00  0.00     0.169 HD
BRANCH  29  31
ATOM     31  C   UNL d   1      20.434 -19.567   0.771  0.00  0.00     0.034 A 
ATOM     32  C   UNL d   1      20.084 -19.763   2.113  0.00  0.00     0.029 A 
ATOM     33  C   UNL d   1      18.901 -20.450   2.443  0.00  0.00     0.002 A 
ATOM     34  C   UNL d   1      18.056 -20.924   1.440  0.00  0.00     0.000 A 
ATOM     35  C   UNL d   1      18.399 -20.731   0.107  0.00  0.00     0.002 A 
ATOM     36  C   UNL d   1      19.576 -20.057  -0.220  0.00  0.00     0.029 A 
ENDBRANCH  29  31
ENDBRANCH  26  27
ENDBRANCH  25  26
ENDBRANCH  22  25
ENDBRANCH  19  21
ENDBRANCH   1  19
TORSDOF 11
ENDMDL
MODEL 4
REMARK VINA RESULT:    -7.483      3.795      5.733
REMARK INTER + INTRA:         -14.403
REMARK INTER:                 -10.764
REMARK INTRA:                  -3.639
REMARK CONF_INDEPENDENT:        3.281
REMARK UNBOUND:                -3.639
REMARK  11 active torsions:
REMARK  status: ('A' for Active; 'I' for Inactive)
REMARK    1  A    between atoms: C_2  and  C_5 
REMARK    2  A    between atoms: C_8  and  O_9 
REMARK    3  A    between atoms: O_9  and  C_10 
REMARK    4  A    between atoms: C_10  and  C_11 
REMARK       I    between atoms: C_11  and  N_13 
REMARK    5  A    between atoms: N_13  and  C_14 
REMARK    6  A    between atoms: C_14  and  N_16 
REMARK    7  A    between atoms: N_16  and  N_17 
REMARK       I    between atoms: N_17  and  C_18 
REMARK    8  A    between atoms: C_18  and  C_20 
REMARK    9  A    between atoms: C_20  and  C_21 
REMARK   10  A    between atoms: C_21  and  C_22 
REMARK       I    between atoms: C_22  and  N_24 
REMARK   11  A    between atoms: N_24  and  C_25 
ROOT
ATOM      1  C   UNL d   1      29.651 -16.262  -5.649  0.00  0.00     0.193 C 
ATOM      2  S   UNL d   1      30.847 -17.333  -6.176  0.00  0.00    -0.039 SA
ENDROOT
BRANCH   1   3
ATOM      3  N   UNL d   1      29.041 -16.286  -4.365  0.00  0.00    -0.301 N 
ATOM      4  C   UNL d   1      29.721 -16.217  -3.121  0.00  0.00     0.248 C 
ATOM      5  O   UNL d   1      30.950 -16.144  -3.038  0.00  0.00    -0.271 OA
ATOM      6  H   UNL d   1      28.032 -16.356  -4.332  0.00  0.00     0.171 HD
BRANCH   4   7
ATOM      7  C   UNL d   1      28.904 -16.237  -1.806  0.00  0.00     0.278 C 
BRANCH   7   8
ATOM      8  O   UNL d   1      28.830 -14.874  -1.321  0.00  0.00    -0.342 OA
BRANCH   8   9
ATOM      9  C   UNL d   1      28.833 -14.640   0.023  0.00  0.00     0.069 A 
ATOM     10  C   UNL d   1      27.595 -14.385   0.624  0.00  0.00     0.037 A 
ATOM     11  C   UNL d   1      27.508 -14.075   1.989  0.00  0.00     0.011 A 
ATOM     12  C   UNL d   1      28.647 -14.112   2.804  0.00  0.00    -0.050 A 
ATOM     13  C   UNL d   1      29.881 -14.360   2.178  0.00  0.00     0.011 A 
ATOM     14  C   UNL d   1      29.972 -14.632   0.813  0.00  0.00     0.037 A 
BRANCH  12  15
ATOM     15  C   UNL d   1      28.597 -13.970   4.331  0.00  0.00    -0.024 C 
ATOM     16  C   UNL d   1      30.039 -13.819   4.874  0.00  0.00     0.019 C 
ATOM     17  C   UNL d   1      27.975 -15.200   5.022  0.00  0.00     0.019 C 
ATOM     18  C   UNL d   1      27.780 -12.723   4.714  0.00  0.00     0.019 C 
ENDBRANCH  12  15
ENDBRANCH   8   9
ENDBRANCH   7   8
ENDBRANCH   4   7
ENDBRANCH   1   3
BRANCH   1  19
ATOM     19  N   UNL d   1      29.207 -15.254  -6.530  0.00  0.00    -0.273 N 
ATOM     20  H   UNL d   1      29.420 -15.175  -7.523  0.00  0.00     0.189 HD
BRANCH  19  21
ATOM     21  N   UNL d   1      28.348 -14.187  -6.010  0.00  0.00    -0.268 N 
ATOM     22  C   UNL d   1      27.070 -14.434  -5.533  0.00  0.00     0.236 C 
ATOM     23  O   UNL d   1      26.590 -15.575  -5.523  0.00  0.00    -0.272 OA
ATOM     24  H   UNL d   1      28.763 -13.251  -6.025  0.00  0.00     0.190 HD
BRANCH  22  25
ATOM     25  C   UNL d   1      26.293 -13.210  -5.020  0.00  0.00     0.114 C 
BRANCH  25  26
ATOM     26  C   UNL d   1      26.197 -13.138  -3.471  0.00  0.00     0.112 C 
BRANCH  26  27
ATOM     27  C   UNL d   1      25.320 -14.256  -2.910  0.00  0.00     0.222 C 
ATOM     28  O   UNL d   1      24.194 -14.450  -3.381  0.00  0.00    -0.273 OA
ATOM     29  N   UNL d   1      25.848 -14.987  -1.848  0.00  0.00    -0.327 N 
ATOM     30  H   UNL d   1      26.686 -14.665  -1.376  0.00  0.00     0.169 HD
BRANCH  29  31
ATOM     31  C   UNL d   1      25.205 -16.137  -1.309  0.00  0.00     0.034 A 
ATOM     32  C   UNL d   1      23.809 -16.245  -1.269  0.00  0.00     0.029 A 
ATOM     33  C   UNL d   1      23.202 -17.358  -0.658  0.00  0.00     0.002 A 
ATOM     34  C   UNL d   1      23.982 -18.374  -0.106  0.00  0.00     0.000 A 
ATOM     35  C   UNL d   1      25.367 -18.272  -0.145  0.00  0.00     0.002 A 
ATOM     36  C   UNL d   1      25.969 -17.164  -0.744  0.00  0.00     0.029 A 
ENDBRANCH  29  31
ENDBRANCH  26  27
ENDBRANCH  25  26
ENDBRANCH  22  25
ENDBRANCH  19  21
ENDBRANCH   1  19
TORSDOF 11
ENDMDL
