MODEL 1
REMARK VINA RESULT:    -9.079      0.000      0.000
REMARK INTER + INTRA:         -14.272
REMARK INTER:                 -12.360
REMARK INTRA:                  -1.911
REMARK CONF_INDEPENDENT:        3.281
REMARK UNBOUND:                -1.911
REMARK  11 active torsions:
REMARK  status: ('A' for Active; 'I' for Inactive)
REMARK    1  A    between atoms: C_2  and  C_3 
REMARK       I    between atoms: C_2  and  N_27 
REMARK    2  A    between atoms: C_3  and  O_4 
REMARK    3  A    between atoms: O_4  and  C_5 
REMARK    4  A    between atoms: C_9  and  C_10 
REMARK    5  A    between atoms: N_11  and  N_12 
REMARK       I    between atoms: N_12  and  C_13 
REMARK    6  A    between atoms: C_13  and  C_15 
REMARK       I    between atoms: C_15  and  N_17 
REMARK    7  A    between atoms: N_17  and  C_18 
REMARK    8  A    between atoms: C_18  and  C_19 
REMARK    9  A    between atoms: C_19  and  C_20 
REMARK   10  A    between atoms: N_27  and  C_28 
REMARK   11  A    between atoms: C_32  and  C_33 
ROOT
ATOM      1  C   UNL d   1      28.189 -15.404  -4.805  0.00  0.00     0.070 A 
ATOM      2  C   UNL d   1      29.287 -16.003  -5.423  0.00  0.00     0.037 A 
ATOM      3  C   UNL d   1      30.433 -16.294  -4.680  0.00  0.00     0.004 A 
ATOM      4  C   UNL d   1      30.514 -15.923  -3.329  0.00  0.00     0.013 A 
ATOM      5  C   UNL d   1      29.434 -15.272  -2.720  0.00  0.00    -0.014 A 
ATOM      6  C   UNL d   1      28.281 -15.005  -3.470  0.00  0.00     0.049 A 
ENDROOT
BRANCH   5   7
ATOM      7  C   UNL d   1      29.441 -14.936  -1.262  0.00  0.00     0.150 C 
ATOM      8  N   UNL d   1      29.120 -15.833  -0.380  0.00  0.00    -0.183 NA
BRANCH   8   9
ATOM      9  N   UNL d   1      29.152 -15.516   0.958  0.00  0.00    -0.239 N 
ATOM     10  C   UNL d   1      28.238 -14.579   1.455  0.00  0.00     0.329 C 
ATOM     11  O   UNL d   1      27.366 -13.991   0.817  0.00  0.00    -0.261 OA
ATOM     12  H   UNL d   1      29.829 -15.947   1.584  0.00  0.00     0.192 HD
BRANCH  10  13
ATOM     13  C   UNL d   1      28.368 -14.265   2.967  0.00  0.00     0.311 C 
ATOM     14  O   UNL d   1      27.474 -13.642   3.541  0.00  0.00    -0.262 OA
ATOM     15  N   UNL d   1      29.532 -14.729   3.574  0.00  0.00    -0.353 N 
ATOM     16  H   UNL d   1      30.208 -15.201   2.979  0.00  0.00     0.162 HD
BRANCH  15  17
ATOM     17  C   UNL d   1      29.811 -14.495   4.981  0.00  0.00     0.128 C 
BRANCH  17  18
ATOM     18  C   UNL d   1      28.585 -14.548   5.921  0.00  0.00     0.058 C 
BRANCH  18  19
ATOM     19  C   UNL d   1      28.745 -13.618   7.112  0.00  0.00    -0.057 A 
ATOM     20  C   UNL d   1      29.101 -14.099   8.380  0.00  0.00     0.007 A 
ATOM     21  C   UNL d   1      29.096 -13.242   9.488  0.00  0.00     0.001 A 
ATOM     22  C   UNL d   1      28.819 -11.885   9.326  0.00  0.00     0.000 A 
ATOM     23  C   UNL d   1      28.529 -11.385   8.062  0.00  0.00     0.001 A 
ATOM     24  C   UNL d   1      28.505 -12.243   6.966  0.00  0.00     0.007 A 
ENDBRANCH  18  19
ENDBRANCH  17  18
ENDBRANCH  15  17
ENDBRANCH  10  13
ENDBRANCH   8   9
ENDBRANCH   5   7
BRANCH   1  25
ATOM     25  O   UNL d   1      27.034 -15.390  -5.541  0.00  0.00    -0.342 OA
BRANCH  25  26
ATOM     26  C   UNL d   1      25.836 -15.568  -4.800  0.00  0.00     0.278 C 
BRANCH  26  27
ATOM     27  C   UNL d   1      25.405 -14.308  -4.024  0.00  0.00     0.246 C 
ATOM     28  O   UNL d   1      25.368 -13.189  -4.542  0.00  0.00    -0.271 OA
ATOM     29  N   UNL d   1      24.936 -14.451  -2.733  0.00  0.00    -0.325 N 
ATOM     30  H   UNL d   1      24.490 -13.617  -2.366  0.00  0.00     0.169 HD
BRANCH  29  31
ATOM     31  C   UNL d   1      24.982 -15.588  -1.913  0.00  0.00     0.035 A 
ATOM     32  C   UNL d   1      26.199 -16.066  -1.429  0.00  0.00     0.029 A 
ATOM     33  C   UNL d   1      26.231 -17.228  -0.645  0.00  0.00     0.003 A 
ATOM     34  C   UNL d   1      25.045 -17.885  -0.305  0.00  0.00     0.016 A 
ATOM     35  C   UNL d   1      23.827 -17.432  -0.814  0.00  0.00     0.050 A 
ATOM     36  C   UNL d   1      23.825 -16.311  -1.645  0.00  0.00     0.045 A 
BRANCH  35  37
ATOM     37  C   UNL d   1      22.533 -18.152  -0.550  0.00  0.00     0.417 C 
ATOM     38  F   UNL d   1      21.453 -17.405  -0.898  0.00  0.00    -0.166 F 
ATOM     39  F   UNL d   1      22.431 -19.323  -1.232  0.00  0.00    -0.166 F 
ATOM     40  F   UNL d   1      22.357 -18.470   0.765  0.00  0.00    -0.166 F 
ENDBRANCH  35  37
ENDBRANCH  29  31
ENDBRANCH  26  27
ENDBRANCH  25  26
ENDBRANCH   1  25
TORSDOF 11
ENDMDL
MODEL 2
REMARK VINA RESULT:    -8.338      1.866      2.828
REMARK INTER + INTRA:         -14.213
REMARK INTER:                 -11.619
REMARK INTRA:                  -2.593
REMARK CONF_INDEPENDENT:        3.281
REMARK UNBOUND:                -2.593
REMARK  11 active torsions:
REMARK  status: ('A' for Active; 'I' for Inactive)
REMARK    1  A    between atoms: C_2  and  C_3 
REMARK       I    between atoms: C_2  and  N_27 
REMARK    2  A    between atoms: C_3  and  O_4 
REMARK    3  A    between atoms: O_4  and  C_5 
REMARK    4  A    between atoms: C_9  and  C_10 
REMARK    5  A    between atoms: N_11  and  N_12 
REMARK       I    between atoms: N_12  and  C_13 
REMARK    6  A    between atoms: C_13  and  C_15 
REMARK       I    between atoms: C_15  and  N_17 
REMARK    7  A    between atoms: N_17  and  C_18 
REMARK    8  A    between atoms: C_18  and  C_19 
REMARK    9  A    between atoms: C_19  and  C_20 
REMARK   10  A    between atoms: N_27  and  C_28 
REMARK   11  A    between atoms: C_32  and  C_33 
ROOT
ATOM      1  C   UNL d   1      25.502 -13.391  -3.764  0.00  0.00     0.070 A 
ATOM      2  C   UNL d   1      26.081 -12.301  -4.413  0.00  0.00     0.037 A 
ATOM      3  C   UNL d   1      26.883 -11.408  -3.699  0.00  0.00     0.004 A 
ATOM      4  C   UNL d   1      27.053 -11.561  -2.315  0.00  0.00     0.013 A 
ATOM      5  C   UNL d   1      26.429 -12.623  -1.650  0.00  0.00    -0.014 A 
ATOM      6  C   UNL d   1      25.644 -13.525  -2.381  0.00  0.00     0.049 A 
ENDROOT
BRANCH   5   7
ATOM      7  C   UNL d   1      26.650 -12.876  -0.192  0.00  0.00     0.150 C 
ATOM      8  N   UNL d   1      27.156 -11.950   0.566  0.00  0.00    -0.183 NA
BRANCH   8   9
ATOM      9  N   UNL d   1      27.334 -12.189   1.908  0.00  0.00    -0.239 N 
ATOM     10  C   UNL d   1      27.623 -13.492   2.332  0.00  0.00     0.329 C 
ATOM     11  O   UNL d   1      27.757 -14.485   1.621  0.00  0.00    -0.261 OA
ATOM     12  H   UNL d   1      27.253 -11.438   2.591  0.00  0.00     0.192 HD
BRANCH  10  13
ATOM     13  C   UNL d   1      27.779 -13.670   3.865  0.00  0.00     0.311 C 
ATOM     14  O   UNL d   1      27.438 -12.762   4.623  0.00  0.00    -0.262 OA
ATOM     15  N   UNL d   1      28.313 -14.889   4.270  0.00  0.00    -0.353 N 
ATOM     16  H   UNL d   1      28.586 -15.543   3.540  0.00  0.00     0.162 HD
BRANCH  15  17
ATOM     17  C   UNL d   1      28.543 -15.200   5.672  0.00  0.00     0.128 C 
BRANCH  17  18
ATOM     18  C   UNL d   1      29.673 -14.396   6.356  0.00  0.00     0.058 C 
BRANCH  18  19
ATOM     19  C   UNL d   1      29.194 -13.723   7.632  0.00  0.00    -0.057 A 
ATOM     20  C   UNL d   1      28.787 -12.381   7.649  0.00  0.00     0.007 A 
ATOM     21  C   UNL d   1      28.495 -11.748   8.864  0.00  0.00     0.001 A 
ATOM     22  C   UNL d   1      28.523 -12.468  10.058  0.00  0.00     0.000 A 
ATOM     23  C   UNL d   1      28.861 -13.815  10.044  0.00  0.00     0.001 A 
ATOM     24  C   UNL d   1      29.182 -14.438   8.839  0.00  0.00     0.007 A 
ENDBRANCH  18  19
ENDBRANCH  17  18
ENDBRANCH  15  17
ENDBRANCH  10  13
ENDBRANCH   8   9
ENDBRANCH   5   7
BRANCH   1  25
ATOM     25  O   UNL d   1      24.951 -14.340  -4.583  0.00  0.00    -0.342 OA
BRANCH  25  26
ATOM     26  C   UNL d   1      25.570 -15.618  -4.539  0.00  0.00     0.278 C 
BRANCH  26  27
ATOM     27  C   UNL d   1      27.110 -15.551  -4.557  0.00  0.00     0.246 C 
ATOM     28  O   UNL d   1      27.749 -15.213  -5.556  0.00  0.00    -0.271 OA
ATOM     29  N   UNL d   1      27.798 -15.772  -3.380  0.00  0.00    -0.325 N 
ATOM     30  H   UNL d   1      28.779 -15.517  -3.427  0.00  0.00     0.169 HD
BRANCH  29  31
ATOM     31  C   UNL d   1      27.303 -16.265  -2.164  0.00  0.00     0.035 A 
ATOM     32  C   UNL d   1      28.144 -16.412  -1.062  0.00  0.00     0.029 A 
ATOM     33  C   UNL d   1      27.643 -16.947   0.133  0.00  0.00     0.003 A 
ATOM     34  C   UNL d   1      26.292 -17.289   0.243  0.00  0.00     0.016 A 
ATOM     35  C   UNL d   1      25.452 -17.176  -0.865  0.00  0.00     0.050 A 
ATOM     36  C   UNL d   1      25.987 -16.703  -2.064  0.00  0.00     0.045 A 
BRANCH  35  37
ATOM     37  C   UNL d   1      24.013 -17.612  -0.825  0.00  0.00     0.417 C 
ATOM     38  F   UNL d   1      23.596 -18.109  -2.019  0.00  0.00    -0.166 F 
ATOM     39  F   UNL d   1      23.778 -18.577   0.101  0.00  0.00    -0.166 F 
ATOM     40  F   UNL d   1      23.155 -16.594  -0.527  0.00  0.00    -0.166 F 
ENDBRANCH  35  37
ENDBRANCH  29  31
ENDBRANCH  26  27
ENDBRANCH  25  26
ENDBRANCH   1  25
TORSDOF 11
ENDMDL
MODEL 3
REMARK VINA RESULT:    -8.252      4.892      5.408
REMARK INTER + INTRA:         -13.866
REMARK INTER:                 -11.534
REMARK INTRA:                  -2.332
REMARK CONF_INDEPENDENT:        3.281
REMARK UNBOUND:                -2.332
REMARK  11 active torsions:
REMARK  status: ('A' for Active; 'I' for Inactive)
REMARK    1  A    between atoms: C_2  and  C_3 
REMARK       I    between atoms: C_2  and  N_27 
REMARK    2  A    between atoms: C_3  and  O_4 
REMARK    3  A    between atoms: O_4  and  C_5 
REMARK    4  A    between atoms: C_9  and  C_10 
REMARK    5  A    between atoms: N_11  and  N_12 
REMARK       I    between atoms: N_12  and  C_13 
REMARK    6  A    between atoms: C_13  and  C_15 
REMARK       I    between atoms: C_15  and  N_17 
REMARK    7  A    between atoms: N_17  and  C_18 
REMARK    8  A    between atoms: C_18  and  C_19 
REMARK    9  A    between atoms: C_19  and  C_20 
REMARK   10  A    between atoms: N_27  and  C_28 
REMARK   11  A    between atoms: C_32  and  C_33 
ROOT
ATOM      1  C   UNL d   1      28.313 -15.098  -5.783  0.00  0.00     0.070 A 
ATOM      2  C   UNL d   1      28.934 -14.272  -6.720  0.00  0.00     0.037 A 
ATOM      3  C   UNL d   1      30.326 -14.244  -6.813  0.00  0.00     0.004 A 
ATOM      4  C   UNL d   1      31.110 -14.989  -5.919  0.00  0.00     0.013 A 
ATOM      5  C   UNL d   1      30.492 -15.776  -4.940  0.00  0.00    -0.014 A 
ATOM      6  C   UNL d   1      29.093 -15.814  -4.871  0.00  0.00     0.049 A 
ENDROOT
BRANCH   5   7
ATOM      7  C   UNL d   1      31.283 -16.654  -4.022  0.00  0.00     0.150 C 
ATOM      8  N   UNL d   1      30.884 -17.862  -3.763  0.00  0.00    -0.183 NA
BRANCH   8   9
ATOM      9  N   UNL d   1      31.632 -18.665  -2.935  0.00  0.00    -0.239 N 
ATOM     10  C   UNL d   1      31.157 -18.942  -1.648  0.00  0.00     0.329 C 
ATOM     11  O   UNL d   1      30.102 -18.551  -1.152  0.00  0.00    -0.261 OA
ATOM     12  H   UNL d   1      32.522 -19.052  -3.243  0.00  0.00     0.192 HD
BRANCH  10  13
ATOM     13  C   UNL d   1      32.081 -19.832  -0.778  0.00  0.00     0.311 C 
ATOM     14  O   UNL d   1      33.223 -20.087  -1.163  0.00  0.00    -0.262 OA
ATOM     15  N   UNL d   1      31.521 -20.288   0.412  0.00  0.00    -0.353 N 
ATOM     16  H   UNL d   1      30.554 -20.032   0.597  0.00  0.00     0.162 HD
BRANCH  15  17
ATOM     17  C   UNL d   1      32.252 -21.150   1.326  0.00  0.00     0.128 C 
BRANCH  17  18
ATOM     18  C   UNL d   1      32.966 -20.431   2.493  0.00  0.00     0.058 C 
BRANCH  18  19
ATOM     19  C   UNL d   1      32.497 -20.944   3.844  0.00  0.00    -0.057 A 
ATOM     20  C   UNL d   1      31.150 -21.246   4.090  0.00  0.00     0.007 A 
ATOM     21  C   UNL d   1      30.725 -21.573   5.384  0.00  0.00     0.001 A 
ATOM     22  C   UNL d   1      31.649 -21.685   6.422  0.00  0.00     0.000 A 
ATOM     23  C   UNL d   1      32.997 -21.451   6.174  0.00  0.00     0.001 A 
ATOM     24  C   UNL d   1      33.416 -21.096   4.894  0.00  0.00     0.007 A 
ENDBRANCH  18  19
ENDBRANCH  17  18
ENDBRANCH  15  17
ENDBRANCH  10  13
ENDBRANCH   8   9
ENDBRANCH   5   7
BRANCH   1  25
ATOM     25  O   UNL d   1      26.961 -15.251  -5.935  0.00  0.00    -0.342 OA
BRANCH  25  26
ATOM     26  C   UNL d   1      26.245 -15.568  -4.750  0.00  0.00     0.278 C 
BRANCH  26  27
ATOM     27  C   UNL d   1      25.802 -14.326  -3.953  0.00  0.00     0.246 C 
ATOM     28  O   UNL d   1      25.783 -13.194  -4.442  0.00  0.00    -0.271 OA
ATOM     29  N   UNL d   1      25.303 -14.500  -2.677  0.00  0.00    -0.325 N 
ATOM     30  H   UNL d   1      24.853 -13.672  -2.299  0.00  0.00     0.169 HD
BRANCH  29  31
ATOM     31  C   UNL d   1      25.324 -15.657  -1.886  0.00  0.00     0.035 A 
ATOM     32  C   UNL d   1      26.534 -16.211  -1.470  0.00  0.00     0.029 A 
ATOM     33  C   UNL d   1      26.539 -17.393  -0.715  0.00  0.00     0.003 A 
ATOM     34  C   UNL d   1      25.336 -17.993  -0.335  0.00  0.00     0.016 A 
ATOM     35  C   UNL d   1      24.122 -17.463  -0.775  0.00  0.00     0.050 A 
ATOM     36  C   UNL d   1      24.143 -16.324  -1.580  0.00  0.00     0.045 A 
BRANCH  35  37
ATOM     37  C   UNL d   1      22.805 -18.120  -0.467  0.00  0.00     0.417 C 
ATOM     38  F   UNL d   1      21.751 -17.383  -0.906  0.00  0.00    -0.166 F 
ATOM     39  F   UNL d   1      22.681 -19.349  -1.032  0.00  0.00    -0.166 F 
ATOM     40  F   UNL d   1      22.598 -18.302   0.870  0.00  0.00    -0.166 F 
ENDBRANCH  35  37
ENDBRANCH  29  31
ENDBRANCH  26  27
ENDBRANCH  25  26
ENDBRANCH   1  25
TORSDOF 11
ENDMDL
MODEL 4
REMARK VINA RESULT:    -8.173      5.625      8.072
REMARK INTER + INTRA:         -14.342
REMARK INTER:                 -11.455
REMARK INTRA:                  -2.887
REMARK CONF_INDEPENDENT:        3.281
REMARK UNBOUND:                -2.887
REMARK  11 active torsions:
REMARK  status: ('A' for Active; 'I' for Inactive)
REMARK    1  A    between atoms: C_2  and  C_3 
REMARK       I    between atoms: C_2  and  N_27 
REMARK    2  A    between atoms: C_3  and  O_4 
REMARK    3  A    between atoms: O_4  and  C_5 
REMARK    4  A    between atoms: C_9  and  C_10 
REMARK    5  A    between atoms: N_11  and  N_12 
REMARK       I    between atoms: N_12  and  C_13 
REMARK    6  A    between atoms: C_13  and  C_15 
REMARK       I    between atoms: C_15  and  N_17 
REMARK    7  A    between atoms: N_17  and  C_18 
REMARK    8  A    between atoms: C_18  and  C_19 
REMARK    9  A    between atoms: C_19  and  C_20 
REMARK   10  A    between atoms: N_27  and  C_28 
REMARK   11  A    between atoms: C_32  and  C_33 
ROOT
ATOM      1  C   UNL d   1      28.667 -13.127  -6.778  0.00  0.00     0.070 A 
ATOM      2  C   UNL d   1      29.826 -13.899  -6.844  0.00  0.00     0.037 A 
ATOM      3  C   UNL d   1      29.877 -15.138  -6.203  0.00  0.00     0.004 A 
ATOM      4  C   UNL d   1      28.793 -15.580  -5.431  0.00  0.00     0.013 A 
ATOM      5  C   UNL d   1      27.648 -14.782  -5.316  0.00  0.00    -0.014 A 
ATOM      6  C   UNL d   1      27.600 -13.551  -5.982  0.00  0.00     0.049 A 
ENDROOT
BRANCH   5   7
ATOM      7  C   UNL d   1      26.435 -15.250  -4.575  0.00  0.00     0.150 C 
ATOM      8  N   UNL d   1      26.233 -14.881  -3.346  0.00  0.00    -0.183 NA
BRANCH   8   9
ATOM      9  N   UNL d   1      25.103 -15.301  -2.685  0.00  0.00    -0.239 N 
ATOM     10  C   UNL d   1      25.186 -16.412  -1.838  0.00  0.00     0.329 C 
ATOM     11  O   UNL d   1      26.190 -17.077  -1.592  0.00  0.00    -0.261 OA
ATOM     12  H   UNL d   1      24.214 -14.820  -2.808  0.00  0.00     0.192 HD
BRANCH  10  13
ATOM     13  C   UNL d   1      23.856 -16.828  -1.158  0.00  0.00     0.311 C 
ATOM     14  O   UNL d   1      22.871 -16.094  -1.243  0.00  0.00    -0.262 OA
ATOM     15  N   UNL d   1      23.888 -18.043  -0.481  0.00  0.00    -0.353 N 
ATOM     16  H   UNL d   1      24.777 -18.538  -0.458  0.00  0.00     0.162 HD
BRANCH  15  17
ATOM     17  C   UNL d   1      22.728 -18.560   0.227  0.00  0.00     0.128 C 
BRANCH  17  18
ATOM     18  C   UNL d   1      21.463 -18.775  -0.636  0.00  0.00     0.058 C 
BRANCH  18  19
ATOM     19  C   UNL d   1      20.341 -19.420   0.159  0.00  0.00    -0.057 A 
ATOM     20  C   UNL d   1      20.330 -19.410   1.561  0.00  0.00     0.007 A 
ATOM     21  C   UNL d   1      19.364 -20.139   2.265  0.00  0.00     0.001 A 
ATOM     22  C   UNL d   1      18.353 -20.812   1.581  0.00  0.00     0.000 A 
ATOM     23  C   UNL d   1      18.316 -20.774   0.192  0.00  0.00     0.001 A 
ATOM     24  C   UNL d   1      19.294 -20.074  -0.509  0.00  0.00     0.007 A 
ENDBRANCH  18  19
ENDBRANCH  17  18
ENDBRANCH  15  17
ENDBRANCH  10  13
ENDBRANCH   8   9
ENDBRANCH   5   7
BRANCH   1  25
ATOM     25  O   UNL d   1      28.618 -12.061  -7.636  0.00  0.00    -0.342 OA
BRANCH  25  26
ATOM     26  C   UNL d   1      28.009 -10.887  -7.119  0.00  0.00     0.278 C 
BRANCH  26  27
ATOM     27  C   UNL d   1      26.472 -10.892  -7.242  0.00  0.00     0.246 C 
ATOM     28  O   UNL d   1      25.892 -11.073  -8.315  0.00  0.00    -0.271 OA
ATOM     29  N   UNL d   1      25.714 -10.800  -6.091  0.00  0.00    -0.325 N 
ATOM     30  H   UNL d   1      24.731 -11.008  -6.233  0.00  0.00     0.169 HD
BRANCH  29  31
ATOM     31  C   UNL d   1      26.140 -10.488  -4.792  0.00  0.00     0.035 A 
ATOM     32  C   UNL d   1      26.272  -9.161  -4.387  0.00  0.00     0.029 A 
ATOM     33  C   UNL d   1      26.740  -8.866  -3.099  0.00  0.00     0.003 A 
ATOM     34  C   UNL d   1      27.030  -9.896  -2.200  0.00  0.00     0.016 A 
ATOM     35  C   UNL d   1      26.933 -11.227  -2.609  0.00  0.00     0.050 A 
ATOM     36  C   UNL d   1      26.527 -11.496  -3.917  0.00  0.00     0.045 A 
BRANCH  35  37
ATOM     37  C   UNL d   1      27.317 -12.370  -1.710  0.00  0.00     0.417 C 
ATOM     38  F   UNL d   1      27.988 -11.949  -0.607  0.00  0.00    -0.166 F 
ATOM     39  F   UNL d   1      26.245 -13.077  -1.266  0.00  0.00    -0.166 F 
ATOM     40  F   UNL d   1      28.134 -13.277  -2.318  0.00  0.00    -0.166 F 
ENDBRANCH  35  37
ENDBRANCH  29  31
ENDBRANCH  26  27
ENDBRANCH  25  26
ENDBRANCH   1  25
TORSDOF 11
ENDMDL
MODEL 5
REMARK VINA RESULT:    -8.170      4.915     11.924
REMARK INTER + INTRA:         -13.906
REMARK INTER:                 -11.451
REMARK INTRA:                  -2.455
REMARK CONF_INDEPENDENT:        3.281
REMARK UNBOUND:                -2.455
REMARK  11 active torsions:
REMARK  status: ('A' for Active; 'I' for Inactive)
REMARK    1  A    between atoms: C_2  and  C_3 
REMARK       I    between atoms: C_2  and  N_27 
REMARK    2  A    between atoms: C_3  and  O_4 
REMARK    3  A    between atoms: O_4  and  C_5 
REMARK    4  A    between atoms: C_9  and  C_10 
REMARK    5  A    between atoms: N_11  and  N_12 
REMARK       I    between atoms: N_12  and  C_13 
REMARK    6  A    between atoms: C_13  and  C_15 
REMARK       I    between atoms: C_15  and  N_17 
REMARK    7  A    between atoms: N_17  and  C_18 
REMARK    8  A    between atoms: C_18  and  C_19 
REMARK    9  A    between atoms: C_19  and  C_20 
REMARK   10  A    between atoms: N_27  and  C_28 
REMARK   11  A    between atoms: C_32  and  C_33 
ROOT
ATOM      1  C   UNL d   1      28.934 -13.887   9.512  0.00  0.00     0.070 A 
ATOM      2  C   UNL d   1      28.901 -12.580   9.996  0.00  0.00     0.037 A 
ATOM      3  C   UNL d   1      28.789 -11.509   9.108  0.00  0.00     0.004 A 
ATOM      4  C   UNL d   1      28.780 -11.736   7.723  0.00  0.00     0.013 A 
ATOM      5  C   UNL d   1      28.868 -13.044   7.232  0.00  0.00    -0.014 A 
ATOM      6  C   UNL d   1      28.958 -14.112   8.134  0.00  0.00     0.049 A 
ENDROOT
BRANCH   5   7
ATOM      7  C   UNL d   1      28.775 -13.341   5.768  0.00  0.00     0.150 C 
ATOM      8  N   UNL d   1      28.561 -14.554   5.357  0.00  0.00    -0.183 NA
BRANCH   8   9
ATOM      9  N   UNL d   1      28.456 -14.809   4.010  0.00  0.00    -0.239 N 
ATOM     10  C   UNL d   1      27.620 -14.001   3.230  0.00  0.00     0.329 C 
ATOM     11  O   UNL d   1      26.953 -13.043   3.616  0.00  0.00    -0.261 OA
ATOM     12  H   UNL d   1      28.970 -15.575   3.579  0.00  0.00     0.192 HD
BRANCH  10  13
ATOM     13  C   UNL d   1      27.544 -14.381   1.729  0.00  0.00     0.311 C 
ATOM     14  O   UNL d   1      26.808 -13.745   0.974  0.00  0.00    -0.262 OA
ATOM     15  N   UNL d   1      28.344 -15.454   1.345  0.00  0.00    -0.353 N 
ATOM     16  H   UNL d   1      28.881 -15.916   2.074  0.00  0.00     0.162 HD
BRANCH  15  17
ATOM     17  C   UNL d   1      28.366 -15.946  -0.023  0.00  0.00     0.128 C 
BRANCH  17  18
ATOM     18  C   UNL d   1      27.747 -17.347  -0.237  0.00  0.00     0.058 C 
BRANCH  18  19
ATOM     19  C   UNL d   1      26.230 -17.290  -0.298  0.00  0.00    -0.057 A 
ATOM     20  C   UNL d   1      25.430 -18.200   0.407  0.00  0.00     0.007 A 
ATOM     21  C   UNL d   1      24.042 -18.218   0.213  0.00  0.00     0.001 A 
ATOM     22  C   UNL d   1      23.435 -17.276  -0.617  0.00  0.00     0.000 A 
ATOM     23  C   UNL d   1      24.213 -16.328  -1.270  0.00  0.00     0.001 A 
ATOM     24  C   UNL d   1      25.596 -16.329  -1.101  0.00  0.00     0.007 A 
ENDBRANCH  18  19
ENDBRANCH  17  18
ENDBRANCH  15  17
ENDBRANCH  10  13
ENDBRANCH   8   9
ENDBRANCH   5   7
BRANCH   1  25
ATOM     25  O   UNL d   1      28.789 -14.869  10.456  0.00  0.00    -0.342 OA
BRANCH  25  26
ATOM     26  C   UNL d   1      29.890 -15.037  11.336  0.00  0.00     0.278 C 
BRANCH  26  27
ATOM     27  C   UNL d   1      30.930 -16.055  10.828  0.00  0.00     0.246 C 
ATOM     28  O   UNL d   1      30.780 -17.273  10.944  0.00  0.00    -0.271 OA
ATOM     29  N   UNL d   1      32.020 -15.591  10.116  0.00  0.00    -0.325 N 
ATOM     30  H   UNL d   1      32.544 -16.324   9.650  0.00  0.00     0.169 HD
BRANCH  29  31
ATOM     31  C   UNL d   1      32.449 -14.267   9.950  0.00  0.00     0.035 A 
ATOM     32  C   UNL d   1      33.016 -13.565  11.014  0.00  0.00     0.029 A 
ATOM     33  C   UNL d   1      33.401 -12.228  10.843  0.00  0.00     0.003 A 
ATOM     34  C   UNL d   1      33.266 -11.607   9.598  0.00  0.00     0.016 A 
ATOM     35  C   UNL d   1      32.670 -12.292   8.538  0.00  0.00     0.050 A 
ATOM     36  C   UNL d   1      32.234 -13.601   8.749  0.00  0.00     0.045 A 
BRANCH  35  37
ATOM     37  C   UNL d   1      32.422 -11.642   7.205  0.00  0.00     0.417 C 
ATOM     38  F   UNL d   1      31.525 -12.336   6.457  0.00  0.00    -0.166 F 
ATOM     39  F   UNL d   1      31.939 -10.377   7.315  0.00  0.00    -0.166 F 
ATOM     40  F   UNL d   1      33.547 -11.545   6.440  0.00  0.00    -0.166 F 
ENDBRANCH  35  37
ENDBRANCH  29  31
ENDBRANCH  26  27
ENDBRANCH  25  26
ENDBRANCH   1  25
TORSDOF 11
ENDMDL
MODEL 6
REMARK VINA RESULT:    -7.719      4.953     11.671
REMARK INTER + INTRA:         -13.939
REMARK INTER:                 -11.001
REMARK INTRA:                  -2.939
REMARK CONF_INDEPENDENT:        3.281
REMARK UNBOUND:                -2.939
REMARK  11 active torsions:
REMARK  status: ('A' for Active; 'I' for Inactive)
REMARK    1  A    between atoms: C_2  and  C_3 
REMARK       I    between atoms: C_2  and  N_27 
REMARK    2  A    between atoms: C_3  and  O_4 
REMARK    3  A    between atoms: O_4  and  C_5 
REMARK    4  A    between atoms: C_9  and  C_10 
REMARK    5  A    between atoms: N_11  and  N_12 
REMARK       I    between atoms: N_12  and  C_13 
REMARK    6  A    between atoms: C_13  and  C_15 
REMARK       I    between atoms: C_15  and  N_17 
REMARK    7  A    between atoms: N_17  and  C_18 
REMARK    8  A    between atoms: C_18  and  C_19 
REMARK    9  A    between atoms: C_19  and  C_20 
REMARK   10  A    between atoms: N_27  and  C_28 
REMARK   11  A    between atoms: C_32  and  C_33 
ROOT
ATOM      1  C   UNL d   1      28.548 -11.756   8.699  0.00  0.00     0.070 A 
ATOM      2  C   UNL d   1      29.423 -10.681   8.549  0.00  0.00     0.037 A 
ATOM      3  C   UNL d   1      29.838 -10.291   7.274  0.00  0.00     0.004 A 
ATOM      4  C   UNL d   1      29.434 -11.020   6.145  0.00  0.00     0.013 A 
ATOM      5  C   UNL d   1      28.600 -12.134   6.297  0.00  0.00    -0.014 A 
ATOM      6  C   UNL d   1      28.172 -12.502   7.580  0.00  0.00     0.049 A 
ENDROOT
BRANCH   5   7
ATOM      7  C   UNL d   1      28.074 -12.889   5.117  0.00  0.00     0.150 C 
ATOM      8  N   UNL d   1      27.690 -12.255   4.050  0.00  0.00    -0.183 NA
BRANCH   8   9
ATOM      9  N   UNL d   1      27.230 -12.963   2.965  0.00  0.00    -0.239 N 
ATOM     10  C   UNL d   1      27.989 -14.037   2.485  0.00  0.00     0.329 C 
ATOM     11  O   UNL d   1      29.053 -14.450   2.943  0.00  0.00    -0.261 OA
ATOM     12  H   UNL d   1      26.355 -12.715   2.508  0.00  0.00     0.192 HD
BRANCH  10  13
ATOM     13  C   UNL d   1      27.405 -14.757   1.242  0.00  0.00     0.311 C 
ATOM     14  O   UNL d   1      26.470 -14.248   0.624  0.00  0.00    -0.262 OA
ATOM     15  N   UNL d   1      28.011 -15.967   0.917  0.00  0.00    -0.353 N 
ATOM     16  H   UNL d   1      28.754 -16.294   1.529  0.00  0.00     0.162 HD
BRANCH  15  17
ATOM     17  C   UNL d   1      27.563 -16.773  -0.208  0.00  0.00     0.128 C 
BRANCH  17  18
ATOM     18  C   UNL d   1      26.684 -17.992   0.156  0.00  0.00     0.058 C 
BRANCH  18  19
ATOM     19  C   UNL d   1      25.233 -17.779  -0.242  0.00  0.00    -0.057 A 
ATOM     20  C   UNL d   1      24.764 -16.532  -0.678  0.00  0.00     0.007 A 
ATOM     21  C   UNL d   1      23.395 -16.328  -0.894  0.00  0.00     0.001 A 
ATOM     22  C   UNL d   1      22.496 -17.386  -0.761  0.00  0.00     0.000 A 
ATOM     23  C   UNL d   1      22.960 -18.643  -0.392  0.00  0.00     0.001 A 
ATOM     24  C   UNL d   1      24.317 -18.838  -0.148  0.00  0.00     0.007 A 
ENDBRANCH  18  19
ENDBRANCH  17  18
ENDBRANCH  15  17
ENDBRANCH  10  13
ENDBRANCH   8   9
ENDBRANCH   5   7
BRANCH   1  25
ATOM     25  O   UNL d   1      28.002 -11.903   9.947  0.00  0.00    -0.342 OA
BRANCH  25  26
ATOM     26  C   UNL d   1      28.619 -12.881  10.772  0.00  0.00     0.278 C 
BRANCH  26  27
ATOM     27  C   UNL d   1      28.335 -14.327  10.320  0.00  0.00     0.246 C 
ATOM     28  O   UNL d   1      27.208 -14.826  10.357  0.00  0.00    -0.271 OA
ATOM     29  N   UNL d   1      29.360 -15.058   9.751  0.00  0.00    -0.325 N 
ATOM     30  H   UNL d   1      29.050 -15.914   9.303  0.00  0.00     0.169 HD
BRANCH  29  31
ATOM     31  C   UNL d   1      30.726 -14.745   9.700  0.00  0.00     0.035 A 
ATOM     32  C   UNL d   1      31.647 -15.463  10.460  0.00  0.00     0.029 A 
ATOM     33  C   UNL d   1      33.004 -15.110  10.430  0.00  0.00     0.003 A 
ATOM     34  C   UNL d   1      33.446 -14.072   9.605  0.00  0.00     0.016 A 
ATOM     35  C   UNL d   1      32.525 -13.327   8.867  0.00  0.00     0.050 A 
ATOM     36  C   UNL d   1      31.172 -13.655   8.962  0.00  0.00     0.045 A 
BRANCH  35  37
ATOM     37  C   UNL d   1      32.938 -12.147   8.033  0.00  0.00     0.417 C 
ATOM     38  F   UNL d   1      32.255 -12.086   6.860  0.00  0.00    -0.166 F 
ATOM     39  F   UNL d   1      32.738 -10.958   8.661  0.00  0.00    -0.166 F 
ATOM     40  F   UNL d   1      34.259 -12.168   7.691  0.00  0.00    -0.166 F 
ENDBRANCH  35  37
ENDBRANCH  29  31
ENDBRANCH  26  27
ENDBRANCH  25  26
ENDBRANCH   1  25
TORSDOF 11
ENDMDL
MODEL 7
REMARK VINA RESULT:    -7.577      3.135      4.804
REMARK INTER + INTRA:         -14.107
REMARK INTER:                 -10.858
REMARK INTRA:                  -3.249
REMARK CONF_INDEPENDENT:        3.281
REMARK UNBOUND:                -3.249
REMARK  11 active torsions:
REMARK  status: ('A' for Active; 'I' for Inactive)
REMARK    1  A    between atoms: C_2  and  C_3 
REMARK       I    between atoms: C_2  and  N_27 
REMARK    2  A    between atoms: C_3  and  O_4 
REMARK    3  A    between atoms: O_4  and  C_5 
REMARK    4  A    between atoms: C_9  and  C_10 
REMARK    5  A    between atoms: N_11  and  N_12 
REMARK       I    between atoms: N_12  and  C_13 
REMARK    6  A    between atoms: C_13  and  C_15 
REMARK       I    between atoms: C_15  and  N_17 
REMARK    7  A    between atoms: N_17  and  C_18 
REMARK    8  A    between atoms: C_18  and  C_19 
REMARK    9  A    between atoms: C_19  and  C_20 
REMARK   10  A    between atoms: N_27  and  C_28 
REMARK   11  A    between atoms: C_32  and  C_33 
ROOT
ATOM      1  C   UNL d   1      25.341 -16.095  -2.131  0.00  0.00     0.070 A 
ATOM      2  C   UNL d   1      24.467 -17.176  -2.020  0.00  0.00     0.037 A 
ATOM      3  C   UNL d   1      24.498 -17.984  -0.882  0.00  0.00     0.004 A 
ATOM      4  C   UNL d   1      25.453 -17.758   0.121  0.00  0.00     0.013 A 
ATOM      5  C   UNL d   1      26.367 -16.707  -0.013  0.00  0.00    -0.014 A 
ATOM      6  C   UNL d   1      26.313 -15.888  -1.149  0.00  0.00     0.049 A 
ENDROOT
BRANCH   5   7
ATOM      7  C   UNL d   1      27.346 -16.373   1.069  0.00  0.00     0.150 C 
ATOM      8  N   UNL d   1      27.406 -15.169   1.551  0.00  0.00    -0.183 NA
BRANCH   8   9
ATOM      9  N   UNL d   1      28.294 -14.882   2.561  0.00  0.00    -0.239 N 
ATOM     10  C   UNL d   1      27.854 -14.136   3.660  0.00  0.00     0.329 C 
ATOM     11  O   UNL d   1      26.719 -13.700   3.847  0.00  0.00    -0.261 OA
ATOM     12  H   UNL d   1      29.261 -15.198   2.516  0.00  0.00     0.192 HD
BRANCH  10  13
ATOM     13  C   UNL d   1      28.932 -13.838   4.734  0.00  0.00     0.311 C 
ATOM     14  O   UNL d   1      30.067 -14.296   4.603  0.00  0.00    -0.262 OA
ATOM     15  N   UNL d   1      28.509 -13.048   5.799  0.00  0.00    -0.353 N 
ATOM     16  H   UNL d   1      27.533 -12.761   5.805  0.00  0.00     0.162 HD
BRANCH  15  17
ATOM     17  C   UNL d   1      29.395 -12.699   6.897  0.00  0.00     0.128 C 
BRANCH  17  18
ATOM     18  C   UNL d   1      28.710 -12.068   8.131  0.00  0.00     0.058 C 
BRANCH  18  19
ATOM     19  C   UNL d   1      28.760 -12.990   9.338  0.00  0.00    -0.057 A 
ATOM     20  C   UNL d   1      29.319 -14.274   9.262  0.00  0.00     0.007 A 
ATOM     21  C   UNL d   1      29.217 -15.154  10.347  0.00  0.00     0.001 A 
ATOM     22  C   UNL d   1      28.636 -14.733  11.542  0.00  0.00     0.000 A 
ATOM     23  C   UNL d   1      28.138 -13.440  11.650  0.00  0.00     0.001 A 
ATOM     24  C   UNL d   1      28.212 -12.575  10.561  0.00  0.00     0.007 A 
ENDBRANCH  18  19
ENDBRANCH  17  18
ENDBRANCH  15  17
ENDBRANCH  10  13
ENDBRANCH   8   9
ENDBRANCH   5   7
BRANCH   1  25
ATOM     25  O   UNL d   1      25.069 -15.219  -3.149  0.00  0.00    -0.342 OA
BRANCH  25  26
ATOM     26  C   UNL d   1      26.164 -14.425  -3.580  0.00  0.00     0.278 C 
BRANCH  26  27
ATOM     27  C   UNL d   1      27.027 -15.109  -4.659  0.00  0.00     0.246 C 
ATOM     28  O   UNL d   1      26.655 -15.233  -5.827  0.00  0.00    -0.271 OA
ATOM     29  N   UNL d   1      28.311 -15.500  -4.332  0.00  0.00    -0.325 N 
ATOM     30  H   UNL d   1      28.877 -15.755  -5.135  0.00  0.00     0.169 HD
BRANCH  29  31
ATOM     31  C   UNL d   1      28.906 -15.556  -3.063  0.00  0.00     0.035 A 
ATOM     32  C   UNL d   1      29.313 -16.774  -2.522  0.00  0.00     0.029 A 
ATOM     33  C   UNL d   1      29.867 -16.817  -1.235  0.00  0.00     0.003 A 
ATOM     34  C   UNL d   1      30.060 -15.639  -0.509  0.00  0.00     0.016 A 
ATOM     35  C   UNL d   1      29.625 -14.420  -1.030  0.00  0.00     0.050 A 
ATOM     36  C   UNL d   1      29.017 -14.409  -2.285  0.00  0.00     0.045 A 
BRANCH  35  37
ATOM     37  C   UNL d   1      29.729 -13.136  -0.254  0.00  0.00     0.417 C 
ATOM     38  F   UNL d   1      30.088 -13.348   1.040  0.00  0.00    -0.166 F 
ATOM     39  F   UNL d   1      30.643 -12.275  -0.774  0.00  0.00    -0.166 F 
ATOM     40  F   UNL d   1      28.554 -12.444  -0.204  0.00  0.00    -0.166 F 
ENDBRANCH  35  37
ENDBRANCH  29  31
ENDBRANCH  26  27
ENDBRANCH  25  26
ENDBRANCH   1  25
TORSDOF 11
ENDMDL
MODEL 8
REMARK VINA RESULT:    -7.550      2.917      4.665
REMARK INTER + INTRA:         -13.942
REMARK INTER:                 -10.832
REMARK INTRA:                  -3.110
REMARK CONF_INDEPENDENT:        3.281
REMARK UNBOUND:                -3.110
REMARK  11 active torsions:
REMARK  status: ('A' for Active; 'I' for Inactive)
REMARK    1  A    between atoms: C_2  and  C_3 
REMARK       I    between atoms: C_2  and  N_27 
REMARK    2  A    between atoms: C_3  and  O_4 
REMARK    3  A    between atoms: O_4  and  C_5 
REMARK    4  A    between atoms: C_9  and  C_10 
REMARK    5  A    between atoms: N_11  and  N_12 
REMARK       I    between atoms: N_12  and  C_13 
REMARK    6  A    between atoms: C_13  and  C_15 
REMARK       I    between atoms: C_15  and  N_17 
REMARK    7  A    between atoms: N_17  and  C_18 
REMARK    8  A    between atoms: C_18  and  C_19 
REMARK    9  A    between atoms: C_19  and  C_20 
REMARK   10  A    between atoms: N_27  and  C_28 
REMARK   11  A    between atoms: C_32  and  C_33 
ROOT
ATOM      1  C   UNL d   1      25.348 -16.094  -2.133  0.00  0.00     0.070 A 
ATOM      2  C   UNL d   1      24.492 -17.190  -2.020  0.00  0.00     0.037 A 
ATOM      3  C   UNL d   1      24.542 -18.000  -0.884  0.00  0.00     0.004 A 
ATOM      4  C   UNL d   1      25.498 -17.760   0.115  0.00  0.00     0.013 A 
ATOM      5  C   UNL d   1      26.395 -16.694  -0.021  0.00  0.00    -0.014 A 
ATOM      6  C   UNL d   1      26.321 -15.874  -1.156  0.00  0.00     0.049 A 
ENDROOT
BRANCH   5   7
ATOM      7  C   UNL d   1      27.373 -16.347   1.057  0.00  0.00     0.150 C 
ATOM      8  N   UNL d   1      27.413 -15.145   1.545  0.00  0.00    -0.183 NA
BRANCH   8   9
ATOM      9  N   UNL d   1      28.301 -14.846   2.551  0.00  0.00    -0.239 N 
ATOM     10  C   UNL d   1      27.854 -14.113   3.656  0.00  0.00     0.329 C 
ATOM     11  O   UNL d   1      26.712 -13.699   3.852  0.00  0.00    -0.261 OA
ATOM     12  H   UNL d   1      29.273 -15.144   2.499  0.00  0.00     0.192 HD
BRANCH  10  13
ATOM     13  C   UNL d   1      28.932 -13.800   4.725  0.00  0.00     0.311 C 
ATOM     14  O   UNL d   1      30.075 -14.237   4.585  0.00  0.00    -0.262 OA
ATOM     15  N   UNL d   1      28.501 -13.023   5.796  0.00  0.00    -0.353 N 
ATOM     16  H   UNL d   1      27.520 -12.753   5.809  0.00  0.00     0.162 HD
BRANCH  15  17
ATOM     17  C   UNL d   1      29.387 -12.662   6.891  0.00  0.00     0.128 C 
BRANCH  17  18
ATOM     18  C   UNL d   1      28.698 -12.046   8.130  0.00  0.00     0.058 C 
BRANCH  18  19
ATOM     19  C   UNL d   1      28.764 -12.974   9.332  0.00  0.00    -0.057 A 
ATOM     20  C   UNL d   1      29.343 -14.248   9.248  0.00  0.00     0.007 A 
ATOM     21  C   UNL d   1      29.256 -15.135  10.329  0.00  0.00     0.001 A 
ATOM     22  C   UNL d   1      28.669 -14.730  11.527  0.00  0.00     0.000 A 
ATOM     23  C   UNL d   1      28.151 -13.446  11.642  0.00  0.00     0.001 A 
ATOM     24  C   UNL d   1      28.210 -12.574  10.558  0.00  0.00     0.007 A 
ENDBRANCH  18  19
ENDBRANCH  17  18
ENDBRANCH  15  17
ENDBRANCH  10  13
ENDBRANCH   8   9
ENDBRANCH   5   7
BRANCH   1  25
ATOM     25  O   UNL d   1      25.057 -15.221  -3.147  0.00  0.00    -0.342 OA
BRANCH  25  26
ATOM     26  C   UNL d   1      26.137 -14.408  -3.581  0.00  0.00     0.278 C 
BRANCH  26  27
ATOM     27  C   UNL d   1      27.004 -15.073  -4.669  0.00  0.00     0.246 C 
ATOM     28  O   UNL d   1      26.615 -15.224  -5.829  0.00  0.00    -0.271 OA
ATOM     29  N   UNL d   1      28.307 -15.414  -4.362  0.00  0.00    -0.325 N 
ATOM     30  H   UNL d   1      28.866 -15.658  -5.173  0.00  0.00     0.169 HD
BRANCH  29  31
ATOM     31  C   UNL d   1      28.927 -15.433  -3.104  0.00  0.00     0.035 A 
ATOM     32  C   UNL d   1      29.086 -14.257  -2.373  0.00  0.00     0.029 A 
ATOM     33  C   UNL d   1      29.746 -14.287  -1.136  0.00  0.00     0.003 A 
ATOM     34  C   UNL d   1      30.203 -15.497  -0.608  0.00  0.00     0.016 A 
ATOM     35  C   UNL d   1      30.078 -16.673  -1.349  0.00  0.00     0.050 A 
ATOM     36  C   UNL d   1      29.475 -16.609  -2.606  0.00  0.00     0.045 A 
BRANCH  35  37
ATOM     37  C   UNL d   1      30.630 -17.985  -0.866  0.00  0.00     0.417 C 
ATOM     38  F   UNL d   1      31.425 -17.835   0.225  0.00  0.00    -0.166 F 
ATOM     39  F   UNL d   1      29.660 -18.873  -0.520  0.00  0.00    -0.166 F 
ATOM     40  F   UNL d   1      31.397 -18.619  -1.800  0.00  0.00    -0.166 F 
ENDBRANCH  35  37
ENDBRANCH  29  31
ENDBRANCH  26  27
ENDBRANCH  25  26
ENDBRANCH   1  25
TORSDOF 11
ENDMDL
MODEL 9
REMARK VINA RESULT:    -7.206      5.827      8.416
REMARK INTER + INTRA:         -14.011
REMARK INTER:                 -10.487
REMARK INTRA:                  -3.524
REMARK CONF_INDEPENDENT:        3.281
REMARK UNBOUND:                -3.524
REMARK  11 active torsions:
REMARK  status: ('A' for Active; 'I' for Inactive)
REMARK    1  A    between atoms: C_2  and  C_3 
REMARK       I    between atoms: C_2  and  N_27 
REMARK    2  A    between atoms: C_3  and  O_4 
REMARK    3  A    between atoms: O_4  and  C_5 
REMARK    4  A    between atoms: C_9  and  C_10 
REMARK    5  A    between atoms: N_11  and  N_12 
REMARK       I    between atoms: N_12  and  C_13 
REMARK    6  A    between atoms: C_13  and  C_15 
REMARK       I    between atoms: C_15  and  N_17 
REMARK    7  A    between atoms: N_17  and  C_18 
REMARK    8  A    between atoms: C_18  and  C_19 
REMARK    9  A    between atoms: C_19  and  C_20 
REMARK   10  A    between atoms: N_27  and  C_28 
REMARK   11  A    between atoms: C_32  and  C_33 
ROOT
ATOM      1  C   UNL d   1      28.328 -13.450  -6.073  0.00  0.00     0.070 A 
ATOM      2  C   UNL d   1      28.361 -12.083  -6.344  0.00  0.00     0.037 A 
ATOM      3  C   UNL d   1      27.344 -11.252  -5.870  0.00  0.00     0.004 A 
ATOM      4  C   UNL d   1      26.249 -11.797  -5.181  0.00  0.00     0.013 A 
ATOM      5  C   UNL d   1      26.186 -13.176  -4.954  0.00  0.00    -0.014 A 
ATOM      6  C   UNL d   1      27.223 -13.997  -5.415  0.00  0.00     0.049 A 
ENDROOT
BRANCH   5   7
ATOM      7  C   UNL d   1      25.083 -13.790  -4.150  0.00  0.00     0.150 C 
ATOM      8  N   UNL d   1      25.358 -14.562  -3.141  0.00  0.00    -0.183 NA
BRANCH   8   9
ATOM      9  N   UNL d   1      24.335 -15.101  -2.397  0.00  0.00    -0.239 N 
ATOM     10  C   UNL d   1      24.475 -16.399  -1.892  0.00  0.00     0.329 C 
ATOM     11  O   UNL d   1      25.447 -17.140  -2.027  0.00  0.00    -0.261 OA
ATOM     12  H   UNL d   1      23.483 -14.574  -2.216  0.00  0.00     0.192 HD
BRANCH  10  13
ATOM     13  C   UNL d   1      23.261 -16.933  -1.091  0.00  0.00     0.311 C 
ATOM     14  O   UNL d   1      22.343 -16.169  -0.790  0.00  0.00    -0.262 OA
ATOM     15  N   UNL d   1      23.312 -18.285  -0.763  0.00  0.00    -0.353 N 
ATOM     16  H   UNL d   1      24.144 -18.799  -1.042  0.00  0.00     0.162 HD
BRANCH  15  17
ATOM     17  C   UNL d   1      22.260 -18.930   0.006  0.00  0.00     0.128 C 
BRANCH  17  18
ATOM     18  C   UNL d   1      20.865 -18.951  -0.661  0.00  0.00     0.058 C 
BRANCH  18  19
ATOM     19  C   UNL d   1      19.840 -19.673   0.198  0.00  0.00    -0.057 A 
ATOM     20  C   UNL d   1      19.919 -19.670   1.598  0.00  0.00     0.007 A 
ATOM     21  C   UNL d   1      19.049 -20.465   2.355  0.00  0.00     0.001 A 
ATOM     22  C   UNL d   1      18.042 -21.199   1.730  0.00  0.00     0.000 A 
ATOM     23  C   UNL d   1      17.914 -21.157   0.347  0.00  0.00     0.001 A 
ATOM     24  C   UNL d   1      18.798 -20.391  -0.409  0.00  0.00     0.007 A 
ENDBRANCH  18  19
ENDBRANCH  17  18
ENDBRANCH  15  17
ENDBRANCH  10  13
ENDBRANCH   8   9
ENDBRANCH   5   7
BRANCH   1  25
ATOM     25  O   UNL d   1      29.481 -14.135  -6.353  0.00  0.00    -0.342 OA
BRANCH  25  26
ATOM     26  C   UNL d   1      29.331 -15.537  -6.525  0.00  0.00     0.278 C 
BRANCH  26  27
ATOM     27  C   UNL d   1      30.470 -16.356  -5.886  0.00  0.00     0.246 C 
ATOM     28  O   UNL d   1      31.270 -17.015  -6.552  0.00  0.00    -0.271 OA
ATOM     29  N   UNL d   1      30.670 -16.261  -4.522  0.00  0.00    -0.325 N 
ATOM     30  H   UNL d   1      31.548 -16.664  -4.210  0.00  0.00     0.169 HD
BRANCH  29  31
ATOM     31  C   UNL d   1      29.839 -15.668  -3.561  0.00  0.00     0.035 A 
ATOM     32  C   UNL d   1      28.913 -16.432  -2.854  0.00  0.00     0.029 A 
ATOM     33  C   UNL d   1      28.060 -15.816  -1.927  0.00  0.00     0.003 A 
ATOM     34  C   UNL d   1      28.166 -14.446  -1.671  0.00  0.00     0.016 A 
ATOM     35  C   UNL d   1      29.068 -13.669  -2.398  0.00  0.00     0.050 A 
ATOM     36  C   UNL d   1      29.862 -14.292  -3.362  0.00  0.00     0.045 A 
BRANCH  35  37
ATOM     37  C   UNL d   1      29.161 -12.178  -2.223  0.00  0.00     0.417 C 
ATOM     38  F   UNL d   1      29.896 -11.836  -1.133  0.00  0.00    -0.166 F 
ATOM     39  F   UNL d   1      29.732 -11.555  -3.287  0.00  0.00    -0.166 F 
ATOM     40  F   UNL d   1      27.945 -11.583  -2.052  0.00  0.00    -0.166 F 
ENDBRANCH  35  37
ENDBRANCH  29  31
ENDBRANCH  26  27
ENDBRANCH  25  26
ENDBRANCH   1  25
TORSDOF 11
ENDMDL
