MODEL 1
REMARK VINA RESULT:    -6.174      0.000      0.000
REMARK INTER + INTRA:          -8.909
REMARK INTER:                  -8.262
REMARK INTRA:                  -0.647
REMARK CONF_INDEPENDENT:        2.088
REMARK UNBOUND:                -0.647
REMARK  7 active torsions:
REMARK  status: ('A' for Active; 'I' for Inactive)
REMARK    1  A    between atoms: C_2  and  C_3 
REMARK       I    between atoms: C_2  and  N_12 
REMARK    2  A    between atoms: C_3  and  O_4 
REMARK    3  A    between atoms: O_4  and  C_5 
REMARK    4  A    between atoms: N_12  and  N_13 
REMARK    5  A    between atoms: N_13  and  C_14 
REMARK    6  A    between atoms: C_14  and  N_16 
REMARK    7  A    between atoms: N_16  and  C_17 
ROOT
ATOM      1  O   UNL d   1      23.204 -19.876  -0.402  0.00  0.00    -0.269 OA
ATOM      2  C   UNL d   1      23.196 -18.668  -0.662  0.00  0.00     0.260 C 
ATOM      3  N   UNL d   1      24.378 -18.055  -0.957  0.00  0.00    -0.266 N 
ATOM      4  H   UNL d   1      25.209 -18.654  -0.931  0.00  0.00     0.190 HD
ENDROOT
BRANCH   2   5
ATOM      5  C   UNL d   1      21.940 -17.822  -0.685  0.00  0.00     0.280 C 
BRANCH   5   6
ATOM      6  O   UNL d   1      20.835 -18.613  -1.108  0.00  0.00    -0.342 OA
BRANCH   6   7
ATOM      7  C   UNL d   1      20.225 -19.344  -0.130  0.00  0.00     0.072 A 
ATOM      8  C   UNL d   1      20.608 -19.325   1.212  0.00  0.00     0.037 A 
ATOM      9  C   UNL d   1      19.892 -20.066   2.157  0.00  0.00     0.006 A 
ATOM     10  C   UNL d   1      18.790 -20.820   1.761  0.00  0.00     0.042 A 
ATOM     11  C   UNL d   1      18.402 -20.814   0.426  0.00  0.00     0.119 A 
ATOM     12  F   UNL d   1      17.335 -21.530   0.049  0.00  0.00    -0.206 F 
ATOM     13  C   UNL d   1      19.102 -20.074  -0.520  0.00  0.00     0.079 A 
ENDBRANCH   6   7
ENDBRANCH   5   6
ENDBRANCH   2   5
BRANCH   3  14
ATOM     14  N   UNL d   1      24.626 -16.707  -1.285  0.00  0.00    -0.274 N 
ATOM     15  H   UNL d   1      23.858 -16.056  -1.381  0.00  0.00     0.189 HD
BRANCH  14  16
ATOM     16  C   UNL d   1      25.969 -16.334  -1.404  0.00  0.00     0.186 C 
ATOM     17  S   UNL d   1      26.965 -16.407  -0.036  0.00  0.00    -0.040 SA
BRANCH  16  18
ATOM     18  N   UNL d   1      26.324 -15.945  -2.698  0.00  0.00    -0.361 N 
ATOM     19  H   UNL d   1      27.242 -16.219  -3.034  0.00  0.00     0.162 HD
BRANCH  18  20
ATOM     20  C   UNL d   1      25.530 -15.212  -3.672  0.00  0.00     0.084 A 
ATOM     21  C   UNL d   1      24.968 -13.849  -3.366  0.00  0.00     0.027 A 
ATOM     22  C   UNL d   1      26.052 -14.007  -4.405  0.00  0.00     0.027 A 
ENDBRANCH  18  20
ENDBRANCH  16  18
ENDBRANCH  14  16
ENDBRANCH   3  14
TORSDOF 7
ENDMDL
MODEL 2
REMARK VINA RESULT:    -5.592      1.988      2.268
REMARK INTER + INTRA:          -8.373
REMARK INTER:                  -7.680
REMARK INTRA:                  -0.693
REMARK CONF_INDEPENDENT:        2.088
REMARK UNBOUND:                -0.693
REMARK  7 active torsions:
REMARK  status: ('A' for Active; 'I' for Inactive)
REMARK    1  A    between atoms: C_2  and  C_3 
REMARK       I    between atoms: C_2  and  N_12 
REMARK    2  A    between atoms: C_3  and  O_4 
REMARK    3  A    between atoms: O_4  and  C_5 
REMARK    4  A    between atoms: N_12  and  N_13 
REMARK    5  A    between atoms: N_13  and  C_14 
REMARK    6  A    between atoms: C_14  and  N_16 
REMARK    7  A    between atoms: N_16  and  C_17 
ROOT
ATOM      1  O   UNL d   1      22.157 -16.221   0.060  0.00  0.00    -0.269 OA
ATOM      2  C   UNL d   1      22.910 -17.015  -0.514  0.00  0.00     0.260 C 
ATOM      3  N   UNL d   1      24.233 -16.702  -0.619  0.00  0.00    -0.266 N 
ATOM      4  H   UNL d   1      24.511 -15.803  -0.214  0.00  0.00     0.190 HD
ENDROOT
BRANCH   2   5
ATOM      5  C   UNL d   1      22.451 -18.334  -1.101  0.00  0.00     0.280 C 
BRANCH   5   6
ATOM      6  O   UNL d   1      21.035 -18.328  -1.247  0.00  0.00    -0.342 OA
BRANCH   6   7
ATOM      7  C   UNL d   1      20.349 -19.129  -0.382  0.00  0.00     0.072 A 
ATOM      8  C   UNL d   1      20.710 -19.324   0.953  0.00  0.00     0.037 A 
ATOM      9  C   UNL d   1      19.919 -20.122   1.784  0.00  0.00     0.006 A 
ATOM     10  C   UNL d   1      18.764 -20.720   1.283  0.00  0.00     0.042 A 
ATOM     11  C   UNL d   1      18.401 -20.500  -0.040  0.00  0.00     0.119 A 
ATOM     12  F   UNL d   1      17.284 -21.065  -0.517  0.00  0.00    -0.206 F 
ATOM     13  C   UNL d   1      19.176 -19.701  -0.873  0.00  0.00     0.079 A 
ENDBRANCH   6   7
ENDBRANCH   5   6
ENDBRANCH   2   5
BRANCH   3  14
ATOM     14  N   UNL d   1      25.278 -17.434  -1.217  0.00  0.00    -0.274 N 
ATOM     15  H   UNL d   1      25.147 -17.861  -2.125  0.00  0.00     0.189 HD
BRANCH  14  16
ATOM     16  C   UNL d   1      26.488 -17.475  -0.515  0.00  0.00     0.186 C 
ATOM     17  S   UNL d   1      26.658 -18.575   0.760  0.00  0.00    -0.040 SA
BRANCH  16  18
ATOM     18  N   UNL d   1      27.438 -16.569  -0.993  0.00  0.00    -0.361 N 
ATOM     19  H   UNL d   1      27.970 -16.838  -1.815  0.00  0.00     0.162 HD
BRANCH  18  20
ATOM     20  C   UNL d   1      27.758 -15.243  -0.487  0.00  0.00     0.084 A 
ATOM     21  C   UNL d   1      26.692 -14.319   0.037  0.00  0.00     0.027 A 
ATOM     22  C   UNL d   1      27.720 -14.900   0.977  0.00  0.00     0.027 A 
ENDBRANCH  18  20
ENDBRANCH  16  18
ENDBRANCH  14  16
ENDBRANCH   3  14
TORSDOF 7
ENDMDL
MODEL 3
REMARK VINA RESULT:    -5.438      4.447      6.060
REMARK INTER + INTRA:          -8.384
REMARK INTER:                  -7.527
REMARK INTRA:                  -0.858
REMARK CONF_INDEPENDENT:        2.088
REMARK UNBOUND:                -0.858
REMARK  7 active torsions:
REMARK  status: ('A' for Active; 'I' for Inactive)
REMARK    1  A    between atoms: C_2  and  C_3 
REMARK       I    between atoms: C_2  and  N_12 
REMARK    2  A    between atoms: C_3  and  O_4 
REMARK    3  A    between atoms: O_4  and  C_5 
REMARK    4  A    between atoms: N_12  and  N_13 
REMARK    5  A    between atoms: N_13  and  C_14 
REMARK    6  A    between atoms: C_14  and  N_16 
REMARK    7  A    between atoms: N_16  and  C_17 
ROOT
ATOM      1  O   UNL d   1      24.781 -14.769  -4.689  0.00  0.00    -0.269 OA
ATOM      2  C   UNL d   1      25.438 -14.240  -3.786  0.00  0.00     0.260 C 
ATOM      3  N   UNL d   1      25.359 -12.888  -3.627  0.00  0.00    -0.266 N 
ATOM      4  H   UNL d   1      24.754 -12.396  -4.291  0.00  0.00     0.190 HD
ENDROOT
BRANCH   2   5
ATOM      5  C   UNL d   1      26.324 -15.009  -2.829  0.00  0.00     0.280 C 
BRANCH   5   6
ATOM      6  O   UNL d   1      25.775 -14.952  -1.516  0.00  0.00    -0.342 OA
BRANCH   6   7
ATOM      7  C   UNL d   1      25.257 -16.123  -1.043  0.00  0.00     0.072 A 
ATOM      8  C   UNL d   1      25.986 -17.058  -0.307  0.00  0.00     0.037 A 
ATOM      9  C   UNL d   1      25.359 -18.207   0.185  0.00  0.00     0.006 A 
ATOM     10  C   UNL d   1      24.003 -18.417  -0.054  0.00  0.00     0.042 A 
ATOM     11  C   UNL d   1      23.280 -17.468  -0.768  0.00  0.00     0.119 A 
ATOM     12  F   UNL d   1      21.974 -17.666  -0.986  0.00  0.00    -0.206 F 
ATOM     13  C   UNL d   1      23.891 -16.318  -1.253  0.00  0.00     0.079 A 
ENDBRANCH   6   7
ENDBRANCH   5   6
ENDBRANCH   2   5
BRANCH   3  14
ATOM     14  N   UNL d   1      26.001 -12.062  -2.683  0.00  0.00    -0.274 N 
ATOM     15  H   UNL d   1      26.218 -12.415  -1.760  0.00  0.00     0.189 HD
BRANCH  14  16
ATOM     16  C   UNL d   1      26.358 -10.781  -3.119  0.00  0.00     0.186 C 
ATOM     17  S   UNL d   1      27.720 -10.036  -2.443  0.00  0.00    -0.040 SA
BRANCH  16  18
ATOM     18  N   UNL d   1      25.509 -10.274  -4.106  0.00  0.00    -0.361 N 
ATOM     19  H   UNL d   1      24.691 -10.824  -4.349  0.00  0.00     0.162 HD
BRANCH  18  20
ATOM     20  C   UNL d   1      25.615  -9.018  -4.832  0.00  0.00     0.084 A 
ATOM     21  C   UNL d   1      24.662  -8.664  -5.941  0.00  0.00     0.027 A 
ATOM     22  C   UNL d   1      24.642  -7.886  -4.647  0.00  0.00     0.027 A 
ENDBRANCH  18  20
ENDBRANCH  16  18
ENDBRANCH  14  16
ENDBRANCH   3  14
TORSDOF 7
ENDMDL
MODEL 4
REMARK VINA RESULT:    -5.185      4.364      5.713
REMARK INTER + INTRA:          -8.642
REMARK INTER:                  -7.273
REMARK INTRA:                  -1.370
REMARK CONF_INDEPENDENT:        2.088
REMARK UNBOUND:                -1.370
REMARK  7 active torsions:
REMARK  status: ('A' for Active; 'I' for Inactive)
REMARK    1  A    between atoms: C_2  and  C_3 
REMARK       I    between atoms: C_2  and  N_12 
REMARK    2  A    between atoms: C_3  and  O_4 
REMARK    3  A    between atoms: O_4  and  C_5 
REMARK    4  A    between atoms: N_12  and  N_13 
REMARK    5  A    between atoms: N_13  and  C_14 
REMARK    6  A    between atoms: C_14  and  N_16 
REMARK    7  A    between atoms: N_16  and  C_17 
ROOT
ATOM      1  O   UNL d   1      25.797 -15.950  -5.408  0.00  0.00    -0.269 OA
ATOM      2  C   UNL d   1      25.869 -15.199  -4.428  0.00  0.00     0.260 C 
ATOM      3  N   UNL d   1      25.286 -13.969  -4.505  0.00  0.00    -0.266 N 
ATOM      4  H   UNL d   1      24.830 -13.746  -5.395  0.00  0.00     0.190 HD
ENDROOT
BRANCH   2   5
ATOM      5  C   UNL d   1      26.558 -15.571  -3.132  0.00  0.00     0.280 C 
BRANCH   5   6
ATOM      6  O   UNL d   1      25.741 -15.195  -2.028  0.00  0.00    -0.342 OA
BRANCH   6   7
ATOM      7  C   UNL d   1      25.226 -16.226  -1.298  0.00  0.00     0.072 A 
ATOM      8  C   UNL d   1      25.998 -17.100  -0.531  0.00  0.00     0.037 A 
ATOM      9  C   UNL d   1      25.380 -18.098   0.230  0.00  0.00     0.006 A 
ATOM     10  C   UNL d   1      23.992 -18.217   0.228  0.00  0.00     0.042 A 
ATOM     11  C   UNL d   1      23.231 -17.326  -0.520  0.00  0.00     0.119 A 
ATOM     12  F   UNL d   1      21.896 -17.434  -0.511  0.00  0.00    -0.206 F 
ATOM     13  C   UNL d   1      23.834 -16.325  -1.273  0.00  0.00     0.079 A 
ENDBRANCH   6   7
ENDBRANCH   5   6
ENDBRANCH   2   5
BRANCH   3  14
ATOM     14  N   UNL d   1      25.230 -12.947  -3.536  0.00  0.00    -0.274 N 
ATOM     15  H   UNL d   1      24.927 -13.155  -2.593  0.00  0.00     0.189 HD
BRANCH  14  16
ATOM     16  C   UNL d   1      25.665 -11.681  -3.942  0.00  0.00     0.186 C 
ATOM     17  S   UNL d   1      26.280 -10.614  -2.780  0.00  0.00    -0.040 SA
BRANCH  16  18
ATOM     18  N   UNL d   1      25.537 -11.464  -5.316  0.00  0.00    -0.361 N 
ATOM     19  H   UNL d   1      24.659 -11.728  -5.753  0.00  0.00     0.162 HD
BRANCH  18  20
ATOM     20  C   UNL d   1      26.498 -10.866  -6.231  0.00  0.00     0.084 A 
ATOM     21  C   UNL d   1      27.977 -10.897  -5.954  0.00  0.00     0.027 A 
ATOM     22  C   UNL d   1      27.405 -11.685  -7.107  0.00  0.00     0.027 A 
ENDBRANCH  18  20
ENDBRANCH  16  18
ENDBRANCH  14  16
ENDBRANCH   3  14
TORSDOF 7
ENDMDL
MODEL 5
REMARK VINA RESULT:    -5.070      4.854      6.273
REMARK INTER + INTRA:          -8.516
REMARK INTER:                  -7.158
REMARK INTRA:                  -1.359
REMARK CONF_INDEPENDENT:        2.088
REMARK UNBOUND:                -1.359
REMARK  7 active torsions:
REMARK  status: ('A' for Active; 'I' for Inactive)
REMARK    1  A    between atoms: C_2  and  C_3 
REMARK       I    between atoms: C_2  and  N_12 
REMARK    2  A    between atoms: C_3  and  O_4 
REMARK    3  A    between atoms: O_4  and  C_5 
REMARK    4  A    between atoms: N_12  and  N_13 
REMARK    5  A    between atoms: N_13  and  C_14 
REMARK    6  A    between atoms: C_14  and  N_16 
REMARK    7  A    between atoms: N_16  and  C_17 
ROOT
ATOM      1  O   UNL d   1      24.946 -14.825  -5.021  0.00  0.00    -0.269 OA
ATOM      2  C   UNL d   1      25.482 -14.312  -4.032  0.00  0.00     0.260 C 
ATOM      3  N   UNL d   1      25.307 -12.977  -3.815  0.00  0.00    -0.266 N 
ATOM      4  H   UNL d   1      24.740 -12.483  -4.510  0.00  0.00     0.190 HD
ENDROOT
BRANCH   2   5
ATOM      5  C   UNL d   1      26.317 -15.084  -3.032  0.00  0.00     0.280 C 
BRANCH   5   6
ATOM      6  O   UNL d   1      25.821 -14.857  -1.716  0.00  0.00    -0.342 OA
BRANCH   6   7
ATOM      7  C   UNL d   1      25.301 -15.951  -1.086  0.00  0.00     0.072 A 
ATOM      8  C   UNL d   1      23.958 -16.326  -1.156  0.00  0.00     0.037 A 
ATOM      9  C   UNL d   1      23.522 -17.493  -0.521  0.00  0.00     0.006 A 
ATOM     10  C   UNL d   1      24.430 -18.287   0.176  0.00  0.00     0.042 A 
ATOM     11  C   UNL d   1      25.769 -17.918   0.219  0.00  0.00     0.119 A 
ATOM     12  F   UNL d   1      26.642 -18.689   0.880  0.00  0.00    -0.206 F 
ATOM     13  C   UNL d   1      26.215 -16.764  -0.416  0.00  0.00     0.079 A 
ENDBRANCH   6   7
ENDBRANCH   5   6
ENDBRANCH   2   5
BRANCH   3  14
ATOM     14  N   UNL d   1      25.806 -12.171  -2.772  0.00  0.00    -0.274 N 
ATOM     15  H   UNL d   1      25.973 -12.567  -1.856  0.00  0.00     0.189 HD
BRANCH  14  16
ATOM     16  C   UNL d   1      26.101 -10.843  -3.100  0.00  0.00     0.186 C 
ATOM     17  S   UNL d   1      27.084  -9.940  -2.058  0.00  0.00    -0.040 SA
BRANCH  16  18
ATOM     18  N   UNL d   1      25.527 -10.428  -4.304  0.00  0.00    -0.361 N 
ATOM     19  H   UNL d   1      24.517 -10.320  -4.329  0.00  0.00     0.162 HD
BRANCH  18  20
ATOM     20  C   UNL d   1      26.191 -10.088  -5.553  0.00  0.00     0.084 A 
ATOM     21  C   UNL d   1      27.242 -10.981  -6.157  0.00  0.00     0.027 A 
ATOM     22  C   UNL d   1      25.910 -10.804  -6.846  0.00  0.00     0.027 A 
ENDBRANCH  18  20
ENDBRANCH  16  18
ENDBRANCH  14  16
ENDBRANCH   3  14
TORSDOF 7
ENDMDL
MODEL 6
REMARK VINA RESULT:    -4.948      4.876      6.278
REMARK INTER + INTRA:          -8.408
REMARK INTER:                  -7.036
REMARK INTRA:                  -1.372
REMARK CONF_INDEPENDENT:        2.088
REMARK UNBOUND:                -1.372
REMARK  7 active torsions:
REMARK  status: ('A' for Active; 'I' for Inactive)
REMARK    1  A    between atoms: C_2  and  C_3 
REMARK       I    between atoms: C_2  and  N_12 
REMARK    2  A    between atoms: C_3  and  O_4 
REMARK    3  A    between atoms: O_4  and  C_5 
REMARK    4  A    between atoms: N_12  and  N_13 
REMARK    5  A    between atoms: N_13  and  C_14 
REMARK    6  A    between atoms: C_14  and  N_16 
REMARK    7  A    between atoms: N_16  and  C_17 
ROOT
ATOM      1  O   UNL d   1      24.793 -14.525  -4.725  0.00  0.00    -0.269 OA
ATOM      2  C   UNL d   1      25.927 -14.761  -4.295  0.00  0.00     0.260 C 
ATOM      3  N   UNL d   1      26.895 -15.139  -5.177  0.00  0.00    -0.266 N 
ATOM      4  H   UNL d   1      26.602 -15.212  -6.156  0.00  0.00     0.190 HD
ENDROOT
BRANCH   2   5
ATOM      5  C   UNL d   1      26.313 -14.643  -2.835  0.00  0.00     0.280 C 
BRANCH   5   6
ATOM      6  O   UNL d   1      27.031 -15.805  -2.433  0.00  0.00    -0.342 OA
BRANCH   6   7
ATOM      7  C   UNL d   1      26.375 -16.635  -1.571  0.00  0.00     0.072 A 
ATOM      8  C   UNL d   1      27.007 -17.390  -0.581  0.00  0.00     0.037 A 
ATOM      9  C   UNL d   1      26.249 -18.174   0.294  0.00  0.00     0.006 A 
ATOM     10  C   UNL d   1      24.860 -18.196   0.185  0.00  0.00     0.042 A 
ATOM     11  C   UNL d   1      24.239 -17.422  -0.788  0.00  0.00     0.119 A 
ATOM     12  F   UNL d   1      22.903 -17.435  -0.885  0.00  0.00    -0.206 F 
ATOM     13  C   UNL d   1      24.982 -16.632  -1.658  0.00  0.00     0.079 A 
ENDBRANCH   6   7
ENDBRANCH   5   6
ENDBRANCH   2   5
BRANCH   3  14
ATOM     14  N   UNL d   1      28.247 -15.456  -4.936  0.00  0.00    -0.274 N 
ATOM     15  H   UNL d   1      28.566 -15.646  -3.995  0.00  0.00     0.189 HD
BRANCH  14  16
ATOM     16  C   UNL d   1      29.074 -15.546  -6.061  0.00  0.00     0.186 C 
ATOM     17  S   UNL d   1      30.218 -16.791  -6.140  0.00  0.00    -0.040 SA
BRANCH  16  18
ATOM     18  N   UNL d   1      28.824 -14.556  -7.014  0.00  0.00    -0.361 N 
ATOM     19  H   UNL d   1      28.815 -14.836  -7.990  0.00  0.00     0.162 HD
BRANCH  18  20
ATOM     20  C   UNL d   1      28.532 -13.147  -6.800  0.00  0.00     0.084 A 
ATOM     21  C   UNL d   1      29.489 -12.068  -7.230  0.00  0.00     0.027 A 
ATOM     22  C   UNL d   1      28.154 -12.214  -7.917  0.00  0.00     0.027 A 
ENDBRANCH  18  20
ENDBRANCH  16  18
ENDBRANCH  14  16
ENDBRANCH   3  14
TORSDOF 7
ENDMDL
MODEL 7
REMARK VINA RESULT:    -4.880      4.774      6.755
REMARK INTER + INTRA:          -8.348
REMARK INTER:                  -6.968
REMARK INTRA:                  -1.379
REMARK CONF_INDEPENDENT:        2.088
REMARK UNBOUND:                -1.379
REMARK  7 active torsions:
REMARK  status: ('A' for Active; 'I' for Inactive)
REMARK    1  A    between atoms: C_2  and  C_3 
REMARK       I    between atoms: C_2  and  N_12 
REMARK    2  A    between atoms: C_3  and  O_4 
REMARK    3  A    between atoms: O_4  and  C_5 
REMARK    4  A    between atoms: N_12  and  N_13 
REMARK    5  A    between atoms: N_13  and  C_14 
REMARK    6  A    between atoms: C_14  and  N_16 
REMARK    7  A    between atoms: N_16  and  C_17 
ROOT
ATOM      1  O   UNL d   1      28.631 -14.839  -2.167  0.00  0.00    -0.269 OA
ATOM      2  C   UNL d   1      28.432 -15.504  -1.144  0.00  0.00     0.260 C 
ATOM      3  N   UNL d   1      28.422 -14.862   0.059  0.00  0.00    -0.266 N 
ATOM      4  H   UNL d   1      28.594 -13.853   0.028  0.00  0.00     0.190 HD
ENDROOT
BRANCH   2   5
ATOM      5  C   UNL d   1      28.185 -16.998  -1.146  0.00  0.00     0.280 C 
BRANCH   5   6
ATOM      6  O   UNL d   1      27.322 -17.344  -0.068  0.00  0.00    -0.342 OA
BRANCH   6   7
ATOM      7  C   UNL d   1      25.987 -17.322  -0.351  0.00  0.00     0.072 A 
ATOM      8  C   UNL d   1      25.332 -16.239  -0.940  0.00  0.00     0.037 A 
ATOM      9  C   UNL d   1      23.970 -16.324  -1.244  0.00  0.00     0.006 A 
ATOM     10  C   UNL d   1      23.266 -17.493  -0.966  0.00  0.00     0.042 A 
ATOM     11  C   UNL d   1      23.932 -18.574  -0.401  0.00  0.00     0.119 A 
ATOM     12  F   UNL d   1      23.256 -19.701  -0.145  0.00  0.00    -0.206 F 
ATOM     13  C   UNL d   1      25.288 -18.504  -0.103  0.00  0.00     0.079 A 
ENDBRANCH   6   7
ENDBRANCH   5   6
ENDBRANCH   2   5
BRANCH   3  14
ATOM     14  N   UNL d   1      28.218 -15.391   1.350  0.00  0.00    -0.274 N 
ATOM     15  H   UNL d   1      28.425 -16.362   1.542  0.00  0.00     0.189 HD
BRANCH  14  16
ATOM     16  C   UNL d   1      27.780 -14.491   2.328  0.00  0.00     0.186 C 
ATOM     17  S   UNL d   1      26.825 -13.173   1.860  0.00  0.00    -0.040 SA
BRANCH  16  18
ATOM     18  N   UNL d   1      28.201 -14.824   3.617  0.00  0.00    -0.361 N 
ATOM     19  H   UNL d   1      28.930 -15.525   3.706  0.00  0.00     0.162 HD
BRANCH  18  20
ATOM     20  C   UNL d   1      27.753 -14.271   4.886  0.00  0.00     0.084 A 
ATOM     21  C   UNL d   1      28.550 -14.450   6.150  0.00  0.00     0.027 A 
ATOM     22  C   UNL d   1      28.408 -13.081   5.531  0.00  0.00     0.027 A 
ENDBRANCH  18  20
ENDBRANCH  16  18
ENDBRANCH  14  16
ENDBRANCH   3  14
TORSDOF 7
ENDMDL
MODEL 8
REMARK VINA RESULT:    -4.815      4.663      6.051
REMARK INTER + INTRA:          -8.631
REMARK INTER:                  -6.903
REMARK INTRA:                  -1.728
REMARK CONF_INDEPENDENT:        2.088
REMARK UNBOUND:                -1.728
REMARK  7 active torsions:
REMARK  status: ('A' for Active; 'I' for Inactive)
REMARK    1  A    between atoms: C_2  and  C_3 
REMARK       I    between atoms: C_2  and  N_12 
REMARK    2  A    between atoms: C_3  and  O_4 
REMARK    3  A    between atoms: O_4  and  C_5 
REMARK    4  A    between atoms: N_12  and  N_13 
REMARK    5  A    between atoms: N_13  and  C_14 
REMARK    6  A    between atoms: C_14  and  N_16 
REMARK    7  A    between atoms: N_16  and  C_17 
ROOT
ATOM      1  O   UNL d   1      26.976 -15.266  -5.746  0.00  0.00    -0.269 OA
ATOM      2  C   UNL d   1      26.463 -14.760  -4.742  0.00  0.00     0.260 C 
ATOM      3  N   UNL d   1      25.921 -13.514  -4.843  0.00  0.00    -0.266 N 
ATOM      4  H   UNL d   1      25.989 -13.072  -5.765  0.00  0.00     0.190 HD
ENDROOT
BRANCH   2   5
ATOM      5  C   UNL d   1      26.389 -15.452  -3.397  0.00  0.00     0.280 C 
BRANCH   5   6
ATOM      6  O   UNL d   1      25.042 -15.455  -2.932  0.00  0.00    -0.342 OA
BRANCH   6   7
ATOM      7  C   UNL d   1      24.791 -16.261  -1.860  0.00  0.00     0.072 A 
ATOM      8  C   UNL d   1      23.534 -16.405  -1.270  0.00  0.00     0.037 A 
ATOM      9  C   UNL d   1      23.356 -17.295  -0.207  0.00  0.00     0.006 A 
ATOM     10  C   UNL d   1      24.433 -18.044   0.263  0.00  0.00     0.042 A 
ATOM     11  C   UNL d   1      25.675 -17.911  -0.347  0.00  0.00     0.119 A 
ATOM     12  F   UNL d   1      26.706 -18.640   0.097  0.00  0.00    -0.206 F 
ATOM     13  C   UNL d   1      25.861 -17.035  -1.411  0.00  0.00     0.079 A 
ENDBRANCH   6   7
ENDBRANCH   5   6
ENDBRANCH   2   5
BRANCH   3  14
ATOM     14  N   UNL d   1      25.285 -12.734  -3.856  0.00  0.00    -0.274 N 
ATOM     15  H   UNL d   1      24.288 -12.569  -3.901  0.00  0.00     0.189 HD
BRANCH  14  16
ATOM     16  C   UNL d   1      26.094 -12.273  -2.812  0.00  0.00     0.186 C 
ATOM     17  S   UNL d   1      26.905 -10.797  -2.996  0.00  0.00    -0.040 SA
BRANCH  16  18
ATOM     18  N   UNL d   1      26.115 -13.126  -1.707  0.00  0.00    -0.361 N 
ATOM     19  H   UNL d   1      25.379 -13.822  -1.637  0.00  0.00     0.162 HD
BRANCH  18  20
ATOM     20  C   UNL d   1      27.088 -13.183  -0.626  0.00  0.00     0.084 A 
ATOM     21  C   UNL d   1      26.663 -13.276   0.815  0.00  0.00     0.027 A 
ATOM     22  C   UNL d   1      27.365 -14.438   0.154  0.00  0.00     0.027 A 
ENDBRANCH  18  20
ENDBRANCH  16  18
ENDBRANCH  14  16
ENDBRANCH   3  14
TORSDOF 7
ENDMDL
MODEL 9
REMARK VINA RESULT:    -4.548      3.971      5.513
REMARK INTER + INTRA:          -8.346
REMARK INTER:                  -6.636
REMARK INTRA:                  -1.710
REMARK CONF_INDEPENDENT:        2.088
REMARK UNBOUND:                -1.710
REMARK  7 active torsions:
REMARK  status: ('A' for Active; 'I' for Inactive)
REMARK    1  A    between atoms: C_2  and  C_3 
REMARK       I    between atoms: C_2  and  N_12 
REMARK    2  A    between atoms: C_3  and  O_4 
REMARK    3  A    between atoms: O_4  and  C_5 
REMARK    4  A    between atoms: N_12  and  N_13 
REMARK    5  A    between atoms: N_13  and  C_14 
REMARK    6  A    between atoms: C_14  and  N_16 
REMARK    7  A    between atoms: N_16  and  C_17 
ROOT
ATOM      1  O   UNL d   1      26.659 -15.572  -4.989  0.00  0.00    -0.269 OA
ATOM      2  C   UNL d   1      26.622 -15.261  -3.793  0.00  0.00     0.260 C 
ATOM      3  N   UNL d   1      27.776 -15.315  -3.068  0.00  0.00    -0.266 N 
ATOM      4  H   UNL d   1      28.607 -15.629  -3.577  0.00  0.00     0.190 HD
ENDROOT
BRANCH   2   5
ATOM      5  C   UNL d   1      25.365 -14.806  -3.081  0.00  0.00     0.280 C 
BRANCH   5   6
ATOM      6  O   UNL d   1      25.521 -14.975  -1.676  0.00  0.00    -0.342 OA
BRANCH   6   7
ATOM      7  C   UNL d   1      25.023 -16.138  -1.164  0.00  0.00     0.072 A 
ATOM      8  C   UNL d   1      25.793 -17.083  -0.483  0.00  0.00     0.037 A 
ATOM      9  C   UNL d   1      25.189 -18.223   0.056  0.00  0.00     0.006 A 
ATOM     10  C   UNL d   1      23.816 -18.414  -0.080  0.00  0.00     0.042 A 
ATOM     11  C   UNL d   1      23.055 -17.456  -0.739  0.00  0.00     0.119 A 
ATOM     12  F   UNL d   1      21.733 -17.635  -0.858  0.00  0.00    -0.206 F 
ATOM     13  C   UNL d   1      23.644 -16.314  -1.270  0.00  0.00     0.079 A 
ENDBRANCH   6   7
ENDBRANCH   5   6
ENDBRANCH   2   5
BRANCH   3  14
ATOM     14  N   UNL d   1      27.989 -15.011  -1.708  0.00  0.00    -0.274 N 
ATOM     15  H   UNL d   1      27.508 -14.232  -1.278  0.00  0.00     0.189 HD
BRANCH  14  16
ATOM     16  C   UNL d   1      28.839 -15.872  -1.006  0.00  0.00     0.186 C 
ATOM     17  S   UNL d   1      29.769 -16.993  -1.871  0.00  0.00    -0.040 SA
BRANCH  16  18
ATOM     18  N   UNL d   1      28.812 -15.673   0.376  0.00  0.00    -0.361 N 
ATOM     19  H   UNL d   1      29.042 -16.464   0.969  0.00  0.00     0.162 HD
BRANCH  18  20
ATOM     20  C   UNL d   1      28.525 -14.448   1.108  0.00  0.00     0.084 A 
ATOM     21  C   UNL d   1      27.116 -14.040   1.442  0.00  0.00     0.027 A 
ATOM     22  C   UNL d   1      28.068 -14.444   2.541  0.00  0.00     0.027 A 
ENDBRANCH  18  20
ENDBRANCH  16  18
ENDBRANCH  14  16
ENDBRANCH   3  14
TORSDOF 7
ENDMDL
