MODEL 1
REMARK VINA RESULT:   -28.687      0.000      0.000
REMARK INTER + INTRA:         -31.115
REMARK INTER:                 -30.179
REMARK INTRA:                  -0.936
REMARK CONF_INDEPENDENT:        1.492
REMARK UNBOUND:                -0.936
REMARK  5 active torsions:
REMARK  status: ('A' for Active; 'I' for Inactive)
REMARK    1  A    between atoms: C_2  and  C_3 
REMARK    2  A    between atoms: C_2  and  C_12 
REMARK    3  A    between atoms: C_3  and  N_4 
REMARK    4  A    between atoms: N_4  and  C_5 
REMARK       I    between atoms: C_12  and  N_14 
REMARK    5  A    between atoms: N_14  and  N_15 
ROOT
ATOM      1  C   UNL d   1      23.467 -16.498  -0.563  0.00  0.00     0.133 C 
ENDROOT
BRANCH   1   2
ATOM      2  C   UNL d   1      23.233 -17.933  -0.082  0.00  0.00     0.093 C 
ATOM      3  C   UNL d   1      24.540 -18.734  -0.147  0.00  0.00     0.021 C 
BRANCH   2   4
ATOM      4  C   UNL d   1      22.170 -18.623  -0.945  0.00  0.00     0.237 C 
ATOM      5  O   UNL d   1      22.435 -19.175  -2.020  0.00  0.00    -0.272 OA
ATOM      6  N   UNL d   1      20.871 -18.610  -0.448  0.00  0.00    -0.294 N 
ATOM      7  H   UNL d   1      20.668 -18.298   0.500  0.00  0.00     0.183 HD
BRANCH   6   8
ATOM      8  N   UNL d   1      19.861 -19.322  -1.144  0.00  0.00    -0.247 NA
ATOM      9  H   UNL d   1      20.330 -19.858  -1.892  0.00  0.00     0.143 HD
ATOM     10  H   UNL d   1      19.271 -18.654  -1.646  0.00  0.00     0.143 HD
ENDBRANCH   6   8
ENDBRANCH   2   4
ENDBRANCH   1   2
BRANCH   1  11
ATOM     11  N   UNL d   1      24.883 -16.124  -0.549  0.00  0.00    -0.389 N 
ATOM     12  H   UNL d   1      25.463 -16.329   0.256  0.00  0.00     0.159 HD
BRANCH  11  13
ATOM     13  C   UNL d   1      25.517 -15.747  -1.722  0.00  0.00     0.028 A 
ATOM     14  C   UNL d   1      26.887 -15.968  -1.881  0.00  0.00     0.030 A 
ATOM     15  C   UNL d   1      27.559 -15.585  -3.040  0.00  0.00     0.021 A 
ATOM     16  C   UNL d   1      26.864 -14.942  -4.054  0.00  0.00     0.011 A 
ATOM     17 BR   UNL d   1      27.785 -14.422  -5.620  0.00  0.00    -0.051 Br
ATOM     18  C   UNL d   1      25.503 -14.684  -3.918  0.00  0.00     0.021 A 
ATOM     19  C   UNL d   1      24.831 -15.089  -2.753  0.00  0.00     0.030 A 
ENDBRANCH  11  13
ENDBRANCH   1  11
TORSDOF 5
ENDMDL
MODEL 2
REMARK VINA RESULT:   -28.665      0.092      1.245
REMARK INTER + INTRA:         -31.097
REMARK INTER:                 -30.156
REMARK INTRA:                  -0.941
REMARK CONF_INDEPENDENT:        1.492
REMARK UNBOUND:                -0.941
REMARK  5 active torsions:
REMARK  status: ('A' for Active; 'I' for Inactive)
REMARK    1  A    between atoms: C_2  and  C_3 
REMARK    2  A    between atoms: C_2  and  C_12 
REMARK    3  A    between atoms: C_3  and  N_4 
REMARK    4  A    between atoms: N_4  and  C_5 
REMARK       I    between atoms: C_12  and  N_14 
REMARK    5  A    between atoms: N_14  and  N_15 
ROOT
ATOM      1  C   UNL d   1      23.433 -16.458  -0.652  0.00  0.00     0.133 C 
ENDROOT
BRANCH   1   2
ATOM      2  C   UNL d   1      23.223 -17.882  -0.128  0.00  0.00     0.093 C 
ATOM      3  C   UNL d   1      24.537 -18.669  -0.188  0.00  0.00     0.021 C 
BRANCH   2   4
ATOM      4  C   UNL d   1      22.157 -18.608  -0.957  0.00  0.00     0.237 C 
ATOM      5  O   UNL d   1      22.417 -19.200  -2.011  0.00  0.00    -0.272 OA
ATOM      6  N   UNL d   1      20.861 -18.580  -0.452  0.00  0.00    -0.294 N 
ATOM      7  H   UNL d   1      20.663 -18.233   0.485  0.00  0.00     0.183 HD
BRANCH   6   8
ATOM      8  N   UNL d   1      19.849 -19.322  -1.113  0.00  0.00    -0.247 NA
ATOM      9  H   UNL d   1      20.315 -19.881  -1.847  0.00  0.00     0.143 HD
ATOM     10  H   UNL d   1      19.250 -18.676  -1.631  0.00  0.00     0.143 HD
ENDBRANCH   6   8
ENDBRANCH   2   4
ENDBRANCH   1   2
BRANCH   1  11
ATOM     11  N   UNL d   1      24.830 -16.028  -0.567  0.00  0.00    -0.389 N 
ATOM     12  H   UNL d   1      25.360 -16.163   0.286  0.00  0.00     0.159 HD
BRANCH  11  13
ATOM     13  C   UNL d   1      25.530 -15.696  -1.715  0.00  0.00     0.028 A 
ATOM     14  C   UNL d   1      24.877 -15.068  -2.779  0.00  0.00     0.030 A 
ATOM     15  C   UNL d   1      25.548 -14.737  -3.955  0.00  0.00     0.021 A 
ATOM     16  C   UNL d   1      26.890 -15.061  -4.093  0.00  0.00     0.011 A 
ATOM     17 BR   UNL d   1      27.789 -14.612  -5.693  0.00  0.00    -0.051 Br
ATOM     18  C   UNL d   1      27.564 -15.710  -3.062  0.00  0.00     0.021 A 
ATOM     19  C   UNL d   1      26.884 -16.025  -1.875  0.00  0.00     0.030 A 
ENDBRANCH  11  13
ENDBRANCH   1  11
TORSDOF 5
ENDMDL
MODEL 3
REMARK VINA RESULT:   -28.601      1.442      1.920
REMARK INTER + INTRA:         -30.933
REMARK INTER:                 -30.093
REMARK INTRA:                  -0.840
REMARK CONF_INDEPENDENT:        1.492
REMARK UNBOUND:                -0.840
REMARK  5 active torsions:
REMARK  status: ('A' for Active; 'I' for Inactive)
REMARK    1  A    between atoms: C_2  and  C_3 
REMARK    2  A    between atoms: C_2  and  C_12 
REMARK    3  A    between atoms: C_3  and  N_4 
REMARK    4  A    between atoms: N_4  and  C_5 
REMARK       I    between atoms: C_12  and  N_14 
REMARK    5  A    between atoms: N_14  and  N_15 
ROOT
ATOM      1  C   UNL d   1      24.103 -18.098   0.222  0.00  0.00     0.133 C 
ENDROOT
BRANCH   1   2
ATOM      2  C   UNL d   1      23.001 -17.763  -0.788  0.00  0.00     0.093 C 
ATOM      3  C   UNL d   1      22.443 -16.360  -0.520  0.00  0.00     0.021 C 
BRANCH   2   4
ATOM      4  C   UNL d   1      21.863 -18.788  -0.701  0.00  0.00     0.237 C 
ATOM      5  O   UNL d   1      21.990 -19.885  -0.146  0.00  0.00    -0.272 OA
ATOM      6  N   UNL d   1      20.653 -18.412  -1.277  0.00  0.00    -0.294 N 
ATOM      7  H   UNL d   1      20.490 -17.460  -1.597  0.00  0.00     0.183 HD
BRANCH   6   8
ATOM      8  N   UNL d   1      19.530 -19.268  -1.138  0.00  0.00    -0.247 NA
ATOM      9  H   UNL d   1      19.893 -20.204  -0.893  0.00  0.00     0.143 HD
ATOM     10  H   UNL d   1      19.098 -19.398  -2.054  0.00  0.00     0.143 HD
ENDBRANCH   6   8
ENDBRANCH   2   4
ENDBRANCH   1   2
BRANCH   1  11
ATOM     11  N   UNL d   1      25.436 -17.730  -0.258  0.00  0.00    -0.389 N 
ATOM     12  H   UNL d   1      26.208 -18.382  -0.188  0.00  0.00     0.159 HD
BRANCH  11  13
ATOM     13  C   UNL d   1      25.606 -16.613  -1.060  0.00  0.00     0.028 A 
ATOM     14  C   UNL d   1      25.350 -16.689  -2.432  0.00  0.00     0.030 A 
ATOM     15  C   UNL d   1      25.529 -15.590  -3.270  0.00  0.00     0.021 A 
ATOM     16  C   UNL d   1      25.998 -14.395  -2.742  0.00  0.00     0.011 A 
ATOM     17 BR   UNL d   1      26.240 -12.912  -3.888  0.00  0.00    -0.051 Br
ATOM     18  C   UNL d   1      26.285 -14.293  -1.384  0.00  0.00     0.021 A 
ATOM     19  C   UNL d   1      26.087 -15.401  -0.545  0.00  0.00     0.030 A 
ENDBRANCH  11  13
ENDBRANCH   1  11
TORSDOF 5
ENDMDL
MODEL 4
REMARK VINA RESULT:   -28.049      2.210      2.692
REMARK INTER + INTRA:         -30.374
REMARK INTER:                 -29.540
REMARK INTRA:                  -0.834
REMARK CONF_INDEPENDENT:        1.492
REMARK UNBOUND:                -0.834
REMARK  5 active torsions:
REMARK  status: ('A' for Active; 'I' for Inactive)
REMARK    1  A    between atoms: C_2  and  C_3 
REMARK    2  A    between atoms: C_2  and  C_12 
REMARK    3  A    between atoms: C_3  and  N_4 
REMARK    4  A    between atoms: N_4  and  C_5 
REMARK       I    between atoms: C_12  and  N_14 
REMARK    5  A    between atoms: N_14  and  N_15 
ROOT
ATOM      1  C   UNL d   1      23.844 -17.078  -1.553  0.00  0.00     0.133 C 
ENDROOT
BRANCH   1   2
ATOM      2  C   UNL d   1      23.069 -17.926  -0.539  0.00  0.00     0.093 C 
ATOM      3  C   UNL d   1      23.614 -19.359  -0.518  0.00  0.00     0.021 C 
BRANCH   2   4
ATOM      4  C   UNL d   1      21.577 -17.955  -0.892  0.00  0.00     0.237 C 
ATOM      5  O   UNL d   1      20.944 -16.941  -1.210  0.00  0.00    -0.272 OA
ATOM      6  N   UNL d   1      20.959 -19.201  -0.850  0.00  0.00    -0.294 N 
ATOM      7  H   UNL d   1      21.499 -20.058  -0.743  0.00  0.00     0.183 HD
BRANCH   6   8
ATOM      8  N   UNL d   1      19.609 -19.314  -1.268  0.00  0.00    -0.247 NA
ATOM      9  H   UNL d   1      19.620 -19.739  -2.210  0.00  0.00     0.143 HD
ATOM     10  H   UNL d   1      19.230 -18.377  -1.420  0.00  0.00     0.143 HD
ENDBRANCH   6   8
ENDBRANCH   2   4
ENDBRANCH   1   2
BRANCH   1  11
ATOM     11  N   UNL d   1      24.748 -16.122  -0.911  0.00  0.00    -0.389 N 
ATOM     12  H   UNL d   1      24.387 -15.410  -0.287  0.00  0.00     0.159 HD
BRANCH  11  13
ATOM     13  C   UNL d   1      26.116 -16.341  -0.917  0.00  0.00     0.028 A 
ATOM     14  C   UNL d   1      26.731 -16.969   0.169  0.00  0.00     0.030 A 
ATOM     15  C   UNL d   1      28.107 -17.188   0.203  0.00  0.00     0.021 A 
ATOM     16  C   UNL d   1      28.897 -16.750  -0.851  0.00  0.00     0.011 A 
ATOM     17 BR   UNL d   1      30.762 -17.048  -0.794  0.00  0.00    -0.051 Br
ATOM     18  C   UNL d   1      28.319 -16.099  -1.938  0.00  0.00     0.021 A 
ATOM     19  C   UNL d   1      26.930 -15.897  -1.970  0.00  0.00     0.030 A 
ENDBRANCH  11  13
ENDBRANCH   1  11
TORSDOF 5
ENDMDL
MODEL 5
REMARK VINA RESULT:   -28.011      2.029      2.603
REMARK INTER + INTRA:         -30.335
REMARK INTER:                 -29.503
REMARK INTRA:                  -0.832
REMARK CONF_INDEPENDENT:        1.492
REMARK UNBOUND:                -0.832
REMARK  5 active torsions:
REMARK  status: ('A' for Active; 'I' for Inactive)
REMARK    1  A    between atoms: C_2  and  C_3 
REMARK    2  A    between atoms: C_2  and  C_12 
REMARK    3  A    between atoms: C_3  and  N_4 
REMARK    4  A    between atoms: N_4  and  C_5 
REMARK       I    between atoms: C_12  and  N_14 
REMARK    5  A    between atoms: N_14  and  N_15 
ROOT
ATOM      1  C   UNL d   1      23.366 -16.659  -0.780  0.00  0.00     0.133 C 
ENDROOT
BRANCH   1   2
ATOM      2  C   UNL d   1      22.957 -17.990  -0.140  0.00  0.00     0.093 C 
ATOM      3  C   UNL d   1      24.178 -18.906   0.008  0.00  0.00     0.021 C 
BRANCH   2   4
ATOM      4  C   UNL d   1      21.894 -18.693  -0.994  0.00  0.00     0.237 C 
ATOM      5  O   UNL d   1      22.170 -19.314  -2.027  0.00  0.00    -0.272 OA
ATOM      6  N   UNL d   1      20.583 -18.607  -0.537  0.00  0.00    -0.294 N 
ATOM      7  H   UNL d   1      20.365 -18.235   0.385  0.00  0.00     0.183 HD
BRANCH   6   8
ATOM      8  N   UNL d   1      19.568 -19.324  -1.221  0.00  0.00    -0.247 NA
ATOM      9  H   UNL d   1      19.973 -19.639  -2.118  0.00  0.00     0.143 HD
ATOM     10  H   UNL d   1      18.829 -18.673  -1.493  0.00  0.00     0.143 HD
ENDBRANCH   6   8
ENDBRANCH   2   4
ENDBRANCH   1   2
BRANCH   1  11
ATOM     11  N   UNL d   1      24.585 -16.774  -1.582  0.00  0.00    -0.389 N 
ATOM     12  H   UNL d   1      24.537 -17.044  -2.558  0.00  0.00     0.159 HD
BRANCH  11  13
ATOM     13  C   UNL d   1      25.780 -16.252  -1.116  0.00  0.00     0.028 A 
ATOM     14  C   UNL d   1      26.565 -15.445  -1.944  0.00  0.00     0.030 A 
ATOM     15  C   UNL d   1      27.781 -14.919  -1.512  0.00  0.00     0.021 A 
ATOM     16  C   UNL d   1      28.245 -15.222  -0.240  0.00  0.00     0.011 A 
ATOM     17 BR   UNL d   1      29.898 -14.507   0.335  0.00  0.00    -0.051 Br
ATOM     18  C   UNL d   1      27.500 -16.042   0.602  0.00  0.00     0.021 A 
ATOM     19  C   UNL d   1      26.269 -16.554   0.164  0.00  0.00     0.030 A 
ENDBRANCH  11  13
ENDBRANCH   1  11
TORSDOF 5
ENDMDL
MODEL 6
REMARK VINA RESULT:   -28.009      1.285      1.341
REMARK INTER + INTRA:         -30.788
REMARK INTER:                 -29.500
REMARK INTRA:                  -1.288
REMARK CONF_INDEPENDENT:        1.492
REMARK UNBOUND:                -1.288
REMARK  5 active torsions:
REMARK  status: ('A' for Active; 'I' for Inactive)
REMARK    1  A    between atoms: C_2  and  C_3 
REMARK    2  A    between atoms: C_2  and  C_12 
REMARK    3  A    between atoms: C_3  and  N_4 
REMARK    4  A    between atoms: N_4  and  C_5 
REMARK       I    between atoms: C_12  and  N_14 
REMARK    5  A    between atoms: N_14  and  N_15 
ROOT
ATOM      1  C   UNL d   1      24.300 -17.400  -1.479  0.00  0.00     0.133 C 
ENDROOT
BRANCH   1   2
ATOM      2  C   UNL d   1      23.421 -17.919  -0.337  0.00  0.00     0.093 C 
ATOM      3  C   UNL d   1      23.631 -19.426  -0.148  0.00  0.00     0.021 C 
BRANCH   2   4
ATOM      4  C   UNL d   1      21.941 -17.646  -0.632  0.00  0.00     0.237 C 
ATOM      5  O   UNL d   1      21.517 -16.529  -0.954  0.00  0.00    -0.272 OA
ATOM      6  N   UNL d   1      21.082 -18.736  -0.532  0.00  0.00    -0.294 N 
ATOM      7  H   UNL d   1      21.438 -19.684  -0.422  0.00  0.00     0.183 HD
BRANCH   6   8
ATOM      8  N   UNL d   1      19.721 -18.575  -0.896  0.00  0.00    -0.247 NA
ATOM      9  H   UNL d   1      19.509 -19.301  -1.600  0.00  0.00     0.143 HD
ATOM     10  H   UNL d   1      19.616 -17.694  -1.402  0.00  0.00     0.143 HD
ENDBRANCH   6   8
ENDBRANCH   2   4
ENDBRANCH   1   2
BRANCH   1  11
ATOM     11  N   UNL d   1      24.044 -15.992  -1.789  0.00  0.00    -0.389 N 
ATOM     12  H   UNL d   1      23.395 -15.450  -1.230  0.00  0.00     0.159 HD
BRANCH  11  13
ATOM     13  C   UNL d   1      24.878 -15.305  -2.656  0.00  0.00     0.028 A 
ATOM     14  C   UNL d   1      26.198 -15.722  -2.841  0.00  0.00     0.030 A 
ATOM     15  C   UNL d   1      27.067 -15.043  -3.691  0.00  0.00     0.021 A 
ATOM     16  C   UNL d   1      26.628 -13.906  -4.355  0.00  0.00     0.011 A 
ATOM     17 BR   UNL d   1      27.815 -12.989  -5.504  0.00  0.00    -0.051 Br
ATOM     18  C   UNL d   1      25.325 -13.448  -4.175  0.00  0.00     0.021 A 
ATOM     19  C   UNL d   1      24.452 -14.149  -3.328  0.00  0.00     0.030 A 
ENDBRANCH  11  13
ENDBRANCH   1  11
TORSDOF 5
ENDMDL
