MODEL 1
REMARK VINA RESULT:    -8.080      0.000      0.000
REMARK INTER + INTRA:          -9.763
REMARK INTER:                  -8.975
REMARK INTRA:                  -0.788
REMARK CONF_INDEPENDENT:        0.895
REMARK UNBOUND:                -0.788
REMARK  3 active torsions:
REMARK  status: ('A' for Active; 'I' for Inactive)
REMARK       I    between atoms: C_2  and  N_3 
REMARK    1  A    between atoms: C_2  and  C_11 
REMARK    2  A    between atoms: N_3  and  C_4 
REMARK    3  A    between atoms: C_17  and  O_18 
ROOT
ATOM      1  O   UNL d   1      21.267 -17.566  -0.889  0.00  0.00    -0.267 OA
ATOM      2  C   UNL d   1      21.633 -18.565  -0.269  0.00  0.00     0.259 C 
ATOM      3  N   UNL d   1      22.962 -18.913  -0.039  0.00  0.00    -0.323 N 
ATOM      4  H   UNL d   1      23.164 -19.860   0.259  0.00  0.00     0.169 HD
ENDROOT
BRANCH   2   5
ATOM      5  C   UNL d   1      20.589 -19.479   0.281  0.00  0.00     0.067 A 
ATOM      6  C   UNL d   1      20.597 -19.775   1.651  0.00  0.00     0.043 A 
ATOM      7  C   UNL d   1      19.533 -20.489   2.211  0.00  0.00     0.035 A 
ATOM      8 CL   UNL d   1      19.528 -20.825   3.899  0.00  0.00    -0.084 Cl
ATOM      9  C   UNL d   1      18.461 -20.914   1.428  0.00  0.00     0.026 A 
ATOM     10  C   UNL d   1      18.452 -20.636   0.062  0.00  0.00     0.039 A 
ATOM     11  C   UNL d   1      19.514 -19.927  -0.509  0.00  0.00     0.081 A 
BRANCH  11  12
ATOM     12  O   UNL d   1      19.503 -19.700  -1.857  0.00  0.00    -0.360 OA
ATOM     13  H   UNL d   1      20.149 -19.013  -2.086  0.00  0.00     0.217 HD
ENDBRANCH  11  12
ENDBRANCH   2   5
BRANCH   3  14
ATOM     14  C   UNL d   1      24.055 -18.128  -0.485  0.00  0.00     0.035 A 
ATOM     15  C   UNL d   1      25.284 -18.130   0.190  0.00  0.00     0.032 A 
ATOM     16  C   UNL d   1      26.362 -17.375  -0.285  0.00  0.00     0.044 A 
ATOM     17  C   UNL d   1      26.204 -16.596  -1.422  0.00  0.00     0.116 A 
ATOM     18  F   UNL d   1      27.234 -15.868  -1.875  0.00  0.00    -0.206 F 
ATOM     19  C   UNL d   1      24.991 -16.568  -2.100  0.00  0.00     0.044 A 
ATOM     20  C   UNL d   1      23.920 -17.350  -1.643  0.00  0.00     0.032 A 
ENDBRANCH   3  14
TORSDOF 3
ENDMDL
MODEL 2
REMARK VINA RESULT:    -7.402      3.992      7.093
REMARK INTER + INTRA:          -9.195
REMARK INTER:                  -8.297
REMARK INTRA:                  -0.898
REMARK CONF_INDEPENDENT:        0.895
REMARK UNBOUND:                -0.898
REMARK  3 active torsions:
REMARK  status: ('A' for Active; 'I' for Inactive)
REMARK       I    between atoms: C_2  and  N_3 
REMARK    1  A    between atoms: C_2  and  C_11 
REMARK    2  A    between atoms: N_3  and  C_4 
REMARK    3  A    between atoms: C_17  and  O_18 
ROOT
ATOM      1  O   UNL d   1      21.466 -16.928  -0.895  0.00  0.00    -0.267 OA
ATOM      2  C   UNL d   1      22.394 -17.640  -0.507  0.00  0.00     0.259 C 
ATOM      3  N   UNL d   1      22.237 -18.844   0.176  0.00  0.00    -0.323 N 
ATOM      4  H   UNL d   1      23.039 -19.227   0.661  0.00  0.00     0.169 HD
ENDROOT
BRANCH   2   5
ATOM      5  C   UNL d   1      23.791 -17.194  -0.779  0.00  0.00     0.067 A 
ATOM      6  C   UNL d   1      24.017 -16.232  -1.772  0.00  0.00     0.043 A 
ATOM      7  C   UNL d   1      25.293 -15.680  -1.925  0.00  0.00     0.035 A 
ATOM      8 CL   UNL d   1      25.563 -14.475  -3.124  0.00  0.00    -0.084 Cl
ATOM      9  C   UNL d   1      26.349 -16.072  -1.103  0.00  0.00     0.026 A 
ATOM     10  C   UNL d   1      26.136 -17.039  -0.121  0.00  0.00     0.039 A 
ATOM     11  C   UNL d   1      24.864 -17.601   0.035  0.00  0.00     0.081 A 
BRANCH  11  12
ATOM     12  O   UNL d   1      24.689 -18.575   0.978  0.00  0.00    -0.360 OA
ATOM     13  H   UNL d   1      25.434 -18.575   1.601  0.00  0.00     0.217 HD
ENDBRANCH  11  12
ENDBRANCH   2   5
BRANCH   3  14
ATOM     14  C   UNL d   1      20.968 -19.399   0.483  0.00  0.00     0.035 A 
ATOM     15  C   UNL d   1      20.111 -19.871  -0.520  0.00  0.00     0.032 A 
ATOM     16  C   UNL d   1      18.878 -20.447  -0.195  0.00  0.00     0.044 A 
ATOM     17  C   UNL d   1      18.490 -20.528   1.134  0.00  0.00     0.116 A 
ATOM     18  F   UNL d   1      17.306 -21.074   1.447  0.00  0.00    -0.206 F 
ATOM     19  C   UNL d   1      19.318 -20.054   2.145  0.00  0.00     0.044 A 
ATOM     20  C   UNL d   1      20.569 -19.507   1.822  0.00  0.00     0.032 A 
ENDBRANCH   3  14
TORSDOF 3
ENDMDL
MODEL 3
REMARK VINA RESULT:    -7.277      3.654      6.834
REMARK INTER + INTRA:          -9.026
REMARK INTER:                  -8.172
REMARK INTRA:                  -0.854
REMARK CONF_INDEPENDENT:        0.895
REMARK UNBOUND:                -0.854
REMARK  3 active torsions:
REMARK  status: ('A' for Active; 'I' for Inactive)
REMARK       I    between atoms: C_2  and  N_3 
REMARK    1  A    between atoms: C_2  and  C_11 
REMARK    2  A    between atoms: N_3  and  C_4 
REMARK    3  A    between atoms: C_17  and  O_18 
ROOT
ATOM      1  O   UNL d   1      21.038 -17.348  -0.976  0.00  0.00    -0.267 OA
ATOM      2  C   UNL d   1      21.954 -17.884  -0.349  0.00  0.00     0.259 C 
ATOM      3  N   UNL d   1      21.802 -18.983   0.492  0.00  0.00    -0.323 N 
ATOM      4  H   UNL d   1      22.549 -19.195   1.142  0.00  0.00     0.169 HD
ENDROOT
BRANCH   2   5
ATOM      5  C   UNL d   1      23.331 -17.325  -0.491  0.00  0.00     0.067 A 
ATOM      6  C   UNL d   1      24.419 -18.070  -0.020  0.00  0.00     0.043 A 
ATOM      7  C   UNL d   1      25.722 -17.642  -0.294  0.00  0.00     0.035 A 
ATOM      8 CL   UNL d   1      27.060 -18.574   0.258  0.00  0.00    -0.084 Cl
ATOM      9  C   UNL d   1      25.958 -16.482  -1.031  0.00  0.00     0.026 A 
ATOM     10  C   UNL d   1      24.880 -15.727  -1.492  0.00  0.00     0.039 A 
ATOM     11  C   UNL d   1      23.573 -16.144  -1.217  0.00  0.00     0.081 A 
BRANCH  11  12
ATOM     12  O   UNL d   1      22.533 -15.367  -1.645  0.00  0.00    -0.360 OA
ATOM     13  H   UNL d   1      21.710 -15.883  -1.649  0.00  0.00     0.217 HD
ENDBRANCH  11  12
ENDBRANCH   2   5
BRANCH   3  14
ATOM     14  C   UNL d   1      20.557 -19.629   0.703  0.00  0.00     0.035 A 
ATOM     15  C   UNL d   1      19.699 -19.935  -0.362  0.00  0.00     0.032 A 
ATOM     16  C   UNL d   1      18.490 -20.603  -0.137  0.00  0.00     0.044 A 
ATOM     17  C   UNL d   1      18.127 -20.944   1.158  0.00  0.00     0.116 A 
ATOM     18  F   UNL d   1      16.967 -21.579   1.375  0.00  0.00    -0.206 F 
ATOM     19  C   UNL d   1      18.956 -20.639   2.231  0.00  0.00     0.044 A 
ATOM     20  C   UNL d   1      20.184 -19.998   2.002  0.00  0.00     0.032 A 
ENDBRANCH   3  14
TORSDOF 3
ENDMDL
MODEL 4
REMARK VINA RESULT:    -6.226      5.654      8.945
REMARK INTER + INTRA:          -7.884
REMARK INTER:                  -7.121
REMARK INTRA:                  -0.763
REMARK CONF_INDEPENDENT:        0.895
REMARK UNBOUND:                -0.763
REMARK  3 active torsions:
REMARK  status: ('A' for Active; 'I' for Inactive)
REMARK       I    between atoms: C_2  and  N_3 
REMARK    1  A    between atoms: C_2  and  C_11 
REMARK    2  A    between atoms: N_3  and  C_4 
REMARK    3  A    between atoms: C_17  and  O_18 
ROOT
ATOM      1  O   UNL d   1      24.404 -14.450  -3.833  0.00  0.00    -0.267 OA
ATOM      2  C   UNL d   1      25.576 -14.790  -3.660  0.00  0.00     0.259 C 
ATOM      3  N   UNL d   1      26.002 -15.706  -2.701  0.00  0.00    -0.323 N 
ATOM      4  H   UNL d   1      26.988 -15.735  -2.473  0.00  0.00     0.169 HD
ENDROOT
BRANCH   2   5
ATOM      5  C   UNL d   1      26.625 -14.184  -4.531  0.00  0.00     0.067 A 
ATOM      6  C   UNL d   1      27.671 -14.991  -4.998  0.00  0.00     0.043 A 
ATOM      7  C   UNL d   1      28.565 -14.487  -5.947  0.00  0.00     0.035 A 
ATOM      8 CL   UNL d   1      29.831 -15.488  -6.544  0.00  0.00    -0.084 Cl
ATOM      9  C   UNL d   1      28.434 -13.188  -6.440  0.00  0.00     0.026 A 
ATOM     10  C   UNL d   1      27.403 -12.374  -5.971  0.00  0.00     0.039 A 
ATOM     11  C   UNL d   1      26.508 -12.869  -5.016  0.00  0.00     0.081 A 
BRANCH  11  12
ATOM     12  O   UNL d   1      25.530 -12.039  -4.542  0.00  0.00    -0.360 OA
ATOM     13  H   UNL d   1      24.660 -12.456  -4.644  0.00  0.00     0.217 HD
ENDBRANCH  11  12
ENDBRANCH   2   5
BRANCH   3  14
ATOM     14  C   UNL d   1      25.113 -16.374  -1.820  0.00  0.00     0.035 A 
ATOM     15  C   UNL d   1      23.792 -15.941  -1.645  0.00  0.00     0.032 A 
ATOM     16  C   UNL d   1      22.919 -16.634  -0.798  0.00  0.00     0.044 A 
ATOM     17  C   UNL d   1      23.376 -17.745  -0.105  0.00  0.00     0.116 A 
ATOM     18  F   UNL d   1      22.544 -18.405   0.712  0.00  0.00    -0.206 F 
ATOM     19  C   UNL d   1      24.687 -18.184  -0.253  0.00  0.00     0.044 A 
ATOM     20  C   UNL d   1      25.552 -17.510  -1.127  0.00  0.00     0.032 A 
ENDBRANCH   3  14
TORSDOF 3
ENDMDL
MODEL 5
REMARK VINA RESULT:    -6.078      4.566      6.636
REMARK INTER + INTRA:          -7.795
REMARK INTER:                  -6.973
REMARK INTRA:                  -0.822
REMARK CONF_INDEPENDENT:        0.895
REMARK UNBOUND:                -0.822
REMARK  3 active torsions:
REMARK  status: ('A' for Active; 'I' for Inactive)
REMARK       I    between atoms: C_2  and  N_3 
REMARK    1  A    between atoms: C_2  and  C_11 
REMARK    2  A    between atoms: N_3  and  C_4 
REMARK    3  A    between atoms: C_17  and  O_18 
ROOT
ATOM      1  O   UNL d   1      24.780 -14.825  -3.484  0.00  0.00    -0.267 OA
ATOM      2  C   UNL d   1      25.674 -15.512  -2.987  0.00  0.00     0.259 C 
ATOM      3  N   UNL d   1      26.984 -15.569  -3.457  0.00  0.00    -0.323 N 
ATOM      4  H   UNL d   1      27.571 -16.332  -3.144  0.00  0.00     0.169 HD
ENDROOT
BRANCH   2   5
ATOM      5  C   UNL d   1      25.345 -16.349  -1.797  0.00  0.00     0.067 A 
ATOM      6  C   UNL d   1      24.038 -16.832  -1.645  0.00  0.00     0.043 A 
ATOM      7  C   UNL d   1      23.754 -17.753  -0.632  0.00  0.00     0.035 A 
ATOM      8 CL   UNL d   1      22.156 -18.371  -0.465  0.00  0.00    -0.084 Cl
ATOM      9  C   UNL d   1      24.751 -18.200   0.235  0.00  0.00     0.026 A 
ATOM     10  C   UNL d   1      26.051 -17.714   0.099  0.00  0.00     0.039 A 
ATOM     11  C   UNL d   1      26.344 -16.788  -0.908  0.00  0.00     0.081 A 
BRANCH  11  12
ATOM     12  O   UNL d   1      27.616 -16.296  -0.997  0.00  0.00    -0.360 OA
ATOM     13  H   UNL d   1      28.164 -16.655  -0.280  0.00  0.00     0.217 HD
ENDBRANCH  11  12
ENDBRANCH   2   5
BRANCH   3  14
ATOM     14  C   UNL d   1      27.442 -14.812  -4.565  0.00  0.00     0.035 A 
ATOM     15  C   UNL d   1      26.939 -13.532  -4.837  0.00  0.00     0.032 A 
ATOM     16  C   UNL d   1      27.429 -12.786  -5.915  0.00  0.00     0.044 A 
ATOM     17  C   UNL d   1      28.404 -13.330  -6.738  0.00  0.00     0.116 A 
ATOM     18  F   UNL d   1      28.869 -12.619  -7.774  0.00  0.00    -0.206 F 
ATOM     19  C   UNL d   1      28.907 -14.602  -6.495  0.00  0.00     0.044 A 
ATOM     20  C   UNL d   1      28.441 -15.338  -5.395  0.00  0.00     0.032 A 
ENDBRANCH   3  14
TORSDOF 3
ENDMDL
MODEL 6
REMARK VINA RESULT:    -5.982      5.899      9.109
REMARK INTER + INTRA:          -7.659
REMARK INTER:                  -6.877
REMARK INTRA:                  -0.782
REMARK CONF_INDEPENDENT:        0.895
REMARK UNBOUND:                -0.782
REMARK  3 active torsions:
REMARK  status: ('A' for Active; 'I' for Inactive)
REMARK       I    between atoms: C_2  and  N_3 
REMARK    1  A    between atoms: C_2  and  C_11 
REMARK    2  A    between atoms: N_3  and  C_4 
REMARK    3  A    between atoms: C_17  and  O_18 
ROOT
ATOM      1  O   UNL d   1      24.406 -14.153  -3.538  0.00  0.00    -0.267 OA
ATOM      2  C   UNL d   1      25.578 -14.445  -3.783  0.00  0.00     0.259 C 
ATOM      3  N   UNL d   1      26.311 -15.419  -3.109  0.00  0.00    -0.323 N 
ATOM      4  H   UNL d   1      27.318 -15.417  -3.212  0.00  0.00     0.169 HD
ENDROOT
BRANCH   2   5
ATOM      5  C   UNL d   1      26.276 -13.710  -4.879  0.00  0.00     0.067 A 
ATOM      6  C   UNL d   1      25.918 -12.382  -5.142  0.00  0.00     0.043 A 
ATOM      7  C   UNL d   1      26.673 -11.627  -6.046  0.00  0.00     0.035 A 
ATOM      8 CL   UNL d   1      26.253  -9.986  -6.346  0.00  0.00    -0.084 Cl
ATOM      9  C   UNL d   1      27.780 -12.176  -6.693  0.00  0.00     0.026 A 
ATOM     10  C   UNL d   1      28.135 -13.502  -6.446  0.00  0.00     0.039 A 
ATOM     11  C   UNL d   1      27.382 -14.266  -5.548  0.00  0.00     0.081 A 
BRANCH  11  12
ATOM     12  O   UNL d   1      27.725 -15.575  -5.352  0.00  0.00    -0.360 OA
ATOM     13  H   UNL d   1      28.617 -15.634  -4.974  0.00  0.00     0.217 HD
ENDBRANCH  11  12
ENDBRANCH   2   5
BRANCH   3  14
ATOM     14  C   UNL d   1      25.769 -16.208  -2.062  0.00  0.00     0.035 A 
ATOM     15  C   UNL d   1      24.405 -16.528  -2.015  0.00  0.00     0.032 A 
ATOM     16  C   UNL d   1      23.895 -17.336  -0.993  0.00  0.00     0.044 A 
ATOM     17  C   UNL d   1      24.745 -17.805  -0.003  0.00  0.00     0.116 A 
ATOM     18  F   UNL d   1      24.257 -18.575   0.980  0.00  0.00    -0.206 F 
ATOM     19  C   UNL d   1      26.099 -17.490  -0.022  0.00  0.00     0.044 A 
ATOM     20  C   UNL d   1      26.617 -16.707  -1.064  0.00  0.00     0.032 A 
ENDBRANCH   3  14
TORSDOF 3
ENDMDL
MODEL 7
REMARK VINA RESULT:    -5.741      5.067      7.311
REMARK INTER + INTRA:          -7.544
REMARK INTER:                  -6.636
REMARK INTRA:                  -0.908
REMARK CONF_INDEPENDENT:        0.895
REMARK UNBOUND:                -0.908
REMARK  3 active torsions:
REMARK  status: ('A' for Active; 'I' for Inactive)
REMARK       I    between atoms: C_2  and  N_3 
REMARK    1  A    between atoms: C_2  and  C_11 
REMARK    2  A    between atoms: N_3  and  C_4 
REMARK    3  A    between atoms: C_17  and  O_18 
ROOT
ATOM      1  O   UNL d   1      24.781 -14.825  -4.008  0.00  0.00    -0.267 OA
ATOM      2  C   UNL d   1      25.417 -14.587  -2.979  0.00  0.00     0.259 C 
ATOM      3  N   UNL d   1      26.120 -13.411  -2.736  0.00  0.00    -0.323 N 
ATOM      4  H   UNL d   1      26.800 -13.406  -1.986  0.00  0.00     0.169 HD
ENDROOT
BRANCH   2   5
ATOM      5  C   UNL d   1      25.445 -15.626  -1.908  0.00  0.00     0.067 A 
ATOM      6  C   UNL d   1      24.283 -16.364  -1.645  0.00  0.00     0.043 A 
ATOM      7  C   UNL d   1      24.336 -17.451  -0.768  0.00  0.00     0.035 A 
ATOM      8 CL   UNL d   1      22.917 -18.377  -0.469  0.00  0.00    -0.084 Cl
ATOM      9  C   UNL d   1      25.531 -17.816  -0.146  0.00  0.00     0.026 A 
ATOM     10  C   UNL d   1      26.689 -17.079  -0.392  0.00  0.00     0.039 A 
ATOM     11  C   UNL d   1      26.643 -15.986  -1.265  0.00  0.00     0.081 A 
BRANCH  11  12
ATOM     12  O   UNL d   1      27.781 -15.254  -1.460  0.00  0.00    -0.360 OA
ATOM     13  H   UNL d   1      28.408 -15.412  -0.735  0.00  0.00     0.217 HD
ENDBRANCH  11  12
ENDBRANCH   2   5
BRANCH   3  14
ATOM     14  C   UNL d   1      26.163 -12.331  -3.655  0.00  0.00     0.035 A 
ATOM     15  C   UNL d   1      26.466 -12.532  -5.009  0.00  0.00     0.032 A 
ATOM     16  C   UNL d   1      26.469 -11.459  -5.907  0.00  0.00     0.044 A 
ATOM     17  C   UNL d   1      26.195 -10.180  -5.447  0.00  0.00     0.116 A 
ATOM     18  F   UNL d   1      26.204  -9.150  -6.306  0.00  0.00    -0.206 F 
ATOM     19  C   UNL d   1      25.905  -9.955  -4.107  0.00  0.00     0.044 A 
ATOM     20  C   UNL d   1      25.869 -11.035  -3.211  0.00  0.00     0.032 A 
ENDBRANCH   3  14
TORSDOF 3
ENDMDL
MODEL 8
REMARK VINA RESULT:    -5.703      7.019      9.086
REMARK INTER + INTRA:          -7.360
REMARK INTER:                  -6.598
REMARK INTRA:                  -0.762
REMARK CONF_INDEPENDENT:        0.895
REMARK UNBOUND:                -0.762
REMARK  3 active torsions:
REMARK  status: ('A' for Active; 'I' for Inactive)
REMARK       I    between atoms: C_2  and  N_3 
REMARK    1  A    between atoms: C_2  and  C_11 
REMARK    2  A    between atoms: N_3  and  C_4 
REMARK    3  A    between atoms: C_17  and  O_18 
ROOT
ATOM      1  O   UNL d   1      26.806 -13.449   2.070  0.00  0.00    -0.267 OA
ATOM      2  C   UNL d   1      27.537 -14.441   2.074  0.00  0.00     0.259 C 
ATOM      3  N   UNL d   1      28.347 -14.825   3.140  0.00  0.00    -0.323 N 
ATOM      4  H   UNL d   1      29.082 -15.498   2.964  0.00  0.00     0.169 HD
ENDROOT
BRANCH   2   5
ATOM      5  C   UNL d   1      27.568 -15.303   0.856  0.00  0.00     0.067 A 
ATOM      6  C   UNL d   1      26.375 -15.545   0.163  0.00  0.00     0.043 A 
ATOM      7  C   UNL d   1      26.411 -16.207  -1.068  0.00  0.00     0.035 A 
ATOM      8 CL   UNL d   1      24.948 -16.477  -1.934  0.00  0.00    -0.084 Cl
ATOM      9  C   UNL d   1      27.618 -16.631  -1.622  0.00  0.00     0.026 A 
ATOM     10  C   UNL d   1      28.809 -16.406  -0.933  0.00  0.00     0.039 A 
ATOM     11  C   UNL d   1      28.783 -15.750   0.303  0.00  0.00     0.081 A 
BRANCH  11  12
ATOM     12  O   UNL d   1      29.958 -15.575   0.979  0.00  0.00    -0.360 OA
ATOM     13  H   UNL d   1      30.032 -16.227   1.695  0.00  0.00     0.217 HD
ENDBRANCH  11  12
ENDBRANCH   2   5
BRANCH   3  14
ATOM     14  C   UNL d   1      28.402 -14.113   4.366  0.00  0.00     0.035 A 
ATOM     15  C   UNL d   1      27.994 -12.775   4.455  0.00  0.00     0.032 A 
ATOM     16  C   UNL d   1      28.022 -12.099   5.680  0.00  0.00     0.044 A 
ATOM     17  C   UNL d   1      28.483 -12.754   6.813  0.00  0.00     0.116 A 
ATOM     18  F   UNL d   1      28.516 -12.107   7.986  0.00  0.00    -0.206 F 
ATOM     19  C   UNL d   1      28.905 -14.077   6.745  0.00  0.00     0.044 A 
ATOM     20  C   UNL d   1      28.846 -14.765   5.523  0.00  0.00     0.032 A 
ENDBRANCH   3  14
TORSDOF 3
ENDMDL
MODEL 9
REMARK VINA RESULT:    -5.539      6.406      9.552
REMARK INTER + INTRA:          -7.353
REMARK INTER:                  -6.434
REMARK INTRA:                  -0.919
REMARK CONF_INDEPENDENT:        0.895
REMARK UNBOUND:                -0.919
REMARK  3 active torsions:
REMARK  status: ('A' for Active; 'I' for Inactive)
REMARK       I    between atoms: C_2  and  N_3 
REMARK    1  A    between atoms: C_2  and  C_11 
REMARK    2  A    between atoms: N_3  and  C_4 
REMARK    3  A    between atoms: C_17  and  O_18 
ROOT
ATOM      1  O   UNL d   1      26.634 -15.629  -4.967  0.00  0.00    -0.267 OA
ATOM      2  C   UNL d   1      26.499 -14.540  -4.407  0.00  0.00     0.259 C 
ATOM      3  N   UNL d   1      26.066 -14.372  -3.094  0.00  0.00    -0.323 N 
ATOM      4  H   UNL d   1      25.755 -13.452  -2.807  0.00  0.00     0.169 HD
ENDROOT
BRANCH   2   5
ATOM      5  C   UNL d   1      26.817 -13.303  -5.178  0.00  0.00     0.067 A 
ATOM      6  C   UNL d   1      27.780 -13.363  -6.193  0.00  0.00     0.043 A 
ATOM      7  C   UNL d   1      27.969 -12.262  -7.035  0.00  0.00     0.035 A 
ATOM      8 CL   UNL d   1      29.131 -12.347  -8.302  0.00  0.00    -0.084 Cl
ATOM      9  C   UNL d   1      27.212 -11.101  -6.882  0.00  0.00     0.026 A 
ATOM     10  C   UNL d   1      26.260 -11.028  -5.866  0.00  0.00     0.039 A 
ATOM     11  C   UNL d   1      26.068 -12.122  -5.014  0.00  0.00     0.081 A 
BRANCH  11  12
ATOM     12  O   UNL d   1      25.158 -12.013  -4.001  0.00  0.00    -0.360 OA
ATOM     13  H   UNL d   1      24.430 -11.429  -4.267  0.00  0.00     0.217 HD
ENDBRANCH  11  12
ENDBRANCH   2   5
BRANCH   3  14
ATOM     14  C   UNL d   1      25.749 -15.458  -2.238  0.00  0.00     0.035 A 
ATOM     15  C   UNL d   1      26.748 -16.192  -1.584  0.00  0.00     0.032 A 
ATOM     16  C   UNL d   1      26.414 -17.238  -0.717  0.00  0.00     0.044 A 
ATOM     17  C   UNL d   1      25.081 -17.569  -0.524  0.00  0.00     0.116 A 
ATOM     18  F   UNL d   1      24.761 -18.575   0.302  0.00  0.00    -0.206 F 
ATOM     19  C   UNL d   1      24.075 -16.864  -1.173  0.00  0.00     0.044 A 
ATOM     20  C   UNL d   1      24.407 -15.793  -2.016  0.00  0.00     0.032 A 
ENDBRANCH   3  14
TORSDOF 3
ENDMDL
