MODEL 1
REMARK VINA RESULT:    -9.511      0.000      0.000
REMARK INTER + INTRA:         -14.749
REMARK INTER:                 -12.196
REMARK INTRA:                  -2.553
REMARK CONF_INDEPENDENT:        2.685
REMARK UNBOUND:                -2.553
REMARK  9 active torsions:
REMARK  status: ('A' for Active; 'I' for Inactive)
REMARK    1  A    between atoms: C_2  and  C_3 
REMARK       I    between atoms: C_2  and  N_21 
REMARK    2  A    between atoms: C_3  and  N_4 
REMARK    3  A    between atoms: N_4  and  C_5 
REMARK    4  A    between atoms: C_10  and  C_11 
REMARK       I    between atoms: C_11  and  N_13 
REMARK    5  A    between atoms: N_13  and  C_14 
REMARK    6  A    between atoms: N_21  and  C_22 
REMARK    7  A    between atoms: C_26  and  C_27 
REMARK       I    between atoms: C_27  and  N_29 
REMARK    8  A    between atoms: N_29  and  C_30 
REMARK    9  A    between atoms: C_31  and  C_30 
ROOT
ATOM      1  O   UNL d   1      27.025 -15.070  -5.764  0.00  0.00    -0.271 OA
ATOM      2  C   UNL d   1      26.733 -15.119  -4.566  0.00  0.00     0.239 C 
ATOM      3  N   UNL d   1      27.609 -15.735  -3.685  0.00  0.00    -0.326 N 
ATOM      4  H   UNL d   1      28.508 -15.979  -4.091  0.00  0.00     0.169 HD
ENDROOT
BRANCH   2   5
ATOM      5  C   UNL d   1      25.455 -14.451  -4.001  0.00  0.00     0.223 C 
BRANCH   5   6
ATOM      6  N   UNL d   1      25.535 -12.979  -3.973  0.00  0.00    -0.381 N 
ATOM      7  H   UNL d   1      24.669 -12.527  -4.259  0.00  0.00     0.160 HD
BRANCH   6   8
ATOM      8  C   UNL d   1      26.226 -12.421  -2.887  0.00  0.00     0.029 A 
ATOM      9  C   UNL d   1      26.886 -11.203  -3.052  0.00  0.00     0.031 A 
ATOM     10  C   UNL d   1      27.585 -10.610  -2.003  0.00  0.00     0.027 A 
ATOM     11  C   UNL d   1      27.671 -11.231  -0.755  0.00  0.00     0.049 A 
ATOM     12 CL   UNL d   1      28.612 -10.361   0.411  0.00  0.00    -0.083 Cl
ATOM     13  C   UNL d   1      27.028 -12.461  -0.536  0.00  0.00     0.055 A 
ATOM     14  C   UNL d   1      26.313 -13.045  -1.626  0.00  0.00     0.048 A 
BRANCH  13  15
ATOM     15  C   UNL d   1      27.026 -13.206   0.780  0.00  0.00     0.253 C 
ATOM     16  O   UNL d   1      25.981 -13.700   1.198  0.00  0.00    -0.268 OA
ATOM     17  N   UNL d   1      28.212 -13.306   1.486  0.00  0.00    -0.352 N 
ATOM     18  H   UNL d   1      29.058 -12.944   1.065  0.00  0.00     0.163 HD
BRANCH  17  19
ATOM     19  C   UNL d   1      28.366 -14.045   2.735  0.00  0.00     0.084 C 
ATOM     20  C   UNL d   1      29.782 -13.875   3.298  0.00  0.00     0.025 C 
ATOM     21  C   UNL d   1      29.953 -14.603   4.629  0.00  0.00     0.002 C 
ATOM     22  C   UNL d   1      28.918 -14.152   5.652  0.00  0.00     0.000 C 
ATOM     23  C   UNL d   1      27.504 -14.323   5.107  0.00  0.00     0.002 C 
ATOM     24  C   UNL d   1      27.327 -13.589   3.777  0.00  0.00     0.025 C 
ENDBRANCH  17  19
ENDBRANCH  13  15
ENDBRANCH   6   8
ENDBRANCH   5   6
ENDBRANCH   2   5
BRANCH   3  25
ATOM     25  C   UNL d   1      27.399 -16.038  -2.330  0.00  0.00     0.035 A 
ATOM     26  C   UNL d   1      28.316 -15.642  -1.360  0.00  0.00     0.029 A 
ATOM     27  C   UNL d   1      28.098 -15.987  -0.020  0.00  0.00     0.003 A 
ATOM     28  C   UNL d   1      26.944 -16.689   0.354  0.00  0.00     0.017 A 
ATOM     29  C   UNL d   1      26.038 -17.123  -0.618  0.00  0.00     0.034 A 
ATOM     30  C   UNL d   1      26.309 -16.821  -1.952  0.00  0.00     0.046 A 
BRANCH  29  31
ATOM     31  C   UNL d   1      24.845 -17.941  -0.236  0.00  0.00     0.251 C 
ATOM     32  O   UNL d   1      24.626 -18.178   0.953  0.00  0.00    -0.268 OA
ATOM     33  N   UNL d   1      24.031 -18.416  -1.249  0.00  0.00    -0.354 N 
ATOM     34  H   UNL d   1      24.196 -18.200  -2.219  0.00  0.00     0.162 HD
BRANCH  33  35
ATOM     35  C   UNL d   1      22.877 -19.260  -0.969  0.00  0.00     0.155 C 
BRANCH  35  36
ATOM     36  C   UNL d   1      21.654 -18.453  -0.483  0.00  0.00     0.139 C 
ATOM     37  C   UNL d   1      20.349 -18.966  -1.072  0.00  0.00     0.035 C 
ATOM     38  C   UNL d   1      19.875 -19.958  -0.044  0.00  0.00     0.029 C 
ATOM     39  C   UNL d   1      20.359 -19.350   1.254  0.00  0.00     0.168 C 
ATOM     40  O   UNL d   1      21.530 -18.575   0.949  0.00  0.00    -0.384 OA
ENDBRANCH  35  36
ENDBRANCH  33  35
ENDBRANCH  29  31
ENDBRANCH   3  25
TORSDOF 9
ENDMDL
MODEL 2
REMARK VINA RESULT:    -9.246      3.373      7.903
REMARK INTER + INTRA:         -14.565
REMARK INTER:                 -11.931
REMARK INTRA:                  -2.634
REMARK CONF_INDEPENDENT:        2.685
REMARK UNBOUND:                -2.634
REMARK  9 active torsions:
REMARK  status: ('A' for Active; 'I' for Inactive)
REMARK    1  A    between atoms: C_2  and  C_3 
REMARK       I    between atoms: C_2  and  N_21 
REMARK    2  A    between atoms: C_3  and  N_4 
REMARK    3  A    between atoms: N_4  and  C_5 
REMARK    4  A    between atoms: C_10  and  C_11 
REMARK       I    between atoms: C_11  and  N_13 
REMARK    5  A    between atoms: N_13  and  C_14 
REMARK    6  A    between atoms: N_21  and  C_22 
REMARK    7  A    between atoms: C_26  and  C_27 
REMARK       I    between atoms: C_27  and  N_29 
REMARK    8  A    between atoms: N_29  and  C_30 
REMARK    9  A    between atoms: C_31  and  C_30 
ROOT
ATOM      1  O   UNL d   1      30.927 -17.174   0.381  0.00  0.00    -0.271 OA
ATOM      2  C   UNL d   1      30.437 -17.331  -0.740  0.00  0.00     0.239 C 
ATOM      3  N   UNL d   1      31.234 -17.130  -1.856  0.00  0.00    -0.326 N 
ATOM      4  H   UNL d   1      32.220 -17.003  -1.649  0.00  0.00     0.169 HD
ENDROOT
BRANCH   2   5
ATOM      5  C   UNL d   1      28.979 -17.816  -0.942  0.00  0.00     0.223 C 
BRANCH   5   6
ATOM      6  N   UNL d   1      28.124 -17.582   0.236  0.00  0.00    -0.381 N 
ATOM      7  H   UNL d   1      28.591 -17.053   0.970  0.00  0.00     0.160 HD
BRANCH   6   8
ATOM      8  C   UNL d   1      26.783 -17.267  -0.030  0.00  0.00     0.029 A 
ATOM      9  C   UNL d   1      26.445 -15.959  -0.376  0.00  0.00     0.031 A 
ATOM     10  C   UNL d   1      25.127 -15.598  -0.648  0.00  0.00     0.027 A 
ATOM     11  C   UNL d   1      24.093 -16.533  -0.557  0.00  0.00     0.049 A 
ATOM     12 CL   UNL d   1      22.520 -15.890  -0.895  0.00  0.00    -0.083 Cl
ATOM     13  C   UNL d   1      24.377 -17.864  -0.208  0.00  0.00     0.055 A 
ATOM     14  C   UNL d   1      25.738 -18.209   0.060  0.00  0.00     0.048 A 
BRANCH  13  15
ATOM     15  C   UNL d   1      23.345 -18.964  -0.110  0.00  0.00     0.253 C 
ATOM     16  O   UNL d   1      23.628 -20.099  -0.489  0.00  0.00    -0.268 OA
ATOM     17  N   UNL d   1      22.097 -18.659   0.402  0.00  0.00    -0.352 N 
ATOM     18  H   UNL d   1      21.938 -17.727   0.765  0.00  0.00     0.163 HD
BRANCH  17  19
ATOM     19  C   UNL d   1      21.030 -19.633   0.607  0.00  0.00     0.084 C 
ATOM     20  C   UNL d   1      20.440 -19.507   2.017  0.00  0.00     0.025 C 
ATOM     21  C   UNL d   1      19.291 -20.487   2.239  0.00  0.00     0.002 C 
ATOM     22  C   UNL d   1      18.199 -20.319   1.190  0.00  0.00     0.000 C 
ATOM     23  C   UNL d   1      18.772 -20.450  -0.218  0.00  0.00     0.002 C 
ATOM     24  C   UNL d   1      19.919 -19.464  -0.446  0.00  0.00     0.025 C 
ENDBRANCH  17  19
ENDBRANCH  13  15
ENDBRANCH   6   8
ENDBRANCH   5   6
ENDBRANCH   2   5
BRANCH   3  25
ATOM     25  C   UNL d   1      30.839 -17.098  -3.204  0.00  0.00     0.035 A 
ATOM     26  C   UNL d   1      31.460 -17.911  -4.149  0.00  0.00     0.029 A 
ATOM     27  C   UNL d   1      31.069 -17.835  -5.491  0.00  0.00     0.003 A 
ATOM     28  C   UNL d   1      30.030 -16.978  -5.881  0.00  0.00     0.017 A 
ATOM     29  C   UNL d   1      29.428 -16.131  -4.945  0.00  0.00     0.034 A 
ATOM     30  C   UNL d   1      29.877 -16.182  -3.627  0.00  0.00     0.046 A 
BRANCH  29  31
ATOM     31  C   UNL d   1      28.374 -15.157  -5.368  0.00  0.00     0.251 C 
ATOM     32  O   UNL d   1      27.287 -15.574  -5.771  0.00  0.00    -0.268 OA
ATOM     33  N   UNL d   1      28.671 -13.807  -5.297  0.00  0.00    -0.354 N 
ATOM     34  H   UNL d   1      29.549 -13.467  -4.943  0.00  0.00     0.162 HD
BRANCH  33  35
ATOM     35  C   UNL d   1      27.720 -12.793  -5.734  0.00  0.00     0.155 C 
BRANCH  35  36
ATOM     36  C   UNL d   1      26.829 -12.278  -4.584  0.00  0.00     0.139 C 
ATOM     37  C   UNL d   1      25.432 -12.879  -4.618  0.00  0.00     0.035 C 
ATOM     38  C   UNL d   1      25.560 -14.092  -3.735  0.00  0.00     0.029 C 
ATOM     39  C   UNL d   1      26.565 -13.645  -2.697  0.00  0.00     0.168 C 
ATOM     40  O   UNL d   1      27.406 -12.658  -3.316  0.00  0.00    -0.384 OA
ENDBRANCH  35  36
ENDBRANCH  33  35
ENDBRANCH  29  31
ENDBRANCH   3  25
TORSDOF 9
ENDMDL
MODEL 3
REMARK VINA RESULT:    -8.224      3.555      5.758
REMARK INTER + INTRA:         -14.197
REMARK INTER:                 -10.908
REMARK INTRA:                  -3.289
REMARK CONF_INDEPENDENT:        2.685
REMARK UNBOUND:                -3.289
REMARK  9 active torsions:
REMARK  status: ('A' for Active; 'I' for Inactive)
REMARK    1  A    between atoms: C_2  and  C_3 
REMARK       I    between atoms: C_2  and  N_21 
REMARK    2  A    between atoms: C_3  and  N_4 
REMARK    3  A    between atoms: N_4  and  C_5 
REMARK    4  A    between atoms: C_10  and  C_11 
REMARK       I    between atoms: C_11  and  N_13 
REMARK    5  A    between atoms: N_13  and  C_14 
REMARK    6  A    between atoms: N_21  and  C_22 
REMARK    7  A    between atoms: C_26  and  C_27 
REMARK       I    between atoms: C_27  and  N_29 
REMARK    8  A    between atoms: N_29  and  C_30 
REMARK    9  A    between atoms: C_31  and  C_30 
ROOT
ATOM      1  O   UNL d   1      24.747  -7.505  -5.338  0.00  0.00    -0.271 OA
ATOM      2  C   UNL d   1      25.381  -8.537  -5.099  0.00  0.00     0.239 C 
ATOM      3  N   UNL d   1      25.091  -9.253  -3.948  0.00  0.00    -0.326 N 
ATOM      4  H   UNL d   1      24.262  -8.934  -3.455  0.00  0.00     0.169 HD
ENDROOT
BRANCH   2   5
ATOM      5  C   UNL d   1      26.440  -9.099  -6.080  0.00  0.00     0.223 C 
BRANCH   5   6
ATOM      6  N   UNL d   1      26.050 -10.391  -6.675  0.00  0.00    -0.381 N 
ATOM      7  H   UNL d   1      25.439 -10.290  -7.483  0.00  0.00     0.160 HD
BRANCH   6   8
ATOM      8  C   UNL d   1      27.058 -11.364  -6.746  0.00  0.00     0.029 A 
ATOM      9  C   UNL d   1      28.134 -11.171  -7.613  0.00  0.00     0.031 A 
ATOM     10  C   UNL d   1      29.157 -12.109  -7.719  0.00  0.00     0.027 A 
ATOM     11  C   UNL d   1      29.127 -13.292  -6.977  0.00  0.00     0.049 A 
ATOM     12 CL   UNL d   1      30.467 -14.351  -7.270  0.00  0.00    -0.083 Cl
ATOM     13  C   UNL d   1      28.064 -13.541  -6.092  0.00  0.00     0.055 A 
ATOM     14  C   UNL d   1      27.030 -12.559  -5.998  0.00  0.00     0.048 A 
BRANCH  13  15
ATOM     15  C   UNL d   1      27.945 -14.768  -5.218  0.00  0.00     0.253 C 
ATOM     16  O   UNL d   1      27.040 -15.576  -5.424  0.00  0.00    -0.268 OA
ATOM     17  N   UNL d   1      28.861 -14.947  -4.198  0.00  0.00    -0.352 N 
ATOM     18  H   UNL d   1      29.627 -14.291  -4.116  0.00  0.00     0.163 HD
BRANCH  17  19
ATOM     19  C   UNL d   1      28.899 -16.113  -3.321  0.00  0.00     0.084 C 
ATOM     20  C   UNL d   1      30.337 -16.618  -3.147  0.00  0.00     0.025 C 
ATOM     21  C   UNL d   1      30.406 -17.810  -2.196  0.00  0.00     0.002 C 
ATOM     22  C   UNL d   1      29.791 -17.484  -0.840  0.00  0.00     0.000 C 
ATOM     23  C   UNL d   1      28.358 -16.986  -0.999  0.00  0.00     0.002 C 
ATOM     24  C   UNL d   1      28.286 -15.787  -1.946  0.00  0.00     0.025 C 
ENDBRANCH  17  19
ENDBRANCH  13  15
ENDBRANCH   6   8
ENDBRANCH   5   6
ENDBRANCH   2   5
BRANCH   3  25
ATOM     25  C   UNL d   1      25.791 -10.348  -3.414  0.00  0.00     0.035 A 
ATOM     26  C   UNL d   1      27.040 -10.175  -2.823  0.00  0.00     0.029 A 
ATOM     27  C   UNL d   1      27.730 -11.290  -2.328  0.00  0.00     0.003 A 
ATOM     28  C   UNL d   1      27.154 -12.566  -2.387  0.00  0.00     0.017 A 
ATOM     29  C   UNL d   1      25.918 -12.752  -3.013  0.00  0.00     0.034 A 
ATOM     30  C   UNL d   1      25.279 -11.637  -3.553  0.00  0.00     0.046 A 
BRANCH  29  31
ATOM     31  C   UNL d   1      25.332 -14.122  -3.151  0.00  0.00     0.251 C 
ATOM     32  O   UNL d   1      24.830 -14.464  -4.223  0.00  0.00    -0.268 OA
ATOM     33  N   UNL d   1      25.369 -14.958  -2.049  0.00  0.00    -0.354 N 
ATOM     34  H   UNL d   1      25.804 -14.687  -1.182  0.00  0.00     0.162 HD
BRANCH  33  35
ATOM     35  C   UNL d   1      24.779 -16.290  -2.082  0.00  0.00     0.155 C 
BRANCH  35  36
ATOM     36  C   UNL d   1      24.360 -16.788  -0.682  0.00  0.00     0.139 C 
ATOM     37  C   UNL d   1      22.853 -16.749  -0.479  0.00  0.00     0.035 C 
ATOM     38  C   UNL d   1      22.414 -18.125  -0.902  0.00  0.00     0.029 C 
ATOM     39  C   UNL d   1      23.581 -18.991  -0.483  0.00  0.00     0.168 C 
ATOM     40  O   UNL d   1      24.757 -18.166  -0.519  0.00  0.00    -0.384 OA
ENDBRANCH  35  36
ENDBRANCH  33  35
ENDBRANCH  29  31
ENDBRANCH   3  25
TORSDOF 9
ENDMDL
MODEL 4
REMARK VINA RESULT:    -7.700      2.794      6.824
REMARK INTER + INTRA:         -14.181
REMARK INTER:                 -10.385
REMARK INTRA:                  -3.795
REMARK CONF_INDEPENDENT:        2.685
REMARK UNBOUND:                -3.795
REMARK  9 active torsions:
REMARK  status: ('A' for Active; 'I' for Inactive)
REMARK    1  A    between atoms: C_2  and  C_3 
REMARK       I    between atoms: C_2  and  N_21 
REMARK    2  A    between atoms: C_3  and  N_4 
REMARK    3  A    between atoms: N_4  and  C_5 
REMARK    4  A    between atoms: C_10  and  C_11 
REMARK       I    between atoms: C_11  and  N_13 
REMARK    5  A    between atoms: N_13  and  C_14 
REMARK    6  A    between atoms: N_21  and  C_22 
REMARK    7  A    between atoms: C_26  and  C_27 
REMARK       I    between atoms: C_27  and  N_29 
REMARK    8  A    between atoms: N_29  and  C_30 
REMARK    9  A    between atoms: C_31  and  C_30 
ROOT
ATOM      1  O   UNL d   1      27.932  -8.682  -4.071  0.00  0.00    -0.271 OA
ATOM      2  C   UNL d   1      27.301  -8.960  -3.047  0.00  0.00     0.239 C 
ATOM      3  N   UNL d   1      27.988  -9.105  -1.852  0.00  0.00    -0.326 N 
ATOM      4  H   UNL d   1      28.964  -8.825  -1.894  0.00  0.00     0.169 HD
ENDROOT
BRANCH   2   5
ATOM      5  C   UNL d   1      25.756  -9.081  -3.039  0.00  0.00     0.223 C 
BRANCH   5   6
ATOM      6  N   UNL d   1      25.237  -9.923  -4.133  0.00  0.00    -0.381 N 
ATOM      7  H   UNL d   1      24.989  -9.389  -4.964  0.00  0.00     0.160 HD
BRANCH   6   8
ATOM      8  C   UNL d   1      25.886 -11.151  -4.326  0.00  0.00     0.029 A 
ATOM      9  C   UNL d   1      26.901 -11.244  -5.279  0.00  0.00     0.031 A 
ATOM     10  C   UNL d   1      27.574 -12.442  -5.507  0.00  0.00     0.027 A 
ATOM     11  C   UNL d   1      27.236 -13.601  -4.805  0.00  0.00     0.049 A 
ATOM     12 CL   UNL d   1      28.157 -14.998  -5.252  0.00  0.00    -0.083 Cl
ATOM     13  C   UNL d   1      26.218 -13.565  -3.838  0.00  0.00     0.055 A 
ATOM     14  C   UNL d   1      25.547 -12.322  -3.619  0.00  0.00     0.048 A 
BRANCH  13  15
ATOM     15  C   UNL d   1      25.791 -14.747  -2.997  0.00  0.00     0.253 C 
ATOM     16  O   UNL d   1      25.370 -15.764  -3.547  0.00  0.00    -0.268 OA
ATOM     17  N   UNL d   1      25.882 -14.649  -1.621  0.00  0.00    -0.352 N 
ATOM     18  H   UNL d   1      26.301 -13.818  -1.222  0.00  0.00     0.163 HD
BRANCH  17  19
ATOM     19  C   UNL d   1      25.562 -15.731  -0.695  0.00  0.00     0.084 C 
ATOM     20  C   UNL d   1      24.235 -16.399  -1.076  0.00  0.00     0.025 C 
ATOM     21  C   UNL d   1      23.902 -17.564  -0.147  0.00  0.00     0.002 C 
ATOM     22  C   UNL d   1      25.025 -18.594  -0.113  0.00  0.00     0.000 C 
ATOM     23  C   UNL d   1      26.349 -17.942   0.271  0.00  0.00     0.002 C 
ATOM     24  C   UNL d   1      26.690 -16.779  -0.662  0.00  0.00     0.025 C 
ENDBRANCH  17  19
ENDBRANCH  13  15
ENDBRANCH   6   8
ENDBRANCH   5   6
ENDBRANCH   2   5
BRANCH   3  25
ATOM     25  C   UNL d   1      27.492  -9.570  -0.623  0.00  0.00     0.035 A 
ATOM     26  C   UNL d   1      26.825  -8.712   0.247  0.00  0.00     0.029 A 
ATOM     27  C   UNL d   1      26.371  -9.195   1.481  0.00  0.00     0.003 A 
ATOM     28  C   UNL d   1      26.546 -10.542   1.825  0.00  0.00     0.017 A 
ATOM     29  C   UNL d   1      27.248 -11.401   0.973  0.00  0.00     0.034 A 
ATOM     30  C   UNL d   1      27.744 -10.881  -0.221  0.00  0.00     0.046 A 
BRANCH  29  31
ATOM     31  C   UNL d   1      27.508 -12.820   1.368  0.00  0.00     0.251 C 
ATOM     32  O   UNL d   1      27.639 -13.680   0.495  0.00  0.00    -0.268 OA
ATOM     33  N   UNL d   1      27.581 -13.116   2.717  0.00  0.00    -0.354 N 
ATOM     34  H   UNL d   1      27.499 -12.409   3.429  0.00  0.00     0.162 HD
BRANCH  33  35
ATOM     35  C   UNL d   1      27.782 -14.480   3.190  0.00  0.00     0.155 C 
BRANCH  35  36
ATOM     36  C   UNL d   1      27.664 -14.600   4.724  0.00  0.00     0.139 C 
ATOM     37  C   UNL d   1      28.933 -15.145   5.363  0.00  0.00     0.035 C 
ATOM     38  C   UNL d   1      29.707 -13.899   5.703  0.00  0.00     0.029 C 
ATOM     39  C   UNL d   1      28.615 -12.909   6.041  0.00  0.00     0.168 C 
ATOM     40  O   UNL d   1      27.447 -13.295   5.299  0.00  0.00    -0.384 OA
ENDBRANCH  35  36
ENDBRANCH  33  35
ENDBRANCH  29  31
ENDBRANCH   3  25
TORSDOF 9
ENDMDL
MODEL 5
REMARK VINA RESULT:    -7.406      3.984      7.077
REMARK INTER + INTRA:         -14.450
REMARK INTER:                 -10.091
REMARK INTRA:                  -4.359
REMARK CONF_INDEPENDENT:        2.685
REMARK UNBOUND:                -4.359
REMARK  9 active torsions:
REMARK  status: ('A' for Active; 'I' for Inactive)
REMARK    1  A    between atoms: C_2  and  C_3 
REMARK       I    between atoms: C_2  and  N_21 
REMARK    2  A    between atoms: C_3  and  N_4 
REMARK    3  A    between atoms: N_4  and  C_5 
REMARK    4  A    between atoms: C_10  and  C_11 
REMARK       I    between atoms: C_11  and  N_13 
REMARK    5  A    between atoms: N_13  and  C_14 
REMARK    6  A    between atoms: N_21  and  C_22 
REMARK    7  A    between atoms: C_26  and  C_27 
REMARK       I    between atoms: C_27  and  N_29 
REMARK    8  A    between atoms: N_29  and  C_30 
REMARK    9  A    between atoms: C_31  and  C_30 
ROOT
ATOM      1  O   UNL d   1      32.448 -14.541  -8.748  0.00  0.00    -0.271 OA
ATOM      2  C   UNL d   1      31.933 -15.307  -7.929  0.00  0.00     0.239 C 
ATOM      3  N   UNL d   1      32.235 -16.658  -7.991  0.00  0.00    -0.326 N 
ATOM      4  H   UNL d   1      32.985 -16.891  -8.636  0.00  0.00     0.169 HD
ENDROOT
BRANCH   2   5
ATOM      5  C   UNL d   1      31.016 -14.799  -6.788  0.00  0.00     0.223 C 
BRANCH   5   6
ATOM      6  N   UNL d   1      29.910 -13.951  -7.270  0.00  0.00    -0.381 N 
ATOM      7  H   UNL d   1      29.590 -14.205  -8.203  0.00  0.00     0.160 HD
BRANCH   6   8
ATOM      8  C   UNL d   1      28.931 -13.619  -6.322  0.00  0.00     0.029 A 
ATOM      9  C   UNL d   1      28.772 -12.285  -5.943  0.00  0.00     0.031 A 
ATOM     10  C   UNL d   1      27.815 -11.908  -5.005  0.00  0.00     0.027 A 
ATOM     11  C   UNL d   1      26.996 -12.858  -4.391  0.00  0.00     0.049 A 
ATOM     12 CL   UNL d   1      25.894 -12.203  -3.226  0.00  0.00    -0.083 Cl
ATOM     13  C   UNL d   1      27.117 -14.216  -4.732  0.00  0.00     0.055 A 
ATOM     14  C   UNL d   1      28.103 -14.576  -5.702  0.00  0.00     0.048 A 
BRANCH  13  15
ATOM     15  C   UNL d   1      26.264 -15.324  -4.156  0.00  0.00     0.253 C 
ATOM     16  O   UNL d   1      25.503 -15.950  -4.892  0.00  0.00    -0.268 OA
ATOM     17  N   UNL d   1      26.362 -15.601  -2.805  0.00  0.00    -0.352 N 
ATOM     18  H   UNL d   1      27.054 -15.104  -2.258  0.00  0.00     0.163 HD
BRANCH  17  19
ATOM     19  C   UNL d   1      25.645 -16.679  -2.132  0.00  0.00     0.084 C 
ATOM     20  C   UNL d   1      26.414 -17.155  -0.893  0.00  0.00     0.025 C 
ATOM     21  C   UNL d   1      25.660 -18.253  -0.147  0.00  0.00     0.002 C 
ATOM     22  C   UNL d   1      24.256 -17.806   0.241  0.00  0.00     0.000 C 
ATOM     23  C   UNL d   1      23.477 -17.335  -0.984  0.00  0.00     0.002 C 
ATOM     24  C   UNL d   1      24.227 -16.230  -1.730  0.00  0.00     0.025 C 
ENDBRANCH  17  19
ENDBRANCH  13  15
ENDBRANCH   6   8
ENDBRANCH   5   6
ENDBRANCH   2   5
BRANCH   3  25
ATOM     25  C   UNL d   1      31.643 -17.708  -7.269  0.00  0.00     0.035 A 
ATOM     26  C   UNL d   1      31.138 -18.828  -7.924  0.00  0.00     0.029 A 
ATOM     27  C   UNL d   1      30.523 -19.845  -7.182  0.00  0.00     0.003 A 
ATOM     28  C   UNL d   1      30.452 -19.761  -5.785  0.00  0.00     0.017 A 
ATOM     29  C   UNL d   1      30.923 -18.623  -5.123  0.00  0.00     0.034 A 
ATOM     30  C   UNL d   1      31.475 -17.597  -5.889  0.00  0.00     0.046 A 
BRANCH  29  31
ATOM     31  C   UNL d   1      30.780 -18.490  -3.640  0.00  0.00     0.251 C 
ATOM     32  O   UNL d   1      31.329 -19.308  -2.900  0.00  0.00    -0.268 OA
ATOM     33  N   UNL d   1      30.014 -17.446  -3.152  0.00  0.00    -0.354 N 
ATOM     34  H   UNL d   1      29.587 -16.764  -3.756  0.00  0.00     0.162 HD
BRANCH  33  35
ATOM     35  C   UNL d   1      29.782 -17.272  -1.724  0.00  0.00     0.155 C 
BRANCH  35  36
ATOM     36  C   UNL d   1      29.244 -15.868  -1.376  0.00  0.00     0.139 C 
ATOM     37  C   UNL d   1      30.187 -15.092  -0.470  0.00  0.00     0.035 C 
ATOM     38  C   UNL d   1      31.042 -14.325  -1.443  0.00  0.00     0.029 C 
ATOM     39  C   UNL d   1      30.082 -14.036  -2.576  0.00  0.00     0.168 C 
ATOM     40  O   UNL d   1      29.105 -15.089  -2.583  0.00  0.00    -0.384 OA
ENDBRANCH  35  36
ENDBRANCH  33  35
ENDBRANCH  29  31
ENDBRANCH   3  25
TORSDOF 9
ENDMDL
MODEL 6
REMARK VINA RESULT:    -7.346      2.296      5.689
REMARK INTER + INTRA:         -14.393
REMARK INTER:                 -10.031
REMARK INTRA:                  -4.362
REMARK CONF_INDEPENDENT:        2.685
REMARK UNBOUND:                -4.362
REMARK  9 active torsions:
REMARK  status: ('A' for Active; 'I' for Inactive)
REMARK    1  A    between atoms: C_2  and  C_3 
REMARK       I    between atoms: C_2  and  N_21 
REMARK    2  A    between atoms: C_3  and  N_4 
REMARK    3  A    between atoms: N_4  and  C_5 
REMARK    4  A    between atoms: C_10  and  C_11 
REMARK       I    between atoms: C_11  and  N_13 
REMARK    5  A    between atoms: N_13  and  C_14 
REMARK    6  A    between atoms: N_21  and  C_22 
REMARK    7  A    between atoms: C_26  and  C_27 
REMARK       I    between atoms: C_27  and  N_29 
REMARK    8  A    between atoms: N_29  and  C_30 
REMARK    9  A    between atoms: C_31  and  C_30 
ROOT
ATOM      1  O   UNL d   1      31.317 -16.658  -0.992  0.00  0.00    -0.271 OA
ATOM      2  C   UNL d   1      30.263 -16.532  -1.622  0.00  0.00     0.239 C 
ATOM      3  N   UNL d   1      30.313 -16.093  -2.935  0.00  0.00    -0.326 N 
ATOM      4  H   UNL d   1      31.250 -16.044  -3.324  0.00  0.00     0.169 HD
ENDROOT
BRANCH   2   5
ATOM      5  C   UNL d   1      28.890 -16.918  -1.016  0.00  0.00     0.223 C 
BRANCH   5   6
ATOM      6  N   UNL d   1      28.745 -16.510   0.394  0.00  0.00    -0.381 N 
ATOM      7  H   UNL d   1      29.512 -16.831   0.983  0.00  0.00     0.160 HD
BRANCH   6   8
ATOM      8  C   UNL d   1      28.265 -15.211   0.613  0.00  0.00     0.029 A 
ATOM      9  C   UNL d   1      28.041 -14.777   1.920  0.00  0.00     0.031 A 
ATOM     10  C   UNL d   1      27.565 -13.496   2.187  0.00  0.00     0.027 A 
ATOM     11  C   UNL d   1      27.269 -12.609   1.149  0.00  0.00     0.049 A 
ATOM     12 CL   UNL d   1      26.653 -11.077   1.676  0.00  0.00    -0.083 Cl
ATOM     13  C   UNL d   1      27.472 -12.995  -0.186  0.00  0.00     0.055 A 
ATOM     14  C   UNL d   1      27.967 -14.313  -0.432  0.00  0.00     0.048 A 
BRANCH  13  15
ATOM     15  C   UNL d   1      27.217 -12.109  -1.384  0.00  0.00     0.253 C 
ATOM     16  O   UNL d   1      27.904 -11.103  -1.553  0.00  0.00    -0.268 OA
ATOM     17  N   UNL d   1      26.206 -12.455  -2.261  0.00  0.00    -0.352 N 
ATOM     18  H   UNL d   1      25.717 -13.330  -2.115  0.00  0.00     0.163 HD
BRANCH  17  19
ATOM     19  C   UNL d   1      25.892 -11.726  -3.486  0.00  0.00     0.084 C 
ATOM     20  C   UNL d   1      25.633 -10.244  -3.186  0.00  0.00     0.025 C 
ATOM     21  C   UNL d   1      25.346  -9.452  -4.459  0.00  0.00     0.002 C 
ATOM     22  C   UNL d   1      26.471  -9.599  -5.477  0.00  0.00     0.000 C 
ATOM     23  C   UNL d   1      26.735 -11.068  -5.788  0.00  0.00     0.002 C 
ATOM     24  C   UNL d   1      27.029 -11.864  -4.516  0.00  0.00     0.025 C 
ENDBRANCH  17  19
ENDBRANCH  13  15
ENDBRANCH   6   8
ENDBRANCH   5   6
ENDBRANCH   2   5
BRANCH   3  25
ATOM     25  C   UNL d   1      29.239 -15.733  -3.766  0.00  0.00     0.035 A 
ATOM     26  C   UNL d   1      29.445 -15.445  -5.113  0.00  0.00     0.029 A 
ATOM     27  C   UNL d   1      28.361 -15.057  -5.910  0.00  0.00     0.003 A 
ATOM     28  C   UNL d   1      27.068 -14.998  -5.372  0.00  0.00     0.017 A 
ATOM     29  C   UNL d   1      26.859 -15.249  -4.012  0.00  0.00     0.034 A 
ATOM     30  C   UNL d   1      27.964 -15.573  -3.226  0.00  0.00     0.046 A 
BRANCH  29  31
ATOM     31  C   UNL d   1      25.495 -15.110  -3.413  0.00  0.00     0.251 C 
ATOM     32  O   UNL d   1      24.702 -14.296  -3.888  0.00  0.00    -0.268 OA
ATOM     33  N   UNL d   1      25.180 -15.906  -2.325  0.00  0.00    -0.354 N 
ATOM     34  H   UNL d   1      25.819 -16.589  -1.954  0.00  0.00     0.162 HD
BRANCH  33  35
ATOM     35  C   UNL d   1      23.892 -15.801  -1.651  0.00  0.00     0.155 C 
BRANCH  35  36
ATOM     36  C   UNL d   1      23.868 -16.543  -0.298  0.00  0.00     0.139 C 
ATOM     37  C   UNL d   1      22.852 -17.675  -0.274  0.00  0.00     0.035 C 
ATOM     38  C   UNL d   1      23.660 -18.868  -0.709  0.00  0.00     0.029 C 
ATOM     39  C   UNL d   1      25.027 -18.575  -0.132  0.00  0.00     0.168 C 
ATOM     40  O   UNL d   1      25.156 -17.146  -0.052  0.00  0.00    -0.384 OA
ENDBRANCH  35  36
ENDBRANCH  33  35
ENDBRANCH  29  31
ENDBRANCH   3  25
TORSDOF 9
ENDMDL
MODEL 7
REMARK VINA RESULT:    -7.191      3.055      5.421
REMARK INTER + INTRA:         -14.297
REMARK INTER:                  -9.876
REMARK INTRA:                  -4.422
REMARK CONF_INDEPENDENT:        2.685
REMARK UNBOUND:                -4.422
REMARK  9 active torsions:
REMARK  status: ('A' for Active; 'I' for Inactive)
REMARK    1  A    between atoms: C_2  and  C_3 
REMARK       I    between atoms: C_2  and  N_21 
REMARK    2  A    between atoms: C_3  and  N_4 
REMARK    3  A    between atoms: N_4  and  C_5 
REMARK    4  A    between atoms: C_10  and  C_11 
REMARK       I    between atoms: C_11  and  N_13 
REMARK    5  A    between atoms: N_13  and  C_14 
REMARK    6  A    between atoms: N_21  and  C_22 
REMARK    7  A    between atoms: C_26  and  C_27 
REMARK       I    between atoms: C_27  and  N_29 
REMARK    8  A    between atoms: N_29  and  C_30 
REMARK    9  A    between atoms: C_31  and  C_30 
ROOT
ATOM      1  O   UNL d   1      28.402 -10.842  -8.675  0.00  0.00    -0.271 OA
ATOM      2  C   UNL d   1      28.182 -11.407  -7.600  0.00  0.00     0.239 C 
ATOM      3  N   UNL d   1      26.994 -11.146  -6.934  0.00  0.00    -0.326 N 
ATOM      4  H   UNL d   1      26.324 -10.603  -7.471  0.00  0.00     0.169 HD
ENDROOT
BRANCH   2   5
ATOM      5  C   UNL d   1      29.156 -12.454  -7.004  0.00  0.00     0.223 C 
BRANCH   5   6
ATOM      6  N   UNL d   1      28.799 -13.841  -7.354  0.00  0.00    -0.381 N 
ATOM      7  H   UNL d   1      28.892 -14.038  -8.349  0.00  0.00     0.160 HD
BRANCH   6   8
ATOM      8  C   UNL d   1      29.229 -14.832  -6.459  0.00  0.00     0.029 A 
ATOM      9  C   UNL d   1      30.133 -15.801  -6.895  0.00  0.00     0.031 A 
ATOM     10  C   UNL d   1      30.587 -16.804  -6.043  0.00  0.00     0.027 A 
ATOM     11  C   UNL d   1      30.131 -16.889  -4.725  0.00  0.00     0.049 A 
ATOM     12 CL   UNL d   1      30.780 -18.224  -3.832  0.00  0.00    -0.083 Cl
ATOM     13  C   UNL d   1      29.216 -15.942  -4.235  0.00  0.00     0.055 A 
ATOM     14  C   UNL d   1      28.771 -14.919  -5.128  0.00  0.00     0.048 A 
BRANCH  13  15
ATOM     15  C   UNL d   1      28.681 -15.918  -2.822  0.00  0.00     0.253 C 
ATOM     16  O   UNL d   1      28.303 -16.964  -2.296  0.00  0.00    -0.268 OA
ATOM     17  N   UNL d   1      28.625 -14.708  -2.155  0.00  0.00    -0.352 N 
ATOM     18  H   UNL d   1      29.013 -13.888  -2.606  0.00  0.00     0.163 HD
BRANCH  17  19
ATOM     19  C   UNL d   1      28.188 -14.549  -0.772  0.00  0.00     0.084 C 
ATOM     20  C   UNL d   1      29.377 -14.658   0.191  0.00  0.00     0.025 C 
ATOM     21  C   UNL d   1      28.951 -14.450   1.642  0.00  0.00     0.002 C 
ATOM     22  C   UNL d   1      28.234 -13.118   1.832  0.00  0.00     0.000 C 
ATOM     23  C   UNL d   1      27.045 -13.000   0.884  0.00  0.00     0.002 C 
ATOM     24  C   UNL d   1      27.470 -13.201  -0.572  0.00  0.00     0.025 C 
ENDBRANCH  17  19
ENDBRANCH  13  15
ENDBRANCH   6   8
ENDBRANCH   5   6
ENDBRANCH   2   5
BRANCH   3  25
ATOM     25  C   UNL d   1      26.623 -11.551  -5.642  0.00  0.00     0.035 A 
ATOM     26  C   UNL d   1      26.655 -10.655  -4.576  0.00  0.00     0.029 A 
ATOM     27  C   UNL d   1      26.312 -11.095  -3.292  0.00  0.00     0.003 A 
ATOM     28  C   UNL d   1      25.896 -12.417  -3.082  0.00  0.00     0.017 A 
ATOM     29  C   UNL d   1      25.896 -13.332  -4.139  0.00  0.00     0.034 A 
ATOM     30  C   UNL d   1      26.302 -12.886  -5.395  0.00  0.00     0.046 A 
BRANCH  29  31
ATOM     31  C   UNL d   1      25.530 -14.764  -3.907  0.00  0.00     0.251 C 
ATOM     32  O   UNL d   1      25.347 -15.509  -4.871  0.00  0.00    -0.268 OA
ATOM     33  N   UNL d   1      25.399 -15.198  -2.599  0.00  0.00    -0.354 N 
ATOM     34  H   UNL d   1      25.574 -14.595  -1.812  0.00  0.00     0.162 HD
BRANCH  33  35
ATOM     35  C   UNL d   1      24.998 -16.563  -2.284  0.00  0.00     0.155 C 
BRANCH  35  36
ATOM     36  C   UNL d   1      24.788 -16.786  -0.771  0.00  0.00     0.139 C 
ATOM     37  C   UNL d   1      25.018 -18.233  -0.361  0.00  0.00     0.035 C 
ATOM     38  C   UNL d   1      26.474 -18.253   0.022  0.00  0.00     0.029 C 
ATOM     39  C   UNL d   1      26.685 -16.873   0.605  0.00  0.00     0.168 C 
ATOM     40  O   UNL d   1      25.739 -15.996  -0.027  0.00  0.00    -0.384 OA
ENDBRANCH  35  36
ENDBRANCH  33  35
ENDBRANCH  29  31
ENDBRANCH   3  25
TORSDOF 9
ENDMDL
MODEL 8
REMARK VINA RESULT:    -7.004      2.802      6.832
REMARK INTER + INTRA:         -14.408
REMARK INTER:                  -9.689
REMARK INTRA:                  -4.719
REMARK CONF_INDEPENDENT:        2.685
REMARK UNBOUND:                -4.719
REMARK  9 active torsions:
REMARK  status: ('A' for Active; 'I' for Inactive)
REMARK    1  A    between atoms: C_2  and  C_3 
REMARK       I    between atoms: C_2  and  N_21 
REMARK    2  A    between atoms: C_3  and  N_4 
REMARK    3  A    between atoms: N_4  and  C_5 
REMARK    4  A    between atoms: C_10  and  C_11 
REMARK       I    between atoms: C_11  and  N_13 
REMARK    5  A    between atoms: N_13  and  C_14 
REMARK    6  A    between atoms: N_21  and  C_22 
REMARK    7  A    between atoms: C_26  and  C_27 
REMARK       I    between atoms: C_27  and  N_29 
REMARK    8  A    between atoms: N_29  and  C_30 
REMARK    9  A    between atoms: C_31  and  C_30 
ROOT
ATOM      1  O   UNL d   1      23.976  -7.631  -4.927  0.00  0.00    -0.271 OA
ATOM      2  C   UNL d   1      24.952  -8.353  -4.705  0.00  0.00     0.239 C 
ATOM      3  N   UNL d   1      25.398  -8.498  -3.401  0.00  0.00    -0.326 N 
ATOM      4  H   UNL d   1      24.781  -8.096  -2.700  0.00  0.00     0.169 HD
ENDROOT
BRANCH   2   5
ATOM      5  C   UNL d   1      25.652  -9.160  -5.826  0.00  0.00     0.223 C 
BRANCH   5   6
ATOM      6  N   UNL d   1      25.155 -10.545  -5.938  0.00  0.00    -0.381 N 
ATOM      7  H   UNL d   1      24.621 -10.709  -6.789  0.00  0.00     0.160 HD
BRANCH   6   8
ATOM      8  C   UNL d   1      26.042 -11.552  -5.530  0.00  0.00     0.029 A 
ATOM      9  C   UNL d   1      27.416 -11.342  -5.653  0.00  0.00     0.031 A 
ATOM     10  C   UNL d   1      28.335 -12.313  -5.262  0.00  0.00     0.027 A 
ATOM     11  C   UNL d   1      27.909 -13.543  -4.757  0.00  0.00     0.049 A 
ATOM     12 CL   UNL d   1      29.195 -14.634  -4.360  0.00  0.00    -0.083 Cl
ATOM     13  C   UNL d   1      26.537 -13.809  -4.616  0.00  0.00     0.055 A 
ATOM     14  C   UNL d   1      25.615 -12.794  -5.019  0.00  0.00     0.048 A 
BRANCH  13  15
ATOM     15  C   UNL d   1      25.964 -15.090  -4.052  0.00  0.00     0.253 C 
ATOM     16  O   UNL d   1      25.531 -15.950  -4.816  0.00  0.00    -0.268 OA
ATOM     17  N   UNL d   1      25.938 -15.256  -2.679  0.00  0.00    -0.352 N 
ATOM     18  H   UNL d   1      26.371 -14.549  -2.098  0.00  0.00     0.163 HD
BRANCH  17  19
ATOM     19  C   UNL d   1      25.470 -16.462  -2.005  0.00  0.00     0.084 C 
ATOM     20  C   UNL d   1      26.448 -16.884  -0.901  0.00  0.00     0.025 C 
ATOM     21  C   UNL d   1      25.956 -18.119  -0.151  0.00  0.00     0.002 C 
ATOM     22  C   UNL d   1      24.562 -17.907   0.427  0.00  0.00     0.000 C 
ATOM     23  C   UNL d   1      23.578 -17.494  -0.663  0.00  0.00     0.002 C 
ATOM     24  C   UNL d   1      24.064 -16.252  -1.411  0.00  0.00     0.025 C 
ENDBRANCH  17  19
ENDBRANCH  13  15
ENDBRANCH   6   8
ENDBRANCH   5   6
ENDBRANCH   2   5
BRANCH   3  25
ATOM     25  C   UNL d   1      26.570  -9.132  -2.955  0.00  0.00     0.035 A 
ATOM     26  C   UNL d   1      27.822  -8.581  -3.214  0.00  0.00     0.029 A 
ATOM     27  C   UNL d   1      28.974  -9.252  -2.786  0.00  0.00     0.003 A 
ATOM     28  C   UNL d   1      28.872 -10.450  -2.065  0.00  0.00     0.017 A 
ATOM     29  C   UNL d   1      27.621 -11.029  -1.834  0.00  0.00     0.034 A 
ATOM     30  C   UNL d   1      26.493 -10.373  -2.324  0.00  0.00     0.046 A 
BRANCH  29  31
ATOM     31  C   UNL d   1      27.509 -12.346  -1.135  0.00  0.00     0.251 C 
ATOM     32  O   UNL d   1      27.862 -13.374  -1.715  0.00  0.00    -0.268 OA
ATOM     33  N   UNL d   1      26.993 -12.359   0.149  0.00  0.00    -0.354 N 
ATOM     34  H   UNL d   1      26.729 -11.516   0.631  0.00  0.00     0.162 HD
BRANCH  33  35
ATOM     35  C   UNL d   1      26.804 -13.603   0.884  0.00  0.00     0.155 C 
BRANCH  35  36
ATOM     36  C   UNL d   1      26.828 -13.399   2.413  0.00  0.00     0.139 C 
ATOM     37  C   UNL d   1      27.808 -14.332   3.109  0.00  0.00     0.035 C 
ATOM     38  C   UNL d   1      29.074 -13.520   3.163  0.00  0.00     0.029 C 
ATOM     39  C   UNL d   1      28.558 -12.108   3.329  0.00  0.00     0.168 C 
ATOM     40  O   UNL d   1      27.259 -12.056   2.718  0.00  0.00    -0.384 OA
ENDBRANCH  35  36
ENDBRANCH  33  35
ENDBRANCH  29  31
ENDBRANCH   3  25
TORSDOF 9
ENDMDL
MODEL 9
REMARK VINA RESULT:    -6.728      2.739      6.030
REMARK INTER + INTRA:         -14.672
REMARK INTER:                  -9.413
REMARK INTRA:                  -5.259
REMARK CONF_INDEPENDENT:        2.685
REMARK UNBOUND:                -5.259
REMARK  9 active torsions:
REMARK  status: ('A' for Active; 'I' for Inactive)
REMARK    1  A    between atoms: C_2  and  C_3 
REMARK       I    between atoms: C_2  and  N_21 
REMARK    2  A    between atoms: C_3  and  N_4 
REMARK    3  A    between atoms: N_4  and  C_5 
REMARK    4  A    between atoms: C_10  and  C_11 
REMARK       I    between atoms: C_11  and  N_13 
REMARK    5  A    between atoms: N_13  and  C_14 
REMARK    6  A    between atoms: N_21  and  C_22 
REMARK    7  A    between atoms: C_26  and  C_27 
REMARK       I    between atoms: C_27  and  N_29 
REMARK    8  A    between atoms: N_29  and  C_30 
REMARK    9  A    between atoms: C_31  and  C_30 
ROOT
ATOM      1  O   UNL d   1      32.308 -14.414  -7.262  0.00  0.00    -0.271 OA
ATOM      2  C   UNL d   1      31.492 -14.917  -6.484  0.00  0.00     0.239 C 
ATOM      3  N   UNL d   1      31.774 -14.925  -5.127  0.00  0.00    -0.326 N 
ATOM      4  H   UNL d   1      32.588 -14.376  -4.865  0.00  0.00     0.169 HD
ENDROOT
BRANCH   2   5
ATOM      5  C   UNL d   1      30.130 -15.474  -6.966  0.00  0.00     0.223 C 
BRANCH   5   6
ATOM      6  N   UNL d   1      29.147 -14.417  -7.269  0.00  0.00    -0.381 N 
ATOM      7  H   UNL d   1      28.626 -14.591  -8.127  0.00  0.00     0.160 HD
BRANCH   6   8
ATOM      8  C   UNL d   1      28.433 -13.908  -6.174  0.00  0.00     0.029 A 
ATOM      9  C   UNL d   1      28.455 -12.536  -5.924  0.00  0.00     0.031 A 
ATOM     10  C   UNL d   1      27.763 -11.984  -4.848  0.00  0.00     0.027 A 
ATOM     11  C   UNL d   1      27.044 -12.793  -3.966  0.00  0.00     0.049 A 
ATOM     12 CL   UNL d   1      26.281 -11.931  -2.671  0.00  0.00    -0.083 Cl
ATOM     13  C   UNL d   1      26.992 -14.182  -4.168  0.00  0.00     0.055 A 
ATOM     14  C   UNL d   1      27.706 -14.722  -5.283  0.00  0.00     0.048 A 
BRANCH  13  15
ATOM     15  C   UNL d   1      26.220 -15.148  -3.298  0.00  0.00     0.253 C 
ATOM     16  O   UNL d   1      25.531 -16.021  -3.822  0.00  0.00    -0.268 OA
ATOM     17  N   UNL d   1      26.308 -15.017  -1.924  0.00  0.00    -0.352 N 
ATOM     18  H   UNL d   1      26.944 -14.327  -1.544  0.00  0.00     0.163 HD
BRANCH  17  19
ATOM     19  C   UNL d   1      25.666 -15.914  -0.969  0.00  0.00     0.084 C 
ATOM     20  C   UNL d   1      24.217 -16.203  -1.381  0.00  0.00     0.025 C 
ATOM     21  C   UNL d   1      23.539 -17.176  -0.420  0.00  0.00     0.002 C 
ATOM     22  C   UNL d   1      24.323 -18.477  -0.291  0.00  0.00     0.000 C 
ATOM     23  C   UNL d   1      25.765 -18.203   0.126  0.00  0.00     0.002 C 
ATOM     24  C   UNL d   1      26.450 -17.234  -0.839  0.00  0.00     0.025 C 
ENDBRANCH  17  19
ENDBRANCH  13  15
ENDBRANCH   6   8
ENDBRANCH   5   6
ENDBRANCH   2   5
BRANCH   3  25
ATOM     25  C   UNL d   1      31.069 -15.580  -4.103  0.00  0.00     0.035 A 
ATOM     26  C   UNL d   1      30.766 -16.935  -4.200  0.00  0.00     0.029 A 
ATOM     27  C   UNL d   1      30.033 -17.554  -3.180  0.00  0.00     0.003 A 
ATOM     28  C   UNL d   1      29.640 -16.829  -2.046  0.00  0.00     0.017 A 
ATOM     29  C   UNL d   1      29.908 -15.459  -1.960  0.00  0.00     0.034 A 
ATOM     30  C   UNL d   1      30.585 -14.853  -3.017  0.00  0.00     0.046 A 
BRANCH  29  31
ATOM     31  C   UNL d   1      29.423 -14.661  -0.791  0.00  0.00     0.251 C 
ATOM     32  O   UNL d   1      28.905 -13.560  -0.979  0.00  0.00    -0.268 OA
ATOM     33  N   UNL d   1      29.589 -15.195   0.475  0.00  0.00    -0.354 N 
ATOM     34  H   UNL d   1      29.990 -16.107   0.626  0.00  0.00     0.162 HD
BRANCH  33  35
ATOM     35  C   UNL d   1      29.190 -14.465   1.670  0.00  0.00     0.155 C 
BRANCH  35  36
ATOM     36  C   UNL d   1      27.661 -14.459   1.881  0.00  0.00     0.139 C 
ATOM     37  C   UNL d   1      27.222 -13.437   2.918  0.00  0.00     0.035 C 
ATOM     38  C   UNL d   1      26.931 -12.213   2.092  0.00  0.00     0.029 C 
ATOM     39  C   UNL d   1      26.405 -12.799   0.800  0.00  0.00     0.168 C 
ATOM     40  O   UNL d   1      27.003 -14.096   0.648  0.00  0.00    -0.384 OA
ENDBRANCH  35  36
ENDBRANCH  33  35
ENDBRANCH  29  31
ENDBRANCH   3  25
TORSDOF 9
ENDMDL
