MODEL 1
REMARK VINA RESULT:    -8.441      0.000      0.000
REMARK INTER + INTRA:         -10.298
REMARK INTER:                  -9.336
REMARK INTRA:                  -0.962
REMARK CONF_INDEPENDENT:        0.895
REMARK UNBOUND:                -0.962
REMARK  3 active torsions:
REMARK  status: ('A' for Active; 'I' for Inactive)
REMARK       I    between atoms: C_2  and  N_3 
REMARK    1  A    between atoms: C_2  and  C_15 
REMARK    2  A    between atoms: N_3  and  N_4 
REMARK       I    between atoms: N_4  and  C_5 
REMARK    3  A    between atoms: C_5  and  C_7 
ROOT
ATOM      1  N   UNL d   1      23.351 -18.029  -0.958  0.00  0.00    -0.263 N 
ATOM      2  C   UNL d   1      24.635 -17.927  -0.436  0.00  0.00     0.273 C 
ATOM      3  O   UNL d   1      24.991 -18.509   0.588  0.00  0.00    -0.266 OA
ATOM      4  H   UNL d   1      23.058 -17.607  -1.838  0.00  0.00     0.190 HD
ENDROOT
BRANCH   1   5
ATOM      5  N   UNL d   1      22.376 -18.812  -0.282  0.00  0.00    -0.263 N 
ATOM      6  C   UNL d   1      21.023 -18.578  -0.506  0.00  0.00     0.270 C 
ATOM      7  O   UNL d   1      20.610 -17.703  -1.269  0.00  0.00    -0.266 OA
ATOM      8  H   UNL d   1      22.725 -19.614   0.240  0.00  0.00     0.190 HD
BRANCH   6   9
ATOM      9  C   UNL d   1      20.062 -19.498   0.187  0.00  0.00     0.033 A 
ATOM     10  C   UNL d   1      19.023 -20.120  -0.514  0.00  0.00     0.017 A 
ATOM     11  C   UNL d   1      18.029 -20.826   0.176  0.00  0.00     0.001 A 
ATOM     12  C   UNL d   1      18.117 -20.995   1.557  0.00  0.00     0.000 A 
ATOM     13  C   UNL d   1      19.194 -20.450   2.254  0.00  0.00     0.001 A 
ATOM     14  C   UNL d   1      20.168 -19.708   1.572  0.00  0.00     0.017 A 
ENDBRANCH   6   9
ENDBRANCH   1   5
BRANCH   2  15
ATOM     15  C   UNL d   1      25.631 -17.122  -1.202  0.00  0.00     0.072 A 
ATOM     16  C   UNL d   1      25.200 -16.351  -2.295  0.00  0.00     0.022 A 
ATOM     17  C   UNL d   1      26.108 -15.559  -3.014  0.00  0.00     0.025 A 
ATOM     18  C   UNL d   1      27.460 -15.567  -2.671  0.00  0.00     0.037 A 
ATOM     19 CL   UNL d   1      28.569 -14.579  -3.542  0.00  0.00    -0.084 Cl
ATOM     20  C   UNL d   1      27.910 -16.368  -1.625  0.00  0.00     0.067 A 
ATOM     21  C   UNL d   1      26.993 -17.135  -0.895  0.00  0.00     0.133 A 
ATOM     22  F   UNL d   1      27.460 -17.903   0.098  0.00  0.00    -0.205 F 
ENDBRANCH   2  15
TORSDOF 3
ENDMDL
MODEL 2
REMARK VINA RESULT:    -8.348      1.061      1.502
REMARK INTER + INTRA:         -10.374
REMARK INTER:                  -9.242
REMARK INTRA:                  -1.132
REMARK CONF_INDEPENDENT:        0.895
REMARK UNBOUND:                -1.132
REMARK  3 active torsions:
REMARK  status: ('A' for Active; 'I' for Inactive)
REMARK       I    between atoms: C_2  and  N_3 
REMARK    1  A    between atoms: C_2  and  C_15 
REMARK    2  A    between atoms: N_3  and  N_4 
REMARK       I    between atoms: N_4  and  C_5 
REMARK    3  A    between atoms: C_5  and  C_7 
ROOT
ATOM      1  N   UNL d   1      23.369 -17.942  -0.676  0.00  0.00    -0.263 N 
ATOM      2  C   UNL d   1      24.660 -17.908  -0.162  0.00  0.00     0.273 C 
ATOM      3  O   UNL d   1      25.005 -18.550   0.829  0.00  0.00    -0.266 OA
ATOM      4  H   UNL d   1      23.083 -17.468  -1.531  0.00  0.00     0.190 HD
ENDROOT
BRANCH   1   5
ATOM      5  N   UNL d   1      22.374 -18.725  -0.029  0.00  0.00    -0.263 N 
ATOM      6  C   UNL d   1      21.039 -18.591  -0.398  0.00  0.00     0.270 C 
ATOM      7  O   UNL d   1      20.659 -17.808  -1.270  0.00  0.00    -0.266 OA
ATOM      8  H   UNL d   1      22.711 -19.460   0.591  0.00  0.00     0.190 HD
BRANCH   6   9
ATOM      9  C   UNL d   1      20.064 -19.507   0.279  0.00  0.00     0.033 A 
ATOM     10  C   UNL d   1      19.036 -20.129  -0.440  0.00  0.00     0.017 A 
ATOM     11  C   UNL d   1      18.029 -20.831   0.234  0.00  0.00     0.001 A 
ATOM     12  C   UNL d   1      18.091 -20.998   1.616  0.00  0.00     0.000 A 
ATOM     13  C   UNL d   1      19.156 -20.454   2.332  0.00  0.00     0.001 A 
ATOM     14  C   UNL d   1      20.144 -19.715   1.666  0.00  0.00     0.017 A 
ENDBRANCH   6   9
ENDBRANCH   1   5
BRANCH   2  15
ATOM     15  C   UNL d   1      25.676 -17.099  -0.898  0.00  0.00     0.072 A 
ATOM     16  C   UNL d   1      27.042 -17.339  -0.672  0.00  0.00     0.022 A 
ATOM     17  C   UNL d   1      28.021 -16.618  -1.373  0.00  0.00     0.025 A 
ATOM     18  C   UNL d   1      27.638 -15.622  -2.271  0.00  0.00     0.037 A 
ATOM     19 CL   UNL d   1      28.841 -14.751  -3.145  0.00  0.00    -0.084 Cl
ATOM     20  C   UNL d   1      26.290 -15.336  -2.464  0.00  0.00     0.067 A 
ATOM     21  C   UNL d   1      25.319 -16.079  -1.781  0.00  0.00     0.133 A 
ATOM     22  F   UNL d   1      24.030 -15.772  -1.981  0.00  0.00    -0.205 F 
ENDBRANCH   2  15
TORSDOF 3
ENDMDL
MODEL 3
REMARK VINA RESULT:    -6.685      3.720      8.257
REMARK INTER + INTRA:          -8.749
REMARK INTER:                  -7.580
REMARK INTRA:                  -1.169
REMARK CONF_INDEPENDENT:        0.895
REMARK UNBOUND:                -1.169
REMARK  3 active torsions:
REMARK  status: ('A' for Active; 'I' for Inactive)
REMARK       I    between atoms: C_2  and  N_3 
REMARK    1  A    between atoms: C_2  and  C_15 
REMARK    2  A    between atoms: N_3  and  N_4 
REMARK       I    between atoms: N_4  and  C_5 
REMARK    3  A    between atoms: C_5  and  C_7 
ROOT
ATOM      1  N   UNL d   1      23.420 -18.304   0.184  0.00  0.00    -0.263 N 
ATOM      2  C   UNL d   1      22.141 -18.010  -0.273  0.00  0.00     0.273 C 
ATOM      3  O   UNL d   1      21.895 -17.055  -1.009  0.00  0.00    -0.266 OA
ATOM      4  H   UNL d   1      23.652 -19.126   0.740  0.00  0.00     0.190 HD
ENDROOT
BRANCH   1   5
ATOM      5  N   UNL d   1      24.508 -17.463  -0.176  0.00  0.00    -0.263 N 
ATOM      6  C   UNL d   1      25.814 -17.875   0.072  0.00  0.00     0.270 C 
ATOM      7  O   UNL d   1      26.088 -18.950   0.607  0.00  0.00    -0.266 OA
ATOM      8  H   UNL d   1      24.278 -16.642  -0.734  0.00  0.00     0.190 HD
BRANCH   6   9
ATOM      9  C   UNL d   1      26.904 -16.963  -0.407  0.00  0.00     0.033 A 
ATOM     10  C   UNL d   1      26.608 -15.793  -1.117  0.00  0.00     0.017 A 
ATOM     11  C   UNL d   1      27.635 -15.052  -1.715  0.00  0.00     0.001 A 
ATOM     12  C   UNL d   1      28.967 -15.417  -1.528  0.00  0.00     0.000 A 
ATOM     13  C   UNL d   1      29.276 -16.533  -0.751  0.00  0.00     0.001 A 
ATOM     14  C   UNL d   1      28.249 -17.302  -0.187  0.00  0.00     0.017 A 
ENDBRANCH   6   9
ENDBRANCH   1   5
BRANCH   2  15
ATOM     15  C   UNL d   1      21.040 -18.944   0.104  0.00  0.00     0.072 A 
ATOM     16  C   UNL d   1      20.825 -19.244   1.460  0.00  0.00     0.022 A 
ATOM     17  C   UNL d   1      19.776 -20.093   1.847  0.00  0.00     0.025 A 
ATOM     18  C   UNL d   1      18.966 -20.682   0.877  0.00  0.00     0.037 A 
ATOM     19 CL   UNL d   1      17.668 -21.708   1.355  0.00  0.00    -0.084 Cl
ATOM     20  C   UNL d   1      19.202 -20.437  -0.473  0.00  0.00     0.067 A 
ATOM     21  C   UNL d   1      20.233 -19.567  -0.850  0.00  0.00     0.133 A 
ATOM     22  F   UNL d   1      20.441 -19.361  -2.157  0.00  0.00    -0.205 F 
ENDBRANCH   2  15
TORSDOF 3
ENDMDL
MODEL 4
REMARK VINA RESULT:    -6.532      3.648      8.026
REMARK INTER + INTRA:          -8.003
REMARK INTER:                  -7.427
REMARK INTRA:                  -0.576
REMARK CONF_INDEPENDENT:        0.895
REMARK UNBOUND:                -0.576
REMARK  3 active torsions:
REMARK  status: ('A' for Active; 'I' for Inactive)
REMARK       I    between atoms: C_2  and  N_3 
REMARK    1  A    between atoms: C_2  and  C_15 
REMARK    2  A    between atoms: N_3  and  N_4 
REMARK       I    between atoms: N_4  and  C_5 
REMARK    3  A    between atoms: C_5  and  C_7 
ROOT
ATOM      1  N   UNL d   1      23.496 -18.540   0.289  0.00  0.00    -0.263 N 
ATOM      2  C   UNL d   1      22.261 -18.017  -0.073  0.00  0.00     0.273 C 
ATOM      3  O   UNL d   1      22.126 -16.908  -0.588  0.00  0.00    -0.266 OA
ATOM      4  H   UNL d   1      23.632 -19.480   0.657  0.00  0.00     0.190 HD
ENDROOT
BRANCH   1   5
ATOM      5  N   UNL d   1      24.673 -17.767   0.092  0.00  0.00    -0.263 N 
ATOM      6  C   UNL d   1      25.011 -17.333  -1.186  0.00  0.00     0.270 C 
ATOM      7  O   UNL d   1      24.335 -17.592  -2.183  0.00  0.00    -0.266 OA
ATOM      8  H   UNL d   1      25.149 -17.448   0.934  0.00  0.00     0.190 HD
BRANCH   6   9
ATOM      9  C   UNL d   1      26.226 -16.461  -1.295  0.00  0.00     0.033 A 
ATOM     10  C   UNL d   1      27.398 -16.763  -0.592  0.00  0.00     0.017 A 
ATOM     11  C   UNL d   1      28.456 -15.846  -0.558  0.00  0.00     0.001 A 
ATOM     12  C   UNL d   1      28.391 -14.668  -1.301  0.00  0.00     0.000 A 
ATOM     13  C   UNL d   1      27.262 -14.398  -2.072  0.00  0.00     0.001 A 
ATOM     14  C   UNL d   1      26.183 -15.294  -2.075  0.00  0.00     0.017 A 
ENDBRANCH   6   9
ENDBRANCH   1   5
BRANCH   2  15
ATOM     15  C   UNL d   1      21.060 -18.882   0.121  0.00  0.00     0.072 A 
ATOM     16  C   UNL d   1      20.279 -19.236  -0.993  0.00  0.00     0.022 A 
ATOM     17  C   UNL d   1      19.163 -20.075  -0.846  0.00  0.00     0.025 A 
ATOM     18  C   UNL d   1      18.796 -20.527   0.421  0.00  0.00     0.037 A 
ATOM     19 CL   UNL d   1      17.438 -21.571   0.596  0.00  0.00    -0.084 Cl
ATOM     20  C   UNL d   1      19.528 -20.139   1.540  0.00  0.00     0.067 A 
ATOM     21  C   UNL d   1      20.656 -19.324   1.382  0.00  0.00     0.133 A 
ATOM     22  F   UNL d   1      21.332 -18.960   2.480  0.00  0.00    -0.205 F 
ENDBRANCH   2  15
TORSDOF 3
ENDMDL
MODEL 5
REMARK VINA RESULT:    -6.294      4.188      8.999
REMARK INTER + INTRA:          -8.369
REMARK INTER:                  -7.189
REMARK INTRA:                  -1.180
REMARK CONF_INDEPENDENT:        0.895
REMARK UNBOUND:                -1.180
REMARK  3 active torsions:
REMARK  status: ('A' for Active; 'I' for Inactive)
REMARK       I    between atoms: C_2  and  N_3 
REMARK    1  A    between atoms: C_2  and  C_15 
REMARK    2  A    between atoms: N_3  and  N_4 
REMARK       I    between atoms: N_4  and  C_5 
REMARK    3  A    between atoms: C_5  and  C_7 
ROOT
ATOM      1  N   UNL d   1      25.849 -15.954  -3.050  0.00  0.00    -0.263 N 
ATOM      2  C   UNL d   1      25.672 -16.019  -1.674  0.00  0.00     0.273 C 
ATOM      3  O   UNL d   1      26.365 -15.386  -0.878  0.00  0.00    -0.266 OA
ATOM      4  H   UNL d   1      25.244 -16.420  -3.726  0.00  0.00     0.190 HD
ENDROOT
BRANCH   1   5
ATOM      5  N   UNL d   1      26.889 -15.149  -3.590  0.00  0.00    -0.263 N 
ATOM      6  C   UNL d   1      27.017 -15.017  -4.970  0.00  0.00     0.270 C 
ATOM      7  O   UNL d   1      26.267 -15.576  -5.770  0.00  0.00    -0.266 OA
ATOM      8  H   UNL d   1      27.417 -14.588  -2.924  0.00  0.00     0.190 HD
BRANCH   6   9
ATOM      9  C   UNL d   1      28.092 -14.090  -5.454  0.00  0.00     0.033 A 
ATOM     10  C   UNL d   1      28.088 -12.734  -5.107  0.00  0.00     0.017 A 
ATOM     11  C   UNL d   1      28.989 -11.848  -5.713  0.00  0.00     0.001 A 
ATOM     12  C   UNL d   1      29.959 -12.324  -6.594  0.00  0.00     0.000 A 
ATOM     13  C   UNL d   1      30.024 -13.686  -6.881  0.00  0.00     0.001 A 
ATOM     14  C   UNL d   1      29.098 -14.570  -6.309  0.00  0.00     0.017 A 
ENDBRANCH   6   9
ENDBRANCH   1   5
BRANCH   2  15
ATOM     15  C   UNL d   1      24.544 -16.849  -1.159  0.00  0.00     0.072 A 
ATOM     16  C   UNL d   1      23.239 -16.327  -1.179  0.00  0.00     0.022 A 
ATOM     17  C   UNL d   1      22.154 -17.096  -0.732  0.00  0.00     0.025 A 
ATOM     18  C   UNL d   1      22.373 -18.375  -0.221  0.00  0.00     0.037 A 
ATOM     19 CL   UNL d   1      21.037 -19.325   0.309  0.00  0.00    -0.084 Cl
ATOM     20  C   UNL d   1      23.666 -18.884  -0.145  0.00  0.00     0.067 A 
ATOM     21  C   UNL d   1      24.741 -18.121  -0.618  0.00  0.00     0.133 A 
ATOM     22  F   UNL d   1      25.974 -18.635  -0.520  0.00  0.00    -0.205 F 
ENDBRANCH   2  15
TORSDOF 3
ENDMDL
MODEL 6
REMARK VINA RESULT:    -6.119      5.671      9.467
REMARK INTER + INTRA:          -8.195
REMARK INTER:                  -7.014
REMARK INTRA:                  -1.181
REMARK CONF_INDEPENDENT:        0.895
REMARK UNBOUND:                -1.181
REMARK  3 active torsions:
REMARK  status: ('A' for Active; 'I' for Inactive)
REMARK       I    between atoms: C_2  and  N_3 
REMARK    1  A    between atoms: C_2  and  C_15 
REMARK    2  A    between atoms: N_3  and  N_4 
REMARK       I    between atoms: N_4  and  C_5 
REMARK    3  A    between atoms: C_5  and  C_7 
ROOT
ATOM      1  N   UNL d   1      25.586 -12.898  -2.901  0.00  0.00    -0.263 N 
ATOM      2  C   UNL d   1      25.146 -14.178  -3.218  0.00  0.00     0.273 C 
ATOM      3  O   UNL d   1      24.539 -14.440  -4.255  0.00  0.00    -0.266 OA
ATOM      4  H   UNL d   1      26.145 -12.675  -2.078  0.00  0.00     0.190 HD
ENDROOT
BRANCH   1   5
ATOM      5  N   UNL d   1      25.311 -11.819  -3.784  0.00  0.00    -0.263 N 
ATOM      6  C   UNL d   1      25.914 -10.583  -3.576  0.00  0.00     0.270 C 
ATOM      7  O   UNL d   1      26.688 -10.361  -2.643  0.00  0.00    -0.266 OA
ATOM      8  H   UNL d   1      24.779 -12.047  -4.623  0.00  0.00     0.190 HD
BRANCH   6   9
ATOM      9  C   UNL d   1      25.629  -9.521  -4.596  0.00  0.00     0.033 A 
ATOM     10  C   UNL d   1      24.764  -8.458  -4.311  0.00  0.00     0.017 A 
ATOM     11  C   UNL d   1      24.365  -7.581  -5.328  0.00  0.00     0.001 A 
ATOM     12  C   UNL d   1      24.900  -7.700  -6.610  0.00  0.00     0.000 A 
ATOM     13  C   UNL d   1      25.827  -8.704  -6.882  0.00  0.00     0.001 A 
ATOM     14  C   UNL d   1      26.196  -9.610  -5.878  0.00  0.00     0.017 A 
ENDBRANCH   6   9
ENDBRANCH   1   5
BRANCH   2  15
ATOM     15  C   UNL d   1      25.492 -15.282  -2.275  0.00  0.00     0.072 A 
ATOM     16  C   UNL d   1      26.830 -15.697  -2.162  0.00  0.00     0.022 A 
ATOM     17  C   UNL d   1      27.190 -16.711  -1.261  0.00  0.00     0.025 A 
ATOM     18  C   UNL d   1      26.208 -17.345  -0.500  0.00  0.00     0.037 A 
ATOM     19 CL   UNL d   1      26.655 -18.575   0.620  0.00  0.00    -0.084 Cl
ATOM     20  C   UNL d   1      24.872 -16.981  -0.642  0.00  0.00     0.067 A 
ATOM     21  C   UNL d   1      24.524 -15.950  -1.523  0.00  0.00     0.133 A 
ATOM     22  F   UNL d   1      23.228 -15.632  -1.645  0.00  0.00    -0.205 F 
ENDBRANCH   2  15
TORSDOF 3
ENDMDL
MODEL 7
REMARK VINA RESULT:    -6.044      4.120      5.791
REMARK INTER + INTRA:          -8.116
REMARK INTER:                  -6.939
REMARK INTRA:                  -1.177
REMARK CONF_INDEPENDENT:        0.895
REMARK UNBOUND:                -1.177
REMARK  3 active torsions:
REMARK  status: ('A' for Active; 'I' for Inactive)
REMARK       I    between atoms: C_2  and  N_3 
REMARK    1  A    between atoms: C_2  and  C_15 
REMARK    2  A    between atoms: N_3  and  N_4 
REMARK       I    between atoms: N_4  and  C_5 
REMARK    3  A    between atoms: C_5  and  C_7 
ROOT
ATOM      1  N   UNL d   1      26.529 -15.034  -3.671  0.00  0.00    -0.263 N 
ATOM      2  C   UNL d   1      26.659 -15.112  -5.052  0.00  0.00     0.273 C 
ATOM      3  O   UNL d   1      26.046 -15.928  -5.739  0.00  0.00    -0.266 OA
ATOM      4  H   UNL d   1      26.979 -14.324  -3.094  0.00  0.00     0.190 HD
ENDROOT
BRANCH   1   5
ATOM      5  N   UNL d   1      25.677 -15.947  -2.991  0.00  0.00    -0.263 N 
ATOM      6  C   UNL d   1      25.421 -15.776  -1.634  0.00  0.00     0.270 C 
ATOM      7  O   UNL d   1      25.909 -14.861  -0.969  0.00  0.00    -0.266 OA
ATOM      8  H   UNL d   1      25.177 -16.616  -3.574  0.00  0.00     0.190 HD
BRANCH   6   9
ATOM      9  C   UNL d   1      24.453 -16.738  -1.011  0.00  0.00     0.033 A 
ATOM     10  C   UNL d   1      24.873 -17.992  -0.552  0.00  0.00     0.017 A 
ATOM     11  C   UNL d   1      23.932 -18.945  -0.145  0.00  0.00     0.001 A 
ATOM     12  C   UNL d   1      22.577 -18.623  -0.102  0.00  0.00     0.000 A 
ATOM     13  C   UNL d   1      22.156 -17.348  -0.476  0.00  0.00     0.001 A 
ATOM     14  C   UNL d   1      23.092 -16.404  -0.925  0.00  0.00     0.017 A 
ENDBRANCH   6   9
ENDBRANCH   1   5
BRANCH   2  15
ATOM     15  C   UNL d   1      27.538 -14.108  -5.722  0.00  0.00     0.072 A 
ATOM     16  C   UNL d   1      27.177 -12.750  -5.695  0.00  0.00     0.022 A 
ATOM     17  C   UNL d   1      28.000 -11.779  -6.288  0.00  0.00     0.025 A 
ATOM     18  C   UNL d   1      29.165 -12.167  -6.949  0.00  0.00     0.037 A 
ATOM     19 CL   UNL d   1      30.182 -10.972  -7.659  0.00  0.00    -0.084 Cl
ATOM     20  C   UNL d   1      29.506 -13.514  -7.030  0.00  0.00     0.067 A 
ATOM     21  C   UNL d   1      28.694 -14.473  -6.413  0.00  0.00     0.133 A 
ATOM     22  F   UNL d   1      29.044 -15.762  -6.520  0.00  0.00    -0.205 F 
ENDBRANCH   2  15
TORSDOF 3
ENDMDL
MODEL 8
REMARK VINA RESULT:    -5.926      4.315      9.095
REMARK INTER + INTRA:          -8.015
REMARK INTER:                  -6.821
REMARK INTRA:                  -1.194
REMARK CONF_INDEPENDENT:        0.895
REMARK UNBOUND:                -1.194
REMARK  3 active torsions:
REMARK  status: ('A' for Active; 'I' for Inactive)
REMARK       I    between atoms: C_2  and  N_3 
REMARK    1  A    between atoms: C_2  and  C_15 
REMARK    2  A    between atoms: N_3  and  N_4 
REMARK       I    between atoms: N_4  and  C_5 
REMARK    3  A    between atoms: C_5  and  C_7 
ROOT
ATOM      1  N   UNL d   1      25.780 -16.064  -3.049  0.00  0.00    -0.263 N 
ATOM      2  C   UNL d   1      25.594 -16.102  -1.673  0.00  0.00     0.273 C 
ATOM      3  O   UNL d   1      26.297 -15.471  -0.884  0.00  0.00    -0.266 OA
ATOM      4  H   UNL d   1      25.169 -16.528  -3.720  0.00  0.00     0.190 HD
ENDROOT
BRANCH   1   5
ATOM      5  N   UNL d   1      26.841 -15.292  -3.596  0.00  0.00    -0.263 N 
ATOM      6  C   UNL d   1      26.941 -15.131  -4.975  0.00  0.00     0.270 C 
ATOM      7  O   UNL d   1      26.147 -15.638  -5.769  0.00  0.00    -0.266 OA
ATOM      8  H   UNL d   1      27.409 -14.771  -2.931  0.00  0.00     0.190 HD
BRANCH   6   9
ATOM      9  C   UNL d   1      28.044 -14.241  -5.465  0.00  0.00     0.033 A 
ATOM     10  C   UNL d   1      28.519 -13.182  -4.682  0.00  0.00     0.017 A 
ATOM     11  C   UNL d   1      29.415 -12.251  -5.224  0.00  0.00     0.001 A 
ATOM     12  C   UNL d   1      29.915 -12.424  -6.514  0.00  0.00     0.000 A 
ATOM     13  C   UNL d   1      29.512 -13.522  -7.271  0.00  0.00     0.001 A 
ATOM     14  C   UNL d   1      28.583 -14.433  -6.747  0.00  0.00     0.017 A 
ENDBRANCH   6   9
ENDBRANCH   1   5
BRANCH   2  15
ATOM     15  C   UNL d   1      24.445 -16.898  -1.151  0.00  0.00     0.072 A 
ATOM     16  C   UNL d   1      24.670 -18.200  -0.671  0.00  0.00     0.022 A 
ATOM     17  C   UNL d   1      23.614 -18.960  -0.144  0.00  0.00     0.025 A 
ATOM     18  C   UNL d   1      22.320 -18.440  -0.136  0.00  0.00     0.037 A 
ATOM     19 CL   UNL d   1      21.030 -19.367   0.528  0.00  0.00    -0.084 Cl
ATOM     20  C   UNL d   1      22.074 -17.173  -0.659  0.00  0.00     0.067 A 
ATOM     21  C   UNL d   1      23.137 -16.410  -1.157  0.00  0.00     0.133 A 
ATOM     22  F   UNL d   1      22.864 -15.200  -1.663  0.00  0.00    -0.205 F 
ENDBRANCH   2  15
TORSDOF 3
ENDMDL
MODEL 9
REMARK VINA RESULT:    -5.781      6.037      8.134
REMARK INTER + INTRA:          -7.869
REMARK INTER:                  -6.676
REMARK INTRA:                  -1.193
REMARK CONF_INDEPENDENT:        0.895
REMARK UNBOUND:                -1.193
REMARK  3 active torsions:
REMARK  status: ('A' for Active; 'I' for Inactive)
REMARK       I    between atoms: C_2  and  N_3 
REMARK    1  A    between atoms: C_2  and  C_15 
REMARK    2  A    between atoms: N_3  and  N_4 
REMARK       I    between atoms: N_4  and  C_5 
REMARK    3  A    between atoms: C_5  and  C_7 
ROOT
ATOM      1  N   UNL d   1      25.269 -12.143  -3.819  0.00  0.00    -0.263 N 
ATOM      2  C   UNL d   1      25.782 -10.878  -3.562  0.00  0.00     0.273 C 
ATOM      3  O   UNL d   1      26.446 -10.614  -2.561  0.00  0.00    -0.266 OA
ATOM      4  H   UNL d   1      24.772 -12.395  -4.673  0.00  0.00     0.190 HD
ENDROOT
BRANCH   1   5
ATOM      5  N   UNL d   1      25.480 -13.193  -2.884  0.00  0.00    -0.263 N 
ATOM      6  C   UNL d   1      25.210 -14.509  -3.246  0.00  0.00     0.270 C 
ATOM      7  O   UNL d   1      24.780 -14.824  -4.357  0.00  0.00    -0.266 OA
ATOM      8  H   UNL d   1      25.958 -12.938  -2.021  0.00  0.00     0.190 HD
BRANCH   6   9
ATOM      9  C   UNL d   1      25.532 -15.561  -2.228  0.00  0.00     0.033 A 
ATOM     10  C   UNL d   1      24.595 -16.541  -1.879  0.00  0.00     0.017 A 
ATOM     11  C   UNL d   1      24.840 -17.400  -0.800  0.00  0.00     0.001 A 
ATOM     12  C   UNL d   1      26.058 -17.351  -0.124  0.00  0.00     0.000 A 
ATOM     13  C   UNL d   1      27.032 -16.435  -0.518  0.00  0.00     0.001 A 
ATOM     14  C   UNL d   1      26.773 -15.545  -1.571  0.00  0.00     0.017 A 
ENDBRANCH   6   9
ENDBRANCH   1   5
BRANCH   2  15
ATOM     15  C   UNL d   1      25.563  -9.820  -4.593  0.00  0.00     0.072 A 
ATOM     16  C   UNL d   1      24.782  -8.697  -4.271  0.00  0.00     0.022 A 
ATOM     17  C   UNL d   1      24.585  -7.671  -5.208  0.00  0.00     0.025 A 
ATOM     18  C   UNL d   1      25.132  -7.784  -6.486  0.00  0.00     0.037 A 
ATOM     19 CL   UNL d   1      24.906  -6.514  -7.628  0.00  0.00    -0.084 Cl
ATOM     20  C   UNL d   1      25.862  -8.916  -6.836  0.00  0.00     0.067 A 
ATOM     21  C   UNL d   1      26.077  -9.923  -5.887  0.00  0.00     0.133 A 
ATOM     22  F   UNL d   1      26.774 -11.005  -6.258  0.00  0.00    -0.205 F 
ENDBRANCH   2  15
TORSDOF 3
ENDMDL
