MODEL 1
REMARK VINA RESULT:    -7.906      0.000      0.000
REMARK INTER + INTRA:         -10.662
REMARK INTER:                  -9.995
REMARK INTRA:                  -0.668
REMARK CONF_INDEPENDENT:        2.088
REMARK UNBOUND:                -0.668
REMARK  7 active torsions:
REMARK  status: ('A' for Active; 'I' for Inactive)
REMARK    1  A    between atoms: CA_3  and  C_2 
REMARK    2  A    between atoms: CA_3  and  N_6 
REMARK    3  A    between atoms: CA_3  and  C_4 
REMARK    4  A    between atoms: C_4  and  O_5 
REMARK       I    between atoms: N_6  and  C_7 
REMARK       I    between atoms: C_7  and  N_9 
REMARK    5  A    between atoms: N_9  and  C_10 
REMARK    6  A    between atoms: C_10  and  C_11 
REMARK    7  A    between atoms: C_14  and  N_15 
ROOT
ATOM      1  C   UNL d   1      24.266 -17.720  -0.872  0.00  0.00    -0.040 A 
ATOM      2  C   UNL d   1      24.633 -16.451  -1.331  0.00  0.00     0.011 A 
ATOM      3  C   UNL d   1      25.873 -15.885  -0.978  0.00  0.00     0.030 A 
ATOM      4  C   UNL d   1      26.761 -16.532  -0.109  0.00  0.00     0.030 A 
ATOM      5  C   UNL d   1      26.394 -17.809   0.331  0.00  0.00     0.030 A 
ATOM      6  C   UNL d   1      25.165 -18.391  -0.031  0.00  0.00     0.011 A 
ENDROOT
BRANCH   1   7
ATOM      7  C   UNL d   1      22.987 -18.388  -1.326  0.00  0.00     0.162 C 
BRANCH   7   8
ATOM      8  N   UNL d   1      22.357 -19.236  -0.328  0.00  0.00    -0.339 N 
ATOM      9  C   UNL d   1      20.990 -19.217  -0.193  0.00  0.00     0.316 C 
ATOM     10  N   UNL d   1      20.513 -19.970   0.859  0.00  0.00    -0.336 N 
ATOM     11  O   UNL d   1      20.269 -18.552  -0.924  0.00  0.00    -0.247 OA
ATOM     12  H   UNL d   1      21.137 -20.587   1.356  0.00  0.00     0.164 HD
ATOM     13  H   UNL d   1      22.926 -19.851   0.229  0.00  0.00     0.164 HD
BRANCH  10  14
ATOM     14  CA  UNL d   1      19.067 -20.047   1.163  0.00  0.00     0.109 C 
BRANCH  14  15
ATOM     15  C   UNL d   1      18.282 -20.862   0.100  0.00  0.00     0.189 C 
BRANCH  15  16
ATOM     16  O   UNL d   1      17.651 -22.033   0.606  0.00  0.00    -0.399 OA
ATOM     17  H   UNL d   1      16.943 -22.277  -0.015  0.00  0.00     0.209 HD
ENDBRANCH  15  16
ENDBRANCH  14  15
BRANCH  14  18
ATOM     18  C   UNL d   1      18.817 -20.450   2.642  0.00  0.00     0.023 C 
ATOM     19  C   UNL d   1      19.988 -20.451   3.610  0.00  0.00     0.007 C 
ENDBRANCH  14  18
ENDBRANCH  10  14
ENDBRANCH   7   8
ENDBRANCH   1   7
BRANCH   4  20
ATOM     20  N   UNL d   1      27.907 -15.916   0.348  0.00  0.00    -0.370 N 
ATOM     21  C   UNL d   1      29.227 -16.311  -0.141  0.00  0.00     0.143 C 
ATOM     22  C   UNL d   1      29.901 -15.052  -0.704  0.00  0.00     0.142 C 
ATOM     23  N   UNL d   1      29.983 -14.004   0.298  0.00  0.00    -0.358 N 
ATOM     24  C   UNL d   1      28.997 -13.806   1.237  0.00  0.00     0.235 C 
ATOM     25  H   UNL d   1      30.659 -13.256   0.211  0.00  0.00     0.162 HD
ATOM     26  O   UNL d   1      29.059 -12.819   1.970  0.00  0.00    -0.272 OA
ATOM     27  C   UNL d   1      27.894 -14.883   1.400  0.00  0.00     0.225 C 
ENDBRANCH   4  20
TORSDOF 7
ENDMDL
MODEL 2
REMARK VINA RESULT:    -7.315      1.129      1.524
REMARK INTER + INTRA:         -10.679
REMARK INTER:                  -9.403
REMARK INTRA:                  -1.277
REMARK CONF_INDEPENDENT:        2.088
REMARK UNBOUND:                -1.277
REMARK  7 active torsions:
REMARK  status: ('A' for Active; 'I' for Inactive)
REMARK    1  A    between atoms: CA_3  and  C_2 
REMARK    2  A    between atoms: CA_3  and  N_6 
REMARK    3  A    between atoms: CA_3  and  C_4 
REMARK    4  A    between atoms: C_4  and  O_5 
REMARK       I    between atoms: N_6  and  C_7 
REMARK       I    between atoms: C_7  and  N_9 
REMARK    5  A    between atoms: N_9  and  C_10 
REMARK    6  A    between atoms: C_10  and  C_11 
REMARK    7  A    between atoms: C_14  and  N_15 
ROOT
ATOM      1  C   UNL d   1      24.210 -17.694  -1.008  0.00  0.00    -0.040 A 
ATOM      2  C   UNL d   1      24.408 -16.414  -1.540  0.00  0.00     0.011 A 
ATOM      3  C   UNL d   1      25.538 -15.653  -1.188  0.00  0.00     0.030 A 
ATOM      4  C   UNL d   1      26.476 -16.109  -0.252  0.00  0.00     0.030 A 
ATOM      5  C   UNL d   1      26.280 -17.396   0.260  0.00  0.00     0.030 A 
ATOM      6  C   UNL d   1      25.163 -18.173  -0.099  0.00  0.00     0.011 A 
ENDROOT
BRANCH   1   7
ATOM      7  C   UNL d   1      23.058 -18.568  -1.455  0.00  0.00     0.162 C 
BRANCH   7   8
ATOM      8  N   UNL d   1      22.450 -19.357  -0.397  0.00  0.00    -0.339 N 
ATOM      9  C   UNL d   1      21.091 -19.290  -0.203  0.00  0.00     0.316 C 
ATOM     10  N   UNL d   1      20.641 -19.987   0.898  0.00  0.00    -0.336 N 
ATOM     11  O   UNL d   1      20.359 -18.629  -0.925  0.00  0.00    -0.247 OA
ATOM     12  H   UNL d   1      21.269 -20.604   1.391  0.00  0.00     0.164 HD
ATOM     13  H   UNL d   1      23.025 -19.969   0.157  0.00  0.00     0.164 HD
BRANCH  10  14
ATOM     14  CA  UNL d   1      19.209 -20.006   1.269  0.00  0.00     0.109 C 
BRANCH  14  15
ATOM     15  C   UNL d   1      18.341 -20.778   0.239  0.00  0.00     0.189 C 
BRANCH  15  16
ATOM     16  O   UNL d   1      18.419 -20.274  -1.090  0.00  0.00    -0.399 OA
ATOM     17  H   UNL d   1      18.306 -19.309  -1.045  0.00  0.00     0.209 HD
ENDBRANCH  15  16
ENDBRANCH  14  15
BRANCH  14  18
ATOM     18  C   UNL d   1      19.012 -20.412   2.756  0.00  0.00     0.023 C 
ATOM     19  C   UNL d   1      20.222 -20.449   3.673  0.00  0.00     0.007 C 
ENDBRANCH  14  18
ENDBRANCH  10  14
ENDBRANCH   7   8
ENDBRANCH   1   7
BRANCH   4  20
ATOM     20  N   UNL d   1      27.503 -15.305   0.197  0.00  0.00    -0.370 N 
ATOM     21  C   UNL d   1      27.254 -14.212   1.136  0.00  0.00     0.143 C 
ATOM     22  C   UNL d   1      28.160 -14.442   2.354  0.00  0.00     0.142 C 
ATOM     23  N   UNL d   1      29.557 -14.520   1.966  0.00  0.00    -0.358 N 
ATOM     24  C   UNL d   1      29.961 -15.095   0.783  0.00  0.00     0.235 C 
ATOM     25  H   UNL d   1      30.291 -14.348   2.640  0.00  0.00     0.162 HD
ATOM     26  O   UNL d   1      31.164 -15.253   0.575  0.00  0.00    -0.272 OA
ATOM     27  C   UNL d   1      28.890 -15.436  -0.285  0.00  0.00     0.225 C 
ENDBRANCH   4  20
TORSDOF 7
ENDMDL
MODEL 3
REMARK VINA RESULT:    -7.218      2.015      2.572
REMARK INTER + INTRA:         -10.563
REMARK INTER:                  -9.306
REMARK INTRA:                  -1.256
REMARK CONF_INDEPENDENT:        2.088
REMARK UNBOUND:                -1.256
REMARK  7 active torsions:
REMARK  status: ('A' for Active; 'I' for Inactive)
REMARK    1  A    between atoms: CA_3  and  C_2 
REMARK    2  A    between atoms: CA_3  and  N_6 
REMARK    3  A    between atoms: CA_3  and  C_4 
REMARK    4  A    between atoms: C_4  and  O_5 
REMARK       I    between atoms: N_6  and  C_7 
REMARK       I    between atoms: C_7  and  N_9 
REMARK    5  A    between atoms: N_9  and  C_10 
REMARK    6  A    between atoms: C_10  and  C_11 
REMARK    7  A    between atoms: C_14  and  N_15 
ROOT
ATOM      1  C   UNL d   1      25.320 -16.957  -0.826  0.00  0.00    -0.040 A 
ATOM      2  C   UNL d   1      26.004 -17.901  -0.052  0.00  0.00     0.011 A 
ATOM      3  C   UNL d   1      27.401 -17.835   0.099  0.00  0.00     0.030 A 
ATOM      4  C   UNL d   1      28.173 -16.870  -0.560  0.00  0.00     0.030 A 
ATOM      5  C   UNL d   1      27.479 -15.919  -1.318  0.00  0.00     0.030 A 
ATOM      6  C   UNL d   1      26.079 -15.965  -1.460  0.00  0.00     0.011 A 
ENDROOT
BRANCH   1   7
ATOM      7  C   UNL d   1      23.809 -16.949  -0.914  0.00  0.00     0.162 C 
BRANCH   7   8
ATOM      8  N   UNL d   1      23.159 -18.100  -0.310  0.00  0.00    -0.339 N 
ATOM      9  C   UNL d   1      21.788 -18.189  -0.333  0.00  0.00     0.316 C 
ATOM     10  N   UNL d   1      21.278 -19.259   0.369  0.00  0.00    -0.336 N 
ATOM     11  O   UNL d   1      21.088 -17.359  -0.896  0.00  0.00    -0.247 OA
ATOM     12  H   UNL d   1      21.901 -19.973   0.716  0.00  0.00     0.164 HD
ATOM     13  H   UNL d   1      23.722 -18.833   0.088  0.00  0.00     0.164 HD
BRANCH  10  14
ATOM     14  CA  UNL d   1      19.820 -19.497   0.467  0.00  0.00     0.109 C 
BRANCH  14  15
ATOM     15  C   UNL d   1      19.134 -19.540  -0.925  0.00  0.00     0.189 C 
BRANCH  15  16
ATOM     16  O   UNL d   1      20.030 -19.701  -2.018  0.00  0.00    -0.399 OA
ATOM     17  H   UNL d   1      20.592 -18.907  -2.057  0.00  0.00     0.209 HD
ENDBRANCH  15  16
ENDBRANCH  14  15
BRANCH  14  18
ATOM     18  C   UNL d   1      19.500 -20.686   1.414  0.00  0.00     0.023 C 
ATOM     19  C   UNL d   1      18.207 -21.456   1.213  0.00  0.00     0.007 C 
ENDBRANCH  14  18
ENDBRANCH  10  14
ENDBRANCH   7   8
ENDBRANCH   1   7
BRANCH   4  20
ATOM     20  N   UNL d   1      29.551 -16.894  -0.525  0.00  0.00    -0.370 N 
ATOM     21  C   UNL d   1      30.305 -18.001  -1.113  0.00  0.00     0.143 C 
ATOM     22  C   UNL d   1      31.279 -17.397  -2.136  0.00  0.00     0.142 C 
ATOM     23  N   UNL d   1      32.149 -16.412  -1.519  0.00  0.00    -0.358 N 
ATOM     24  C   UNL d   1      31.718 -15.577  -0.514  0.00  0.00     0.235 C 
ATOM     25  H   UNL d   1      33.031 -16.162  -1.946  0.00  0.00     0.162 HD
ATOM     26  O   UNL d   1      32.460 -14.674  -0.128  0.00  0.00    -0.272 OA
ATOM     27  C   UNL d   1      30.352 -15.863   0.160  0.00  0.00     0.225 C 
ENDBRANCH   4  20
TORSDOF 7
ENDMDL
MODEL 4
REMARK VINA RESULT:    -6.534      3.012      3.732
REMARK INTER + INTRA:          -9.391
REMARK INTER:                  -8.622
REMARK INTRA:                  -0.770
REMARK CONF_INDEPENDENT:        2.088
REMARK UNBOUND:                -0.770
REMARK  7 active torsions:
REMARK  status: ('A' for Active; 'I' for Inactive)
REMARK    1  A    between atoms: CA_3  and  C_2 
REMARK    2  A    between atoms: CA_3  and  N_6 
REMARK    3  A    between atoms: CA_3  and  C_4 
REMARK    4  A    between atoms: C_4  and  O_5 
REMARK       I    between atoms: N_6  and  C_7 
REMARK       I    between atoms: C_7  and  N_9 
REMARK    5  A    between atoms: N_9  and  C_10 
REMARK    6  A    between atoms: C_10  and  C_11 
REMARK    7  A    between atoms: C_14  and  N_15 
ROOT
ATOM      1  C   UNL d   1      25.314 -17.311  -0.908  0.00  0.00    -0.040 A 
ATOM      2  C   UNL d   1      24.359 -16.568  -1.610  0.00  0.00     0.011 A 
ATOM      3  C   UNL d   1      24.735 -15.439  -2.363  0.00  0.00     0.030 A 
ATOM      4  C   UNL d   1      26.056 -14.976  -2.395  0.00  0.00     0.030 A 
ATOM      5  C   UNL d   1      27.007 -15.737  -1.704  0.00  0.00     0.030 A 
ATOM      6  C   UNL d   1      26.645 -16.877  -0.963  0.00  0.00     0.011 A 
ENDROOT
BRANCH   1   7
ATOM      7  C   UNL d   1      24.946 -18.586  -0.180  0.00  0.00     0.162 C 
BRANCH   7   8
ATOM      8  N   UNL d   1      23.752 -18.493   0.643  0.00  0.00    -0.339 N 
ATOM      9  C   UNL d   1      22.548 -18.917   0.134  0.00  0.00     0.316 C 
ATOM     10  N   UNL d   1      21.468 -18.673   0.956  0.00  0.00    -0.336 N 
ATOM     11  O   UNL d   1      22.448 -19.426  -0.973  0.00  0.00    -0.247 OA
ATOM     12  H   UNL d   1      21.620 -18.356   1.901  0.00  0.00     0.164 HD
ATOM     13  H   UNL d   1      23.827 -18.150   1.586  0.00  0.00     0.164 HD
BRANCH  10  14
ATOM     14  CA  UNL d   1      20.093 -19.046   0.557  0.00  0.00     0.109 C 
BRANCH  14  15
ATOM     15  C   UNL d   1      19.758 -18.606  -0.894  0.00  0.00     0.189 C 
BRANCH  15  16
ATOM     16  O   UNL d   1      20.313 -17.351  -1.270  0.00  0.00    -0.399 OA
ATOM     17  H   UNL d   1      19.906 -17.091  -2.114  0.00  0.00     0.209 HD
ENDBRANCH  15  16
ENDBRANCH  14  15
BRANCH  14  18
ATOM     18  C   UNL d   1      19.784 -20.530   0.900  0.00  0.00     0.023 C 
ATOM     19  C   UNL d   1      18.895 -20.838   2.092  0.00  0.00     0.007 C 
ENDBRANCH  14  18
ENDBRANCH  10  14
ENDBRANCH   7   8
ENDBRANCH   1   7
BRANCH   4  20
ATOM     20  N   UNL d   1      26.396 -13.792  -3.016  0.00  0.00    -0.370 N 
ATOM     21  C   UNL d   1      26.467 -13.693  -4.473  0.00  0.00     0.143 C 
ATOM     22  C   UNL d   1      25.527 -12.556  -4.900  0.00  0.00     0.142 C 
ATOM     23  N   UNL d   1      25.882 -11.307  -4.250  0.00  0.00    -0.358 N 
ATOM     24  C   UNL d   1      26.361 -11.257  -2.961  0.00  0.00     0.235 C 
ATOM     25  H   UNL d   1      25.593 -10.420  -4.643  0.00  0.00     0.162 HD
ATOM     26  O   UNL d   1      26.513 -10.162  -2.422  0.00  0.00    -0.272 OA
ATOM     27  C   UNL d   1      26.779 -12.580  -2.270  0.00  0.00     0.225 C 
ENDBRANCH   4  20
TORSDOF 7
ENDMDL
MODEL 5
REMARK VINA RESULT:    -6.380      5.914      9.252
REMARK INTER + INTRA:          -9.749
REMARK INTER:                  -8.468
REMARK INTRA:                  -1.281
REMARK CONF_INDEPENDENT:        2.088
REMARK UNBOUND:                -1.281
REMARK  7 active torsions:
REMARK  status: ('A' for Active; 'I' for Inactive)
REMARK    1  A    between atoms: CA_3  and  C_2 
REMARK    2  A    between atoms: CA_3  and  N_6 
REMARK    3  A    between atoms: CA_3  and  C_4 
REMARK    4  A    between atoms: C_4  and  O_5 
REMARK       I    between atoms: N_6  and  C_7 
REMARK       I    between atoms: C_7  and  N_9 
REMARK    5  A    between atoms: N_9  and  C_10 
REMARK    6  A    between atoms: C_10  and  C_11 
REMARK    7  A    between atoms: C_14  and  N_15 
ROOT
ATOM      1  C   UNL d   1      27.853 -13.570   4.572  0.00  0.00    -0.040 A 
ATOM      2  C   UNL d   1      27.791 -12.311   5.179  0.00  0.00     0.011 A 
ATOM      3  C   UNL d   1      28.300 -12.109   6.476  0.00  0.00     0.030 A 
ATOM      4  C   UNL d   1      28.829 -13.160   7.236  0.00  0.00     0.030 A 
ATOM      5  C   UNL d   1      28.903 -14.411   6.614  0.00  0.00     0.030 A 
ATOM      6  C   UNL d   1      28.415 -14.620   5.311  0.00  0.00     0.011 A 
ENDROOT
BRANCH   1   7
ATOM      7  C   UNL d   1      27.409 -13.783   3.141  0.00  0.00     0.162 C 
BRANCH   7   8
ATOM      8  N   UNL d   1      28.145 -14.809   2.423  0.00  0.00    -0.339 N 
ATOM      9  C   UNL d   1      27.791 -15.113   1.130  0.00  0.00     0.316 C 
ATOM     10  N   UNL d   1      28.478 -16.179   0.590  0.00  0.00    -0.336 N 
ATOM     11  O   UNL d   1      26.910 -14.510   0.534  0.00  0.00    -0.247 OA
ATOM     12  H   UNL d   1      29.270 -16.565   1.081  0.00  0.00     0.164 HD
ATOM     13  H   UNL d   1      28.926 -15.261   2.868  0.00  0.00     0.164 HD
BRANCH  10  14
ATOM     14  CA  UNL d   1      28.210 -16.655  -0.785  0.00  0.00     0.109 C 
BRANCH  14  15
ATOM     15  C   UNL d   1      29.403 -17.451  -1.380  0.00  0.00     0.189 C 
BRANCH  15  16
ATOM     16  O   UNL d   1      30.485 -17.648  -0.477  0.00  0.00    -0.399 OA
ATOM     17  H   UNL d   1      30.109 -17.918   0.378  0.00  0.00     0.209 HD
ENDBRANCH  15  16
ENDBRANCH  14  15
BRANCH  14  18
ATOM     18  C   UNL d   1      26.821 -17.346  -0.886  0.00  0.00     0.023 C 
ATOM     19  C   UNL d   1      26.264 -18.055   0.336  0.00  0.00     0.007 C 
ENDBRANCH  14  18
ENDBRANCH  10  14
ENDBRANCH   7   8
ENDBRANCH   1   7
BRANCH   4  20
ATOM     20  N   UNL d   1      29.194 -12.989   8.555  0.00  0.00    -0.370 N 
ATOM     21  C   UNL d   1      30.423 -12.285   8.917  0.00  0.00     0.143 C 
ATOM     22  C   UNL d   1      30.031 -11.134   9.856  0.00  0.00     0.142 C 
ATOM     23  N   UNL d   1      29.321 -11.626  11.023  0.00  0.00    -0.358 N 
ATOM     24  C   UNL d   1      28.453 -12.692  10.962  0.00  0.00     0.235 C 
ATOM     25  H   UNL d   1      29.276 -11.074  11.870  0.00  0.00     0.162 HD
ATOM     26  O   UNL d   1      27.780 -12.972  11.954  0.00  0.00    -0.272 OA
ATOM     27  C   UNL d   1      28.425 -13.558   9.677  0.00  0.00     0.225 C 
ENDBRANCH   4  20
TORSDOF 7
ENDMDL
MODEL 6
REMARK VINA RESULT:    -6.197      1.900      9.099
REMARK INTER + INTRA:          -9.590
REMARK INTER:                  -8.286
REMARK INTRA:                  -1.304
REMARK CONF_INDEPENDENT:        2.088
REMARK UNBOUND:                -1.304
REMARK  7 active torsions:
REMARK  status: ('A' for Active; 'I' for Inactive)
REMARK    1  A    between atoms: CA_3  and  C_2 
REMARK    2  A    between atoms: CA_3  and  N_6 
REMARK    3  A    between atoms: CA_3  and  C_4 
REMARK    4  A    between atoms: C_4  and  O_5 
REMARK       I    between atoms: N_6  and  C_7 
REMARK       I    between atoms: C_7  and  N_9 
REMARK    5  A    between atoms: N_9  and  C_10 
REMARK    6  A    between atoms: C_10  and  C_11 
REMARK    7  A    between atoms: C_14  and  N_15 
ROOT
ATOM      1  C   UNL d   1      25.620 -17.187  -0.585  0.00  0.00    -0.040 A 
ATOM      2  C   UNL d   1      24.568 -16.266  -0.622  0.00  0.00     0.011 A 
ATOM      3  C   UNL d   1      23.240 -16.677  -0.401  0.00  0.00     0.030 A 
ATOM      4  C   UNL d   1      22.906 -18.022  -0.197  0.00  0.00     0.030 A 
ATOM      5  C   UNL d   1      23.967 -18.934  -0.143  0.00  0.00     0.030 A 
ATOM      6  C   UNL d   1      25.299 -18.530  -0.345  0.00  0.00     0.011 A 
ENDROOT
BRANCH   1   7
ATOM      7  C   UNL d   1      27.063 -16.749  -0.716  0.00  0.00     0.162 C 
BRANCH   7   8
ATOM      8  N   UNL d   1      27.700 -16.377   0.536  0.00  0.00    -0.339 N 
ATOM      9  C   UNL d   1      27.545 -15.099   1.017  0.00  0.00     0.316 C 
ATOM     10  N   UNL d   1      28.287 -14.825   2.147  0.00  0.00    -0.336 N 
ATOM     11  O   UNL d   1      26.840 -14.270   0.460  0.00  0.00    -0.247 OA
ATOM     12  H   UNL d   1      28.760 -15.574   2.628  0.00  0.00     0.164 HD
ATOM     13  H   UNL d   1      28.219 -17.068   1.051  0.00  0.00     0.164 HD
BRANCH  10  14
ATOM     14  CA  UNL d   1      28.256 -13.492   2.788  0.00  0.00     0.109 C 
BRANCH  14  15
ATOM     15  C   UNL d   1      28.901 -13.499   4.200  0.00  0.00     0.189 C 
BRANCH  15  16
ATOM     16  O   UNL d   1      29.512 -14.733   4.560  0.00  0.00    -0.399 OA
ATOM     17  H   UNL d   1      29.583 -15.272   3.754  0.00  0.00     0.209 HD
ENDBRANCH  15  16
ENDBRANCH  14  15
BRANCH  14  18
ATOM     18  C   UNL d   1      28.761 -12.384   1.821  0.00  0.00     0.023 C 
ATOM     19  C   UNL d   1      29.326 -11.102   2.407  0.00  0.00     0.007 C 
ENDBRANCH  14  18
ENDBRANCH  10  14
ENDBRANCH   7   8
ENDBRANCH   1   7
BRANCH   4  20
ATOM     20  N   UNL d   1      21.594 -18.440  -0.123  0.00  0.00    -0.370 N 
ATOM     21  C   UNL d   1      20.689 -18.303  -1.263  0.00  0.00     0.143 C 
ATOM     22  C   UNL d   1      20.132 -19.700  -1.575  0.00  0.00     0.142 C 
ATOM     23  N   UNL d   1      19.468 -20.273  -0.417  0.00  0.00    -0.358 N 
ATOM     24  C   UNL d   1      19.914 -20.062   0.867  0.00  0.00     0.235 C 
ATOM     25  H   UNL d   1      18.786 -21.013  -0.527  0.00  0.00     0.162 HD
ATOM     26  O   UNL d   1      19.391 -20.684   1.791  0.00  0.00    -0.272 OA
ATOM     27  C   UNL d   1      20.995 -18.978   1.112  0.00  0.00     0.225 C 
ENDBRANCH   4  20
TORSDOF 7
ENDMDL
MODEL 7
REMARK VINA RESULT:    -5.951      3.404      9.273
REMARK INTER + INTRA:          -9.373
REMARK INTER:                  -8.039
REMARK INTRA:                  -1.335
REMARK CONF_INDEPENDENT:        2.088
REMARK UNBOUND:                -1.335
REMARK  7 active torsions:
REMARK  status: ('A' for Active; 'I' for Inactive)
REMARK    1  A    between atoms: CA_3  and  C_2 
REMARK    2  A    between atoms: CA_3  and  N_6 
REMARK    3  A    between atoms: CA_3  and  C_4 
REMARK    4  A    between atoms: C_4  and  O_5 
REMARK       I    between atoms: N_6  and  C_7 
REMARK       I    between atoms: C_7  and  N_9 
REMARK    5  A    between atoms: N_9  and  C_10 
REMARK    6  A    between atoms: C_10  and  C_11 
REMARK    7  A    between atoms: C_14  and  N_15 
ROOT
ATOM      1  C   UNL d   1      24.523 -17.259  -1.198  0.00  0.00    -0.040 A 
ATOM      2  C   UNL d   1      23.350 -16.500  -1.133  0.00  0.00     0.011 A 
ATOM      3  C   UNL d   1      22.191 -17.013  -0.520  0.00  0.00     0.030 A 
ATOM      4  C   UNL d   1      22.140 -18.316  -0.007  0.00  0.00     0.030 A 
ATOM      5  C   UNL d   1      23.324 -19.061  -0.061  0.00  0.00     0.030 A 
ATOM      6  C   UNL d   1      24.493 -18.550  -0.655  0.00  0.00     0.011 A 
ENDROOT
BRANCH   1   7
ATOM      7  C   UNL d   1      25.807 -16.686  -1.758  0.00  0.00     0.162 C 
BRANCH   7   8
ATOM      8  N   UNL d   1      25.853 -15.235  -1.809  0.00  0.00    -0.339 N 
ATOM      9  C   UNL d   1      25.665 -14.596  -3.011  0.00  0.00     0.316 C 
ATOM     10  N   UNL d   1      25.846 -13.230  -2.962  0.00  0.00    -0.336 N 
ATOM     11  O   UNL d   1      25.401 -15.202  -4.040  0.00  0.00    -0.247 OA
ATOM     12  H   UNL d   1      25.949 -12.771  -2.070  0.00  0.00     0.164 HD
ATOM     13  H   UNL d   1      25.990 -14.714  -0.959  0.00  0.00     0.164 HD
BRANCH  10  14
ATOM     14  CA  UNL d   1      25.702 -12.387  -4.170  0.00  0.00     0.109 C 
BRANCH  14  15
ATOM     15  C   UNL d   1      25.889 -10.877  -3.863  0.00  0.00     0.189 C 
BRANCH  15  16
ATOM     16  O   UNL d   1      26.279 -10.594  -2.524  0.00  0.00    -0.399 OA
ATOM     17  H   UNL d   1      27.227 -10.377  -2.534  0.00  0.00     0.209 HD
ENDBRANCH  15  16
ENDBRANCH  14  15
BRANCH  14  18
ATOM     18  C   UNL d   1      26.540 -12.944  -5.355  0.00  0.00     0.023 C 
ATOM     19  C   UNL d   1      28.006 -13.269  -5.127  0.00  0.00     0.007 C 
ENDBRANCH  14  18
ENDBRANCH  10  14
ENDBRANCH   7   8
ENDBRANCH   1   7
BRANCH   4  20
ATOM     20  N   UNL d   1      20.965 -18.865   0.463  0.00  0.00    -0.370 N 
ATOM     21  C   UNL d   1      19.914 -19.304  -0.453  0.00  0.00     0.143 C 
ATOM     22  C   UNL d   1      19.628 -20.782  -0.145  0.00  0.00     0.142 C 
ATOM     23  N   UNL d   1      19.252 -20.967   1.245  0.00  0.00    -0.358 N 
ATOM     24  C   UNL d   1      19.804 -20.222   2.262  0.00  0.00     0.235 C 
ATOM     25  H   UNL d   1      18.733 -21.786   1.535  0.00  0.00     0.162 HD
ATOM     26  O   UNL d   1      19.546 -20.520   3.428  0.00  0.00    -0.272 OA
ATOM     27  C   UNL d   1      20.655 -18.979   1.899  0.00  0.00     0.225 C 
ENDBRANCH   4  20
TORSDOF 7
ENDMDL
MODEL 8
REMARK VINA RESULT:    -5.800      5.743      8.720
REMARK INTER + INTRA:          -9.223
REMARK INTER:                  -7.888
REMARK INTRA:                  -1.335
REMARK CONF_INDEPENDENT:        2.088
REMARK UNBOUND:                -1.335
REMARK  7 active torsions:
REMARK  status: ('A' for Active; 'I' for Inactive)
REMARK    1  A    between atoms: CA_3  and  C_2 
REMARK    2  A    between atoms: CA_3  and  N_6 
REMARK    3  A    between atoms: CA_3  and  C_4 
REMARK    4  A    between atoms: C_4  and  O_5 
REMARK       I    between atoms: N_6  and  C_7 
REMARK       I    between atoms: C_7  and  N_9 
REMARK    5  A    between atoms: N_9  and  C_10 
REMARK    6  A    between atoms: C_10  and  C_11 
REMARK    7  A    between atoms: C_14  and  N_15 
ROOT
ATOM      1  C   UNL d   1      27.913 -13.513   4.267  0.00  0.00    -0.040 A 
ATOM      2  C   UNL d   1      27.796 -12.281   4.920  0.00  0.00     0.011 A 
ATOM      3  C   UNL d   1      28.246 -12.122   6.244  0.00  0.00     0.030 A 
ATOM      4  C   UNL d   1      28.768 -13.191   6.984  0.00  0.00     0.030 A 
ATOM      5  C   UNL d   1      28.897 -14.414   6.316  0.00  0.00     0.030 A 
ATOM      6  C   UNL d   1      28.468 -14.580   4.986  0.00  0.00     0.011 A 
ENDROOT
BRANCH   1   7
ATOM      7  C   UNL d   1      27.533 -13.677   2.811  0.00  0.00     0.162 C 
BRANCH   7   8
ATOM      8  N   UNL d   1      28.098 -14.848   2.163  0.00  0.00    -0.339 N 
ATOM      9  C   UNL d   1      27.463 -15.386   1.070  0.00  0.00     0.316 C 
ATOM     10  N   UNL d   1      28.022 -16.560   0.611  0.00  0.00    -0.336 N 
ATOM     11  O   UNL d   1      26.463 -14.882   0.580  0.00  0.00    -0.247 OA
ATOM     12  H   UNL d   1      28.909 -16.869   0.978  0.00  0.00     0.164 HD
ATOM     13  H   UNL d   1      28.965 -15.231   2.503  0.00  0.00     0.164 HD
BRANCH  10  14
ATOM     14  CA  UNL d   1      27.454 -17.286  -0.546  0.00  0.00     0.109 C 
BRANCH  14  15
ATOM     15  C   UNL d   1      26.264 -18.200  -0.145  0.00  0.00     0.189 C 
BRANCH  15  16
ATOM     16  O   UNL d   1      25.194 -17.521   0.503  0.00  0.00    -0.399 OA
ATOM     17  H   UNL d   1      25.255 -16.580   0.263  0.00  0.00     0.209 HD
ENDBRANCH  15  16
ENDBRANCH  14  15
BRANCH  14  18
ATOM     18  C   UNL d   1      27.197 -16.332  -1.746  0.00  0.00     0.023 C 
ATOM     19  C   UNL d   1      25.768 -16.102  -2.207  0.00  0.00     0.007 C 
ENDBRANCH  14  18
ENDBRANCH  10  14
ENDBRANCH   7   8
ENDBRANCH   1   7
BRANCH   4  20
ATOM     20  N   UNL d   1      29.074 -13.067   8.323  0.00  0.00    -0.370 N 
ATOM     21  C   UNL d   1      30.246 -12.312   8.765  0.00  0.00     0.143 C 
ATOM     22  C   UNL d   1      29.753 -11.235   9.743  0.00  0.00     0.142 C 
ATOM     23  N   UNL d   1      29.031 -11.825  10.856  0.00  0.00    -0.358 N 
ATOM     24  C   UNL d   1      28.231 -12.935  10.710  0.00  0.00     0.235 C 
ATOM     25  H   UNL d   1      28.923 -11.321  11.727  0.00  0.00     0.162 HD
ATOM     26  O   UNL d   1      27.541 -13.303  11.660  0.00  0.00    -0.272 OA
ATOM     27  C   UNL d   1      28.301 -13.735   9.385  0.00  0.00     0.225 C 
ENDBRANCH   4  20
TORSDOF 7
ENDMDL
MODEL 9
REMARK VINA RESULT:    -5.787      5.747      9.816
REMARK INTER + INTRA:          -9.105
REMARK INTER:                  -7.876
REMARK INTRA:                  -1.229
REMARK CONF_INDEPENDENT:        2.088
REMARK UNBOUND:                -1.229
REMARK  7 active torsions:
REMARK  status: ('A' for Active; 'I' for Inactive)
REMARK    1  A    between atoms: CA_3  and  C_2 
REMARK    2  A    between atoms: CA_3  and  N_6 
REMARK    3  A    between atoms: CA_3  and  C_4 
REMARK    4  A    between atoms: C_4  and  O_5 
REMARK       I    between atoms: N_6  and  C_7 
REMARK       I    between atoms: C_7  and  N_9 
REMARK    5  A    between atoms: N_9  and  C_10 
REMARK    6  A    between atoms: C_10  and  C_11 
REMARK    7  A    between atoms: C_14  and  N_15 
ROOT
ATOM      1  C   UNL d   1      26.384 -13.532  -3.680  0.00  0.00    -0.040 A 
ATOM      2  C   UNL d   1      25.036 -13.838  -3.465  0.00  0.00     0.011 A 
ATOM      3  C   UNL d   1      24.664 -14.982  -2.733  0.00  0.00     0.030 A 
ATOM      4  C   UNL d   1      25.611 -15.890  -2.245  0.00  0.00     0.030 A 
ATOM      5  C   UNL d   1      26.958 -15.566  -2.449  0.00  0.00     0.030 A 
ATOM      6  C   UNL d   1      27.341 -14.416  -3.163  0.00  0.00     0.011 A 
ENDROOT
BRANCH   1   7
ATOM      7  C   UNL d   1      26.806 -12.254  -4.371  0.00  0.00     0.162 C 
BRANCH   7   8
ATOM      8  N   UNL d   1      25.729 -11.307  -4.607  0.00  0.00    -0.339 N 
ATOM      9  C   UNL d   1      26.013  -9.964  -4.660  0.00  0.00     0.316 C 
ATOM     10  N   UNL d   1      24.903  -9.154  -4.771  0.00  0.00    -0.336 N 
ATOM     11  O   UNL d   1      27.154  -9.531  -4.573  0.00  0.00    -0.247 OA
ATOM     12  H   UNL d   1      24.000  -9.565  -4.953  0.00  0.00     0.164 HD
ATOM     13  H   UNL d   1      24.796 -11.648  -4.761  0.00  0.00     0.164 HD
BRANCH  10  14
ATOM     14  CA  UNL d   1      25.022  -7.680  -4.822  0.00  0.00     0.109 C 
BRANCH  14  15
ATOM     15  C   UNL d   1      23.673  -6.988  -5.152  0.00  0.00     0.189 C 
BRANCH  15  16
ATOM     16  O   UNL d   1      22.539  -7.846  -5.082  0.00  0.00    -0.399 OA
ATOM     17  H   UNL d   1      22.174  -7.923  -5.980  0.00  0.00     0.209 HD
ENDBRANCH  15  16
ENDBRANCH  14  15
BRANCH  14  18
ATOM     18  C   UNL d   1      25.777  -7.128  -3.581  0.00  0.00     0.023 C 
ATOM     19  C   UNL d   1      25.723  -7.911  -2.281  0.00  0.00     0.007 C 
ENDBRANCH  14  18
ENDBRANCH  10  14
ENDBRANCH   7   8
ENDBRANCH   1   7
BRANCH   4  20
ATOM     20  N   UNL d   1      25.239 -17.080  -1.655  0.00  0.00    -0.370 N 
ATOM     21  C   UNL d   1      26.077 -17.717  -0.639  0.00  0.00     0.143 C 
ATOM     22  C   UNL d   1      25.208 -17.910   0.613  0.00  0.00     0.142 C 
ATOM     23  N   UNL d   1      24.022 -18.692   0.316  0.00  0.00    -0.358 N 
ATOM     24  C   UNL d   1      23.356 -18.594  -0.884  0.00  0.00     0.235 C 
ATOM     25  H   UNL d   1      23.525 -19.176   1.052  0.00  0.00     0.162 HD
ATOM     26  O   UNL d   1      22.283 -19.180  -1.022  0.00  0.00    -0.272 OA
ATOM     27  C   UNL d   1      24.030 -17.825  -2.049  0.00  0.00     0.225 C 
ENDBRANCH   4  20
TORSDOF 7
ENDMDL
