MODEL 1
REMARK VINA RESULT:    -8.168      0.000      0.000
REMARK INTER + INTRA:         -16.421
REMARK INTER:                 -13.239
REMARK INTRA:                  -3.182
REMARK CONF_INDEPENDENT:        5.071
REMARK UNBOUND:                -3.182
REMARK  17 active torsions:
REMARK  status: ('A' for Active; 'I' for Inactive)
REMARK    1  A    between atoms: C_2  and  C_3 
REMARK    2  A    between atoms: C_3  and  C_4 
REMARK    3  A    between atoms: C_4  and  C_5 
REMARK    4  A    between atoms: C_5  and  C_6 
REMARK    5  A    between atoms: C_6  and  C_7 
REMARK    6  A    between atoms: C_7  and  C_8 
REMARK    7  A    between atoms: C_8  and  O_9 
REMARK    8  A    between atoms: O_9  and  C_10 
REMARK    9  A    between atoms: C_10  and  C_12 
REMARK   10  A    between atoms: C_15  and  N_16 
REMARK       I    between atoms: N_16  and  C_17 
REMARK   11  A    between atoms: C_17  and  C_19 
REMARK   12  A    between atoms: C_19  and  C_20 
REMARK   13  A    between atoms: C_20  and  C_21 
REMARK   14  A    between atoms: C_21  and  O_23 
REMARK   15  A    between atoms: O_23  and  C_24 
REMARK   16  A    between atoms: C_24  and  C_25 
REMARK   17  A    between atoms: C_25  and  C_27 
ROOT
ATOM      1  N   UNL d   1      26.937 -13.485  -1.285  0.00  0.00    -0.327 N 
ATOM      2  C   UNL d   1      26.925 -12.281  -1.998  0.00  0.00     0.222 C 
ATOM      3  O   UNL d   1      27.239 -11.186  -1.535  0.00  0.00    -0.273 OA
ATOM      4  H   UNL d   1      26.608 -14.327  -1.745  0.00  0.00     0.169 HD
ENDROOT
BRANCH   1   5
ATOM      5  C   UNL d   1      27.272 -13.588   0.109  0.00  0.00     0.034 A 
ATOM      6  C   UNL d   1      28.438 -14.240   0.543  0.00  0.00     0.030 A 
ATOM      7  C   UNL d   1      28.676 -14.450   1.931  0.00  0.00     0.020 A 
ATOM      8  C   UNL d   1      27.775 -13.964   2.894  0.00  0.00     0.039 A 
ATOM      9  C   UNL d   1      26.665 -13.258   2.465  0.00  0.00     0.020 A 
ATOM     10  C   UNL d   1      26.433 -13.072   1.102  0.00  0.00     0.030 A 
BRANCH   8  11
ATOM     11  C   UNL d   1      28.017 -14.066   4.357  0.00  0.00     0.293 C 
ATOM     12  O   UNL d   1      27.156 -14.422   5.155  0.00  0.00    -0.259 OA
BRANCH  11  13
ATOM     13  O   UNL d   1      29.305 -13.742   4.656  0.00  0.00    -0.318 OA
BRANCH  13  14
ATOM     14  C   UNL d   1      29.746 -14.145   5.967  0.00  0.00     0.179 C 
BRANCH  14  15
ATOM     15  C   UNL d   1      29.907 -12.917   6.865  0.00  0.00     0.027 C 
BRANCH  15  16
ATOM     16  C   UNL d   1      28.557 -12.261   7.160  0.00  0.00     0.002 C 
BRANCH  16  17
ATOM     17  C   UNL d   1      28.530 -11.650   8.558  0.00  0.00     0.000 C 
BRANCH  17  18
ATOM     18  C   UNL d   1      29.017 -12.656   9.597  0.00  0.00     0.000 C 
BRANCH  18  19
ATOM     19  C   UNL d   1      27.873 -13.085  10.506  0.00  0.00    -0.000 C 
BRANCH  19  20
ATOM     20  C   UNL d   1      28.154 -14.450  11.122  0.00  0.00    -0.005 C 
ATOM     21  C   UNL d   1      29.573 -14.891  10.815  0.00  0.00     0.005 C 
ENDBRANCH  19  20
ENDBRANCH  18  19
ENDBRANCH  17  18
ENDBRANCH  16  17
ENDBRANCH  15  16
ENDBRANCH  14  15
ENDBRANCH  13  14
ENDBRANCH  11  13
ENDBRANCH   8  11
ENDBRANCH   1   5
BRANCH   2  22
ATOM     22  C   UNL d   1      26.477 -12.326  -3.452  0.00  0.00     0.113 C 
BRANCH  22  23
ATOM     23  C   UNL d   1      27.270 -13.427  -4.207  0.00  0.00     0.120 C 
BRANCH  23  24
ATOM     24  C   UNL d   1      26.469 -14.696  -4.382  0.00  0.00     0.259 C 
ATOM     25  O   UNL d   1      26.493 -15.388  -5.392  0.00  0.00    -0.265 OA
BRANCH  24  26
ATOM     26  O   UNL d   1      25.718 -14.980  -3.278  0.00  0.00    -0.314 OA
BRANCH  26  27
ATOM     27  C   UNL d   1      25.861 -16.325  -2.779  0.00  0.00     0.262 C 
BRANCH  27  28
ATOM     28  C   UNL d   1      25.448 -16.450  -1.305  0.00  0.00     0.183 C 
ATOM     29  O   UNL d   1      26.092 -15.962  -0.378  0.00  0.00    -0.290 OA
BRANCH  28  30
ATOM     30  C   UNL d   1      24.201 -17.206  -0.970  0.00  0.00     0.012 A 
ATOM     31  C   UNL d   1      24.276 -18.568  -0.631  0.00  0.00     0.016 A 
ATOM     32  C   UNL d   1      23.105 -19.320  -0.458  0.00  0.00     0.020 A 
ATOM     33  C   UNL d   1      21.862 -18.698  -0.561  0.00  0.00     0.011 A 
ATOM     34 BR   UNL d   1      20.282 -19.670  -0.196  0.00  0.00    -0.051 Br
ATOM     35  C   UNL d   1      21.780 -17.347  -0.895  0.00  0.00     0.020 A 
ATOM     36  C   UNL d   1      22.947 -16.603  -1.104  0.00  0.00     0.016 A 
ENDBRANCH  28  30
ENDBRANCH  27  28
ENDBRANCH  26  27
ENDBRANCH  24  26
ENDBRANCH  23  24
ENDBRANCH  22  23
ENDBRANCH   2  22
TORSDOF 17
ENDMDL
MODEL 2
REMARK VINA RESULT:    -8.159      6.095      8.517
REMARK INTER + INTRA:         -16.495
REMARK INTER:                 -13.230
REMARK INTRA:                  -3.265
REMARK CONF_INDEPENDENT:        5.071
REMARK UNBOUND:                -3.265
REMARK  17 active torsions:
REMARK  status: ('A' for Active; 'I' for Inactive)
REMARK    1  A    between atoms: C_2  and  C_3 
REMARK    2  A    between atoms: C_3  and  C_4 
REMARK    3  A    between atoms: C_4  and  C_5 
REMARK    4  A    between atoms: C_5  and  C_6 
REMARK    5  A    between atoms: C_6  and  C_7 
REMARK    6  A    between atoms: C_7  and  C_8 
REMARK    7  A    between atoms: C_8  and  O_9 
REMARK    8  A    between atoms: O_9  and  C_10 
REMARK    9  A    between atoms: C_10  and  C_12 
REMARK   10  A    between atoms: C_15  and  N_16 
REMARK       I    between atoms: N_16  and  C_17 
REMARK   11  A    between atoms: C_17  and  C_19 
REMARK   12  A    between atoms: C_19  and  C_20 
REMARK   13  A    between atoms: C_20  and  C_21 
REMARK   14  A    between atoms: C_21  and  O_23 
REMARK   15  A    between atoms: O_23  and  C_24 
REMARK   16  A    between atoms: C_24  and  C_25 
REMARK   17  A    between atoms: C_25  and  C_27 
ROOT
ATOM      1  N   UNL d   1      25.420 -11.822  -3.903  0.00  0.00    -0.327 N 
ATOM      2  C   UNL d   1      25.844 -10.548  -3.511  0.00  0.00     0.222 C 
ATOM      3  O   UNL d   1      26.563 -10.313  -2.540  0.00  0.00    -0.273 OA
ATOM      4  H   UNL d   1      24.783 -11.904  -4.688  0.00  0.00     0.169 HD
ENDROOT
BRANCH   1   5
ATOM      5  C   UNL d   1      25.732 -13.027  -3.184  0.00  0.00     0.034 A 
ATOM      6  C   UNL d   1      26.797 -13.089  -2.270  0.00  0.00     0.030 A 
ATOM      7  C   UNL d   1      27.171 -14.328  -1.678  0.00  0.00     0.020 A 
ATOM      8  C   UNL d   1      26.452 -15.503  -1.956  0.00  0.00     0.039 A 
ATOM      9  C   UNL d   1      25.358 -15.423  -2.801  0.00  0.00     0.020 A 
ATOM     10  C   UNL d   1      25.010 -14.207  -3.389  0.00  0.00     0.030 A 
BRANCH   8  11
ATOM     11  C   UNL d   1      26.733 -16.803  -1.295  0.00  0.00     0.293 C 
ATOM     12  O   UNL d   1      27.830 -17.094  -0.828  0.00  0.00    -0.259 OA
BRANCH  11  13
ATOM     13  O   UNL d   1      25.616 -17.582  -1.267  0.00  0.00    -0.318 OA
BRANCH  13  14
ATOM     14  C   UNL d   1      25.331 -18.191   0.006  0.00  0.00     0.179 C 
BRANCH  14  15
ATOM     15  C   UNL d   1      23.818 -18.262   0.224  0.00  0.00     0.027 C 
BRANCH  15  16
ATOM     16  C   UNL d   1      23.055 -17.758  -1.003  0.00  0.00     0.002 C 
BRANCH  16  17
ATOM     17  C   UNL d   1      21.564 -18.068  -0.895  0.00  0.00     0.000 C 
BRANCH  17  18
ATOM     18  C   UNL d   1      21.332 -19.319  -0.053  0.00  0.00     0.000 C 
BRANCH  18  19
ATOM     19  C   UNL d   1      19.857 -19.701  -0.055  0.00  0.00    -0.000 C 
BRANCH  19  20
ATOM     20  C   UNL d   1      19.386 -20.048   1.352  0.00  0.00    -0.005 C 
ATOM     21  C   UNL d   1      18.406 -21.206   1.314  0.00  0.00     0.005 C 
ENDBRANCH  19  20
ENDBRANCH  18  19
ENDBRANCH  17  18
ENDBRANCH  16  17
ENDBRANCH  15  16
ENDBRANCH  14  15
ENDBRANCH  13  14
ENDBRANCH  11  13
ENDBRANCH   8  11
ENDBRANCH   1   5
BRANCH   2  22
ATOM     22  C   UNL d   1      25.370  -9.361  -4.336  0.00  0.00     0.113 C 
BRANCH  22  23
ATOM     23  C   UNL d   1      26.265  -9.213  -5.596  0.00  0.00     0.120 C 
BRANCH  23  24
ATOM     24  C   UNL d   1      26.132 -10.387  -6.538  0.00  0.00     0.259 C 
ATOM     25  O   UNL d   1      25.131 -11.087  -6.623  0.00  0.00    -0.265 OA
BRANCH  24  26
ATOM     26  O   UNL d   1      27.260 -10.572  -7.284  0.00  0.00    -0.314 OA
BRANCH  26  27
ATOM     27  C   UNL d   1      28.270 -11.390  -6.661  0.00  0.00     0.262 C 
BRANCH  27  28
ATOM     28  C   UNL d   1      28.426 -12.754  -7.349  0.00  0.00     0.183 C 
ATOM     29  O   UNL d   1      28.156 -12.950  -8.532  0.00  0.00    -0.290 OA
BRANCH  28  30
ATOM     30  C   UNL d   1      28.928 -13.911  -6.544  0.00  0.00     0.012 A 
ATOM     31  C   UNL d   1      30.132 -14.543  -6.899  0.00  0.00     0.016 A 
ATOM     32  C   UNL d   1      30.536 -15.715  -6.242  0.00  0.00     0.020 A 
ATOM     33  C   UNL d   1      29.772 -16.218  -5.191  0.00  0.00     0.011 A 
ATOM     34 BR   UNL d   1      30.378 -17.717  -4.211  0.00  0.00    -0.051 Br
ATOM     35  C   UNL d   1      28.578 -15.595  -4.832  0.00  0.00     0.020 A 
ATOM     36  C   UNL d   1      28.153 -14.446  -5.510  0.00  0.00     0.016 A 
ENDBRANCH  28  30
ENDBRANCH  27  28
ENDBRANCH  26  27
ENDBRANCH  24  26
ENDBRANCH  23  24
ENDBRANCH  22  23
ENDBRANCH   2  22
TORSDOF 17
ENDMDL
MODEL 3
REMARK VINA RESULT:    -8.087      3.528      9.070
REMARK INTER + INTRA:         -16.160
REMARK INTER:                 -13.158
REMARK INTRA:                  -3.002
REMARK CONF_INDEPENDENT:        5.071
REMARK UNBOUND:                -3.002
REMARK  17 active torsions:
REMARK  status: ('A' for Active; 'I' for Inactive)
REMARK    1  A    between atoms: C_2  and  C_3 
REMARK    2  A    between atoms: C_3  and  C_4 
REMARK    3  A    between atoms: C_4  and  C_5 
REMARK    4  A    between atoms: C_5  and  C_6 
REMARK    5  A    between atoms: C_6  and  C_7 
REMARK    6  A    between atoms: C_7  and  C_8 
REMARK    7  A    between atoms: C_8  and  O_9 
REMARK    8  A    between atoms: O_9  and  C_10 
REMARK    9  A    between atoms: C_10  and  C_12 
REMARK   10  A    between atoms: C_15  and  N_16 
REMARK       I    between atoms: N_16  and  C_17 
REMARK   11  A    between atoms: C_17  and  C_19 
REMARK   12  A    between atoms: C_19  and  C_20 
REMARK   13  A    between atoms: C_20  and  C_21 
REMARK   14  A    between atoms: C_21  and  O_23 
REMARK   15  A    between atoms: O_23  and  C_24 
REMARK   16  A    between atoms: C_24  and  C_25 
REMARK   17  A    between atoms: C_25  and  C_27 
ROOT
ATOM      1  N   UNL d   1      26.770  -9.972  -2.115  0.00  0.00    -0.327 N 
ATOM      2  C   UNL d   1      26.199  -8.798  -2.619  0.00  0.00     0.222 C 
ATOM      3  O   UNL d   1      25.458  -8.742  -3.599  0.00  0.00    -0.273 OA
ATOM      4  H   UNL d   1      27.412  -9.905  -1.333  0.00  0.00     0.169 HD
ENDROOT
BRANCH   1   5
ATOM      5  C   UNL d   1      26.602 -11.267  -2.714  0.00  0.00     0.034 A 
ATOM      6  C   UNL d   1      25.547 -11.541  -3.601  0.00  0.00     0.030 A 
ATOM      7  C   UNL d   1      25.321 -12.865  -4.070  0.00  0.00     0.020 A 
ATOM      8  C   UNL d   1      26.178 -13.915  -3.698  0.00  0.00     0.039 A 
ATOM      9  C   UNL d   1      27.260 -13.627  -2.883  0.00  0.00     0.020 A 
ATOM     10  C   UNL d   1      27.462 -12.328  -2.415  0.00  0.00     0.030 A 
BRANCH   8  11
ATOM     11  C   UNL d   1      26.052 -15.295  -4.232  0.00  0.00     0.293 C 
ATOM     12  O   UNL d   1      26.262 -15.581  -5.407  0.00  0.00    -0.259 OA
BRANCH  11  13
ATOM     13  O   UNL d   1      25.707 -16.166  -3.243  0.00  0.00    -0.318 OA
BRANCH  13  14
ATOM     14  C   UNL d   1      24.780 -15.646  -2.271  0.00  0.00     0.179 C 
BRANCH  14  15
ATOM     15  C   UNL d   1      24.561 -16.672  -1.157  0.00  0.00     0.027 C 
BRANCH  15  16
ATOM     16  C   UNL d   1      23.123 -16.632  -0.639  0.00  0.00     0.002 C 
BRANCH  16  17
ATOM     17  C   UNL d   1      22.715 -17.970  -0.028  0.00  0.00     0.000 C 
BRANCH  17  18
ATOM     18  C   UNL d   1      22.190 -18.917  -1.103  0.00  0.00     0.000 C 
BRANCH  18  19
ATOM     19  C   UNL d   1      20.676 -19.055  -1.004  0.00  0.00    -0.000 C 
BRANCH  19  20
ATOM     20  C   UNL d   1      20.263 -19.497   0.394  0.00  0.00    -0.005 C 
ATOM     21  C   UNL d   1      19.242 -20.616   0.318  0.00  0.00     0.005 C 
ENDBRANCH  19  20
ENDBRANCH  18  19
ENDBRANCH  17  18
ENDBRANCH  16  17
ENDBRANCH  15  16
ENDBRANCH  14  15
ENDBRANCH  13  14
ENDBRANCH  11  13
ENDBRANCH   8  11
ENDBRANCH   1   5
BRANCH   2  22
ATOM     22  C   UNL d   1      26.531  -7.492  -1.913  0.00  0.00     0.113 C 
BRANCH  22  23
ATOM     23  C   UNL d   1      25.446  -7.188  -0.845  0.00  0.00     0.120 C 
BRANCH  23  24
ATOM     24  C   UNL d   1      25.739  -7.853   0.479  0.00  0.00     0.259 C 
ATOM     25  O   UNL d   1      25.527  -7.336   1.569  0.00  0.00    -0.265 OA
BRANCH  24  26
ATOM     26  O   UNL d   1      26.265  -9.103   0.316  0.00  0.00    -0.314 OA
BRANCH  26  27
ATOM     27  C   UNL d   1      26.543  -9.807   1.542  0.00  0.00     0.262 C 
BRANCH  27  28
ATOM     28  C   UNL d   1      27.548 -10.952   1.345  0.00  0.00     0.183 C 
ATOM     29  O   UNL d   1      28.049 -11.233   0.258  0.00  0.00    -0.290 OA
BRANCH  28  30
ATOM     30  C   UNL d   1      27.942 -11.773   2.532  0.00  0.00     0.012 A 
ATOM     31  C   UNL d   1      28.324 -13.115   2.361  0.00  0.00     0.016 A 
ATOM     32  C   UNL d   1      28.554 -13.933   3.478  0.00  0.00     0.020 A 
ATOM     33  C   UNL d   1      28.466 -13.394   4.759  0.00  0.00     0.011 A 
ATOM     34 BR   UNL d   1      28.906 -14.452   6.264  0.00  0.00    -0.051 Br
ATOM     35  C   UNL d   1      28.090 -12.064   4.937  0.00  0.00     0.020 A 
ATOM     36  C   UNL d   1      27.824 -11.256   3.825  0.00  0.00     0.016 A 
ENDBRANCH  28  30
ENDBRANCH  27  28
ENDBRANCH  26  27
ENDBRANCH  24  26
ENDBRANCH  23  24
ENDBRANCH  22  23
ENDBRANCH   2  22
TORSDOF 17
ENDMDL
MODEL 4
REMARK VINA RESULT:    -7.970      3.530      9.582
REMARK INTER + INTRA:         -16.045
REMARK INTER:                 -13.042
REMARK INTRA:                  -3.004
REMARK CONF_INDEPENDENT:        5.071
REMARK UNBOUND:                -3.004
REMARK  17 active torsions:
REMARK  status: ('A' for Active; 'I' for Inactive)
REMARK    1  A    between atoms: C_2  and  C_3 
REMARK    2  A    between atoms: C_3  and  C_4 
REMARK    3  A    between atoms: C_4  and  C_5 
REMARK    4  A    between atoms: C_5  and  C_6 
REMARK    5  A    between atoms: C_6  and  C_7 
REMARK    6  A    between atoms: C_7  and  C_8 
REMARK    7  A    between atoms: C_8  and  O_9 
REMARK    8  A    between atoms: O_9  and  C_10 
REMARK    9  A    between atoms: C_10  and  C_12 
REMARK   10  A    between atoms: C_15  and  N_16 
REMARK       I    between atoms: N_16  and  C_17 
REMARK   11  A    between atoms: C_17  and  C_19 
REMARK   12  A    between atoms: C_19  and  C_20 
REMARK   13  A    between atoms: C_20  and  C_21 
REMARK   14  A    between atoms: C_21  and  O_23 
REMARK   15  A    between atoms: O_23  and  C_24 
REMARK   16  A    between atoms: C_24  and  C_25 
REMARK   17  A    between atoms: C_25  and  C_27 
ROOT
ATOM      1  N   UNL d   1      29.380 -15.411   1.039  0.00  0.00    -0.327 N 
ATOM      2  C   UNL d   1      30.609 -15.345   0.374  0.00  0.00     0.222 C 
ATOM      3  O   UNL d   1      30.771 -15.567  -0.826  0.00  0.00    -0.273 OA
ATOM      4  H   UNL d   1      29.360 -15.264   2.043  0.00  0.00     0.169 HD
ENDROOT
BRANCH   1   5
ATOM      5  C   UNL d   1      28.147 -15.800   0.411  0.00  0.00     0.034 A 
ATOM      6  C   UNL d   1      27.753 -17.145   0.322  0.00  0.00     0.030 A 
ATOM      7  C   UNL d   1      26.601 -17.514  -0.426  0.00  0.00     0.020 A 
ATOM      8  C   UNL d   1      25.805 -16.536  -1.048  0.00  0.00     0.039 A 
ATOM      9  C   UNL d   1      26.155 -15.205  -0.896  0.00  0.00     0.020 A 
ATOM     10  C   UNL d   1      27.296 -14.856  -0.174  0.00  0.00     0.030 A 
BRANCH   8  11
ATOM     11  C   UNL d   1      24.538 -16.850  -1.758  0.00  0.00     0.293 C 
ATOM     12  O   UNL d   1      24.405 -17.825  -2.491  0.00  0.00    -0.259 OA
BRANCH  11  13
ATOM     13  O   UNL d   1      23.577 -15.934  -1.457  0.00  0.00    -0.318 OA
BRANCH  13  14
ATOM     14  C   UNL d   1      22.580 -16.384  -0.519  0.00  0.00     0.179 C 
BRANCH  14  15
ATOM     15  C   UNL d   1      22.923 -17.792  -0.028  0.00  0.00     0.027 C 
BRANCH  15  16
ATOM     16  C   UNL d   1      22.254 -18.862  -0.894  0.00  0.00     0.002 C 
BRANCH  16  17
ATOM     17  C   UNL d   1      21.114 -19.548  -0.146  0.00  0.00     0.000 C 
BRANCH  17  18
ATOM     18  C   UNL d   1      19.762 -19.048  -0.646  0.00  0.00     0.000 C 
BRANCH  18  19
ATOM     19  C   UNL d   1      18.675 -20.082  -0.380  0.00  0.00    -0.000 C 
BRANCH  19  20
ATOM     20  C   UNL d   1      19.094 -21.031   0.736  0.00  0.00    -0.005 C 
ATOM     21  C   UNL d   1      18.823 -20.409   2.093  0.00  0.00     0.005 C 
ENDBRANCH  19  20
ENDBRANCH  18  19
ENDBRANCH  17  18
ENDBRANCH  16  17
ENDBRANCH  15  16
ENDBRANCH  14  15
ENDBRANCH  13  14
ENDBRANCH  11  13
ENDBRANCH   8  11
ENDBRANCH   1   5
BRANCH   2  22
ATOM     22  C   UNL d   1      31.838 -14.988   1.195  0.00  0.00     0.113 C 
BRANCH  22  23
ATOM     23  C   UNL d   1      31.509 -13.796   2.134  0.00  0.00     0.120 C 
BRANCH  23  24
ATOM     24  C   UNL d   1      30.597 -12.784   1.480  0.00  0.00     0.259 C 
ATOM     25  O   UNL d   1      30.988 -11.867   0.769  0.00  0.00    -0.265 OA
BRANCH  24  26
ATOM     26  O   UNL d   1      29.284 -13.018   1.773  0.00  0.00    -0.314 OA
BRANCH  26  27
ATOM     27  C   UNL d   1      28.853 -12.521   3.056  0.00  0.00     0.262 C 
BRANCH  27  28
ATOM     28  C   UNL d   1      28.379 -13.644   3.991  0.00  0.00     0.183 C 
ATOM     29  O   UNL d   1      27.920 -14.711   3.588  0.00  0.00    -0.290 OA
BRANCH  28  30
ATOM     30  C   UNL d   1      28.474 -13.435   5.469  0.00  0.00     0.012 A 
ATOM     31  C   UNL d   1      27.942 -12.271   6.050  0.00  0.00     0.016 A 
ATOM     32  C   UNL d   1      28.153 -11.998   7.409  0.00  0.00     0.020 A 
ATOM     33  C   UNL d   1      28.839 -12.917   8.201  0.00  0.00     0.011 A 
ATOM     34 BR   UNL d   1      29.011 -12.623  10.061  0.00  0.00    -0.051 Br
ATOM     35  C   UNL d   1      29.368 -14.074   7.633  0.00  0.00     0.020 A 
ATOM     36  C   UNL d   1      29.190 -14.331   6.268  0.00  0.00     0.016 A 
ENDBRANCH  28  30
ENDBRANCH  27  28
ENDBRANCH  26  27
ENDBRANCH  24  26
ENDBRANCH  23  24
ENDBRANCH  22  23
ENDBRANCH   2  22
TORSDOF 17
ENDMDL
MODEL 5
REMARK VINA RESULT:    -7.628      4.662      8.580
REMARK INTER + INTRA:         -16.689
REMARK INTER:                 -12.699
REMARK INTRA:                  -3.991
REMARK CONF_INDEPENDENT:        5.071
REMARK UNBOUND:                -3.991
REMARK  17 active torsions:
REMARK  status: ('A' for Active; 'I' for Inactive)
REMARK    1  A    between atoms: C_2  and  C_3 
REMARK    2  A    between atoms: C_3  and  C_4 
REMARK    3  A    between atoms: C_4  and  C_5 
REMARK    4  A    between atoms: C_5  and  C_6 
REMARK    5  A    between atoms: C_6  and  C_7 
REMARK    6  A    between atoms: C_7  and  C_8 
REMARK    7  A    between atoms: C_8  and  O_9 
REMARK    8  A    between atoms: O_9  and  C_10 
REMARK    9  A    between atoms: C_10  and  C_12 
REMARK   10  A    between atoms: C_15  and  N_16 
REMARK       I    between atoms: N_16  and  C_17 
REMARK   11  A    between atoms: C_17  and  C_19 
REMARK   12  A    between atoms: C_19  and  C_20 
REMARK   13  A    between atoms: C_20  and  C_21 
REMARK   14  A    between atoms: C_21  and  O_23 
REMARK   15  A    between atoms: O_23  and  C_24 
REMARK   16  A    between atoms: C_24  and  C_25 
REMARK   17  A    between atoms: C_25  and  C_27 
ROOT
ATOM      1  N   UNL d   1      27.284 -13.446  -5.075  0.00  0.00    -0.327 N 
ATOM      2  C   UNL d   1      27.916 -14.021  -6.183  0.00  0.00     0.222 C 
ATOM      3  O   UNL d   1      27.813 -15.200  -6.518  0.00  0.00    -0.273 OA
ATOM      4  H   UNL d   1      27.478 -12.475  -4.853  0.00  0.00     0.169 HD
ENDROOT
BRANCH   1   5
ATOM      5  C   UNL d   1      26.465 -14.179  -4.149  0.00  0.00     0.034 A 
ATOM      6  C   UNL d   1      25.144 -13.793  -3.864  0.00  0.00     0.030 A 
ATOM      7  C   UNL d   1      24.403 -14.450  -2.843  0.00  0.00     0.020 A 
ATOM      8  C   UNL d   1      24.958 -15.530  -2.135  0.00  0.00     0.039 A 
ATOM      9  C   UNL d   1      26.233 -15.954  -2.469  0.00  0.00     0.020 A 
ATOM     10  C   UNL d   1      26.957 -15.292  -3.461  0.00  0.00     0.030 A 
BRANCH   8  11
ATOM     11  C   UNL d   1      24.200 -16.317  -1.127  0.00  0.00     0.293 C 
ATOM     12  O   UNL d   1      23.033 -16.080  -0.832  0.00  0.00    -0.259 OA
BRANCH  11  13
ATOM     13  O   UNL d   1      24.969 -17.321  -0.623  0.00  0.00    -0.318 OA
BRANCH  13  14
ATOM     14  C   UNL d   1      24.293 -18.201   0.296  0.00  0.00     0.179 C 
BRANCH  14  15
ATOM     15  C   UNL d   1      23.252 -19.037  -0.451  0.00  0.00     0.027 C 
BRANCH  15  16
ATOM     16  C   UNL d   1      21.858 -18.859   0.152  0.00  0.00     0.002 C 
BRANCH  16  17
ATOM     17  C   UNL d   1      20.781 -18.858  -0.930  0.00  0.00     0.000 C 
BRANCH  17  18
ATOM     18  C   UNL d   1      19.572 -19.677  -0.489  0.00  0.00     0.000 C 
BRANCH  18  19
ATOM     19  C   UNL d   1      19.901 -20.495   0.752  0.00  0.00    -0.000 C 
BRANCH  19  20
ATOM     20  C   UNL d   1      18.666 -20.676   1.625  0.00  0.00    -0.005 C 
ATOM     21  C   UNL d   1      17.655 -21.574   0.938  0.00  0.00     0.005 C 
ENDBRANCH  19  20
ENDBRANCH  18  19
ENDBRANCH  17  18
ENDBRANCH  16  17
ENDBRANCH  15  16
ENDBRANCH  14  15
ENDBRANCH  13  14
ENDBRANCH  11  13
ENDBRANCH   8  11
ENDBRANCH   1   5
BRANCH   2  22
ATOM     22  C   UNL d   1      28.811 -13.127  -7.028  0.00  0.00     0.113 C 
BRANCH  22  23
ATOM     23  C   UNL d   1      30.146 -12.867  -6.277  0.00  0.00     0.120 C 
BRANCH  23  24
ATOM     24  C   UNL d   1      30.009 -11.802  -5.215  0.00  0.00     0.259 C 
ATOM     25  O   UNL d   1      30.317 -10.628  -5.377  0.00  0.00    -0.265 OA
BRANCH  24  26
ATOM     26  O   UNL d   1      29.497 -12.304  -4.053  0.00  0.00    -0.314 OA
BRANCH  26  27
ATOM     27  C   UNL d   1      29.122 -11.311  -3.078  0.00  0.00     0.262 C 
BRANCH  27  28
ATOM     28  C   UNL d   1      27.711 -11.542  -2.518  0.00  0.00     0.183 C 
ATOM     29  O   UNL d   1      26.684 -11.313  -3.155  0.00  0.00    -0.290 OA
BRANCH  28  30
ATOM     30  C   UNL d   1      27.569 -12.070  -1.125  0.00  0.00     0.012 A 
ATOM     31  C   UNL d   1      27.399 -11.180  -0.051  0.00  0.00     0.016 A 
ATOM     32  C   UNL d   1      27.412 -11.654   1.269  0.00  0.00     0.020 A 
ATOM     33  C   UNL d   1      27.527 -13.021   1.512  0.00  0.00     0.011 A 
ATOM     34 BR   UNL d   1      27.407 -13.683   3.280  0.00  0.00    -0.051 Br
ATOM     35  C   UNL d   1      27.693 -13.910   0.452  0.00  0.00     0.020 A 
ATOM     36  C   UNL d   1      27.719 -13.436  -0.865  0.00  0.00     0.016 A 
ENDBRANCH  28  30
ENDBRANCH  27  28
ENDBRANCH  26  27
ENDBRANCH  24  26
ENDBRANCH  23  24
ENDBRANCH  22  23
ENDBRANCH   2  22
TORSDOF 17
ENDMDL
MODEL 6
REMARK VINA RESULT:    -7.330      5.775      8.120
REMARK INTER + INTRA:         -16.210
REMARK INTER:                 -12.401
REMARK INTRA:                  -3.809
REMARK CONF_INDEPENDENT:        5.071
REMARK UNBOUND:                -3.809
REMARK  17 active torsions:
REMARK  status: ('A' for Active; 'I' for Inactive)
REMARK    1  A    between atoms: C_2  and  C_3 
REMARK    2  A    between atoms: C_3  and  C_4 
REMARK    3  A    between atoms: C_4  and  C_5 
REMARK    4  A    between atoms: C_5  and  C_6 
REMARK    5  A    between atoms: C_6  and  C_7 
REMARK    6  A    between atoms: C_7  and  C_8 
REMARK    7  A    between atoms: C_8  and  O_9 
REMARK    8  A    between atoms: O_9  and  C_10 
REMARK    9  A    between atoms: C_10  and  C_12 
REMARK   10  A    between atoms: C_15  and  N_16 
REMARK       I    between atoms: N_16  and  C_17 
REMARK   11  A    between atoms: C_17  and  C_19 
REMARK   12  A    between atoms: C_19  and  C_20 
REMARK   13  A    between atoms: C_20  and  C_21 
REMARK   14  A    between atoms: C_21  and  O_23 
REMARK   15  A    between atoms: O_23  and  C_24 
REMARK   16  A    between atoms: C_24  and  C_25 
REMARK   17  A    between atoms: C_25  and  C_27 
ROOT
ATOM      1  N   UNL d   1      25.517 -11.871  -3.862  0.00  0.00    -0.327 N 
ATOM      2  C   UNL d   1      25.977 -10.587  -3.549  0.00  0.00     0.222 C 
ATOM      3  O   UNL d   1      26.547 -10.281  -2.502  0.00  0.00    -0.273 OA
ATOM      4  H   UNL d   1      25.010 -12.009  -4.730  0.00  0.00     0.169 HD
ENDROOT
BRANCH   1   5
ATOM      5  C   UNL d   1      25.607 -12.995  -2.971  0.00  0.00     0.034 A 
ATOM      6  C   UNL d   1      26.418 -12.967  -1.824  0.00  0.00     0.030 A 
ATOM      7  C   UNL d   1      26.598 -14.138  -1.036  0.00  0.00     0.020 A 
ATOM      8  C   UNL d   1      25.930 -15.331  -1.361  0.00  0.00     0.039 A 
ATOM      9  C   UNL d   1      25.074 -15.334  -2.449  0.00  0.00     0.020 A 
ATOM     10  C   UNL d   1      24.917 -14.185  -3.224  0.00  0.00     0.030 A 
BRANCH   8  11
ATOM     11  C   UNL d   1      26.001 -16.556  -0.523  0.00  0.00     0.293 C 
ATOM     12  O   UNL d   1      26.713 -16.646   0.473  0.00  0.00    -0.259 OA
BRANCH  11  13
ATOM     13  O   UNL d   1      25.161 -17.516  -1.000  0.00  0.00    -0.318 OA
BRANCH  13  14
ATOM     14  C   UNL d   1      24.844 -18.566  -0.066  0.00  0.00     0.179 C 
BRANCH  14  15
ATOM     15  C   UNL d   1      23.338 -18.589   0.202  0.00  0.00     0.027 C 
BRANCH  15  16
ATOM     16  C   UNL d   1      22.570 -17.809  -0.867  0.00  0.00     0.002 C 
BRANCH  16  17
ATOM     17  C   UNL d   1      21.288 -18.533  -1.268  0.00  0.00     0.000 C 
BRANCH  17  18
ATOM     18  C   UNL d   1      20.885 -19.550  -0.204  0.00  0.00     0.000 C 
BRANCH  18  19
ATOM     19  C   UNL d   1      19.385 -19.492   0.052  0.00  0.00    -0.000 C 
BRANCH  19  20
ATOM     20  C   UNL d   1      18.877 -20.821   0.598  0.00  0.00    -0.005 C 
ATOM     21  C   UNL d   1      18.676 -20.738   2.099  0.00  0.00     0.005 C 
ENDBRANCH  19  20
ENDBRANCH  18  19
ENDBRANCH  17  18
ENDBRANCH  16  17
ENDBRANCH  15  16
ENDBRANCH  14  15
ENDBRANCH  13  14
ENDBRANCH  11  13
ENDBRANCH   8  11
ENDBRANCH   1   5
BRANCH   2  22
ATOM     22  C   UNL d   1      25.743  -9.484  -4.570  0.00  0.00     0.113 C 
BRANCH  22  23
ATOM     23  C   UNL d   1      26.576  -9.773  -5.848  0.00  0.00     0.120 C 
BRANCH  23  24
ATOM     24  C   UNL d   1      26.227 -11.103  -6.474  0.00  0.00     0.259 C 
ATOM     25  O   UNL d   1      25.087 -11.449  -6.757  0.00  0.00    -0.265 OA
BRANCH  24  26
ATOM     26  O   UNL d   1      27.335 -11.871  -6.691  0.00  0.00    -0.314 OA
BRANCH  26  27
ATOM     27  C   UNL d   1      27.949 -12.397  -5.497  0.00  0.00     0.262 C 
BRANCH  27  28
ATOM     28  C   UNL d   1      27.967 -13.933  -5.475  0.00  0.00     0.183 C 
ATOM     29  O   UNL d   1      27.432 -14.628  -6.336  0.00  0.00    -0.290 OA
BRANCH  28  30
ATOM     30  C   UNL d   1      28.668 -14.626  -4.350  0.00  0.00     0.012 A 
ATOM     31  C   UNL d   1      28.749 -16.029  -4.331  0.00  0.00     0.016 A 
ATOM     32  C   UNL d   1      29.273 -16.693  -3.213  0.00  0.00     0.020 A 
ATOM     33  C   UNL d   1      29.775 -15.956  -2.143  0.00  0.00     0.011 A 
ATOM     34 BR   UNL d   1      30.608 -16.837  -0.692  0.00  0.00    -0.051 Br
ATOM     35  C   UNL d   1      29.701 -14.564  -2.155  0.00  0.00     0.020 A 
ATOM     36  C   UNL d   1      29.144 -13.900  -3.254  0.00  0.00     0.016 A 
ENDBRANCH  28  30
ENDBRANCH  27  28
ENDBRANCH  26  27
ENDBRANCH  24  26
ENDBRANCH  23  24
ENDBRANCH  22  23
ENDBRANCH   2  22
TORSDOF 17
ENDMDL
MODEL 7
REMARK VINA RESULT:    -7.243      1.514      2.189
REMARK INTER + INTRA:         -15.953
REMARK INTER:                 -12.314
REMARK INTRA:                  -3.640
REMARK CONF_INDEPENDENT:        5.071
REMARK UNBOUND:                -3.640
REMARK  17 active torsions:
REMARK  status: ('A' for Active; 'I' for Inactive)
REMARK    1  A    between atoms: C_2  and  C_3 
REMARK    2  A    between atoms: C_3  and  C_4 
REMARK    3  A    between atoms: C_4  and  C_5 
REMARK    4  A    between atoms: C_5  and  C_6 
REMARK    5  A    between atoms: C_6  and  C_7 
REMARK    6  A    between atoms: C_7  and  C_8 
REMARK    7  A    between atoms: C_8  and  O_9 
REMARK    8  A    between atoms: O_9  and  C_10 
REMARK    9  A    between atoms: C_10  and  C_12 
REMARK   10  A    between atoms: C_15  and  N_16 
REMARK       I    between atoms: N_16  and  C_17 
REMARK   11  A    between atoms: C_17  and  C_19 
REMARK   12  A    between atoms: C_19  and  C_20 
REMARK   13  A    between atoms: C_20  and  C_21 
REMARK   14  A    between atoms: C_21  and  O_23 
REMARK   15  A    between atoms: O_23  and  C_24 
REMARK   16  A    between atoms: C_24  and  C_25 
REMARK   17  A    between atoms: C_25  and  C_27 
ROOT
ATOM      1  N   UNL d   1      27.177 -12.895  -1.920  0.00  0.00    -0.327 N 
ATOM      2  C   UNL d   1      26.628 -11.921  -2.761  0.00  0.00     0.222 C 
ATOM      3  O   UNL d   1      26.279 -10.797  -2.401  0.00  0.00    -0.273 OA
ATOM      4  H   UNL d   1      27.383 -13.811  -2.305  0.00  0.00     0.169 HD
ENDROOT
BRANCH   1   5
ATOM      5  C   UNL d   1      27.359 -12.723  -0.505  0.00  0.00     0.034 A 
ATOM      6  C   UNL d   1      26.556 -13.397   0.431  0.00  0.00     0.030 A 
ATOM      7  C   UNL d   1      26.662 -13.105   1.819  0.00  0.00     0.020 A 
ATOM      8  C   UNL d   1      27.606 -12.174   2.286  0.00  0.00     0.039 A 
ATOM      9  C   UNL d   1      28.446 -11.566   1.368  0.00  0.00     0.020 A 
ATOM     10  C   UNL d   1      28.322 -11.848   0.008  0.00  0.00     0.030 A 
BRANCH   8  11
ATOM     11  C   UNL d   1      27.831 -11.899   3.729  0.00  0.00     0.293 C 
ATOM     12  O   UNL d   1      27.402 -10.899   4.296  0.00  0.00    -0.259 OA
BRANCH  11  13
ATOM     13  O   UNL d   1      28.539 -12.908   4.308  0.00  0.00    -0.318 OA
BRANCH  13  14
ATOM     14  C   UNL d   1      27.748 -14.019   4.770  0.00  0.00     0.179 C 
BRANCH  14  15
ATOM     15  C   UNL d   1      28.539 -14.831   5.799  0.00  0.00     0.027 C 
BRANCH  15  16
ATOM     16  C   UNL d   1      29.318 -13.919   6.748  0.00  0.00     0.002 C 
BRANCH  16  17
ATOM     17  C   UNL d   1      28.393 -12.928   7.449  0.00  0.00     0.000 C 
BRANCH  17  18
ATOM     18  C   UNL d   1      29.108 -12.256   8.618  0.00  0.00     0.000 C 
BRANCH  18  19
ATOM     19  C   UNL d   1      28.317 -12.441   9.907  0.00  0.00    -0.000 C 
BRANCH  19  20
ATOM     20  C   UNL d   1      28.823 -13.650  10.684  0.00  0.00    -0.005 C 
ATOM     21  C   UNL d   1      28.155 -13.726  12.044  0.00  0.00     0.005 C 
ENDBRANCH  19  20
ENDBRANCH  18  19
ENDBRANCH  17  18
ENDBRANCH  16  17
ENDBRANCH  15  16
ENDBRANCH  14  15
ENDBRANCH  13  14
ENDBRANCH  11  13
ENDBRANCH   8  11
ENDBRANCH   1   5
BRANCH   2  22
ATOM     22  C   UNL d   1      26.434 -12.281  -4.226  0.00  0.00     0.113 C 
BRANCH  22  23
ATOM     23  C   UNL d   1      25.830 -13.707  -4.336  0.00  0.00     0.120 C 
BRANCH  23  24
ATOM     24  C   UNL d   1      26.842 -14.725  -4.806  0.00  0.00     0.259 C 
ATOM     25  O   UNL d   1      26.673 -15.466  -5.767  0.00  0.00    -0.265 OA
BRANCH  24  26
ATOM     26  O   UNL d   1      27.968 -14.718  -4.035  0.00  0.00    -0.314 OA
BRANCH  26  27
ATOM     27  C   UNL d   1      28.227 -15.948  -3.330  0.00  0.00     0.262 C 
BRANCH  27  28
ATOM     28  C   UNL d   1      27.755 -15.897  -1.869  0.00  0.00     0.183 C 
ATOM     29  O   UNL d   1      28.371 -15.313  -0.980  0.00  0.00    -0.290 OA
BRANCH  28  30
ATOM     30  C   UNL d   1      26.484 -16.594  -1.500  0.00  0.00     0.012 A 
ATOM     31  C   UNL d   1      25.267 -16.185  -2.073  0.00  0.00     0.016 A 
ATOM     32  C   UNL d   1      24.055 -16.732  -1.626  0.00  0.00     0.020 A 
ATOM     33  C   UNL d   1      24.064 -17.733  -0.657  0.00  0.00     0.011 A 
ATOM     34 BR   UNL d   1      22.449 -18.573  -0.147  0.00  0.00    -0.051 Br
ATOM     35  C   UNL d   1      25.267 -18.146  -0.086  0.00  0.00     0.020 A 
ATOM     36  C   UNL d   1      26.475 -17.574  -0.503  0.00  0.00     0.016 A 
ENDBRANCH  28  30
ENDBRANCH  27  28
ENDBRANCH  26  27
ENDBRANCH  24  26
ENDBRANCH  23  24
ENDBRANCH  22  23
ENDBRANCH   2  22
TORSDOF 17
ENDMDL
MODEL 8
REMARK VINA RESULT:    -6.759      3.514      8.891
REMARK INTER + INTRA:         -16.135
REMARK INTER:                 -11.831
REMARK INTRA:                  -4.304
REMARK CONF_INDEPENDENT:        5.071
REMARK UNBOUND:                -4.304
REMARK  17 active torsions:
REMARK  status: ('A' for Active; 'I' for Inactive)
REMARK    1  A    between atoms: C_2  and  C_3 
REMARK    2  A    between atoms: C_3  and  C_4 
REMARK    3  A    between atoms: C_4  and  C_5 
REMARK    4  A    between atoms: C_5  and  C_6 
REMARK    5  A    between atoms: C_6  and  C_7 
REMARK    6  A    between atoms: C_7  and  C_8 
REMARK    7  A    between atoms: C_8  and  O_9 
REMARK    8  A    between atoms: O_9  and  C_10 
REMARK    9  A    between atoms: C_10  and  C_12 
REMARK   10  A    between atoms: C_15  and  N_16 
REMARK       I    between atoms: N_16  and  C_17 
REMARK   11  A    between atoms: C_17  and  C_19 
REMARK   12  A    between atoms: C_19  and  C_20 
REMARK   13  A    between atoms: C_20  and  C_21 
REMARK   14  A    between atoms: C_21  and  O_23 
REMARK   15  A    between atoms: O_23  and  C_24 
REMARK   16  A    between atoms: C_24  and  C_25 
REMARK   17  A    between atoms: C_25  and  C_27 
ROOT
ATOM      1  N   UNL d   1      28.554 -14.996   2.176  0.00  0.00    -0.327 N 
ATOM      2  C   UNL d   1      28.214 -14.238   3.302  0.00  0.00     0.222 C 
ATOM      3  O   UNL d   1      27.088 -13.805   3.543  0.00  0.00    -0.273 OA
ATOM      4  H   UNL d   1      29.524 -15.260   2.041  0.00  0.00     0.169 HD
ENDROOT
BRANCH   1   5
ATOM      5  C   UNL d   1      27.633 -15.326   1.123  0.00  0.00     0.034 A 
ATOM      6  C   UNL d   1      27.335 -16.658   0.791  0.00  0.00     0.030 A 
ATOM      7  C   UNL d   1      26.530 -16.958  -0.344  0.00  0.00     0.020 A 
ATOM      8  C   UNL d   1      25.978 -15.928  -1.124  0.00  0.00     0.039 A 
ATOM      9  C   UNL d   1      26.214 -14.616  -0.751  0.00  0.00     0.020 A 
ATOM     10  C   UNL d   1      27.018 -14.333   0.354  0.00  0.00     0.030 A 
BRANCH   8  11
ATOM     11  C   UNL d   1      25.052 -16.177  -2.260  0.00  0.00     0.293 C 
ATOM     12  O   UNL d   1      25.181 -15.645  -3.358  0.00  0.00    -0.259 OA
BRANCH  11  13
ATOM     13  O   UNL d   1      24.090 -17.075  -1.910  0.00  0.00    -0.318 OA
BRANCH  13  14
ATOM     14  C   UNL d   1      23.451 -16.821  -0.645  0.00  0.00     0.179 C 
BRANCH  14  15
ATOM     15  C   UNL d   1      22.802 -18.104  -0.120  0.00  0.00     0.027 C 
BRANCH  15  16
ATOM     16  C   UNL d   1      22.246 -18.954  -1.264  0.00  0.00     0.002 C 
BRANCH  16  17
ATOM     17  C   UNL d   1      20.720 -18.968  -1.255  0.00  0.00     0.000 C 
BRANCH  17  18
ATOM     18  C   UNL d   1      20.191 -19.446   0.094  0.00  0.00     0.000 C 
BRANCH  18  19
ATOM     19  C   UNL d   1      19.067 -20.455  -0.098  0.00  0.00    -0.000 C 
BRANCH  19  20
ATOM     20  C   UNL d   1      18.416 -20.801   1.236  0.00  0.00    -0.005 C 
ATOM     21  C   UNL d   1      19.296 -20.355   2.389  0.00  0.00     0.005 C 
ENDBRANCH  19  20
ENDBRANCH  18  19
ENDBRANCH  17  18
ENDBRANCH  16  17
ENDBRANCH  15  16
ENDBRANCH  14  15
ENDBRANCH  13  14
ENDBRANCH  11  13
ENDBRANCH   8  11
ENDBRANCH   1   5
BRANCH   2  22
ATOM     22  C   UNL d   1      29.320 -13.912   4.294  0.00  0.00     0.113 C 
BRANCH  22  23
ATOM     23  C   UNL d   1      29.843 -12.472   4.035  0.00  0.00     0.120 C 
BRANCH  23  24
ATOM     24  C   UNL d   1      30.838 -12.417   2.900  0.00  0.00     0.259 C 
ATOM     25  O   UNL d   1      31.499 -11.426   2.615  0.00  0.00    -0.265 OA
BRANCH  24  26
ATOM     26  O   UNL d   1      30.915 -13.605   2.232  0.00  0.00    -0.314 OA
BRANCH  26  27
ATOM     27  C   UNL d   1      30.915 -13.493   0.795  0.00  0.00     0.262 C 
BRANCH  27  28
ATOM     28  C   UNL d   1      30.627 -14.833   0.102  0.00  0.00     0.183 C 
ATOM     29  O   UNL d   1      30.976 -15.920   0.559  0.00  0.00    -0.290 OA
BRANCH  28  30
ATOM     30  C   UNL d   1      29.886 -14.824  -1.198  0.00  0.00     0.012 A 
ATOM     31  C   UNL d   1      29.488 -16.036  -1.788  0.00  0.00     0.016 A 
ATOM     32  C   UNL d   1      28.925 -16.047  -3.072  0.00  0.00     0.020 A 
ATOM     33  C   UNL d   1      28.699 -14.845  -3.738  0.00  0.00     0.011 A 
ATOM     34 BR   UNL d   1      27.816 -14.839  -5.410  0.00  0.00    -0.051 Br
ATOM     35  C   UNL d   1      29.088 -13.638  -3.159  0.00  0.00     0.020 A 
ATOM     36  C   UNL d   1      29.686 -13.628  -1.893  0.00  0.00     0.016 A 
ENDBRANCH  28  30
ENDBRANCH  27  28
ENDBRANCH  26  27
ENDBRANCH  24  26
ENDBRANCH  23  24
ENDBRANCH  22  23
ENDBRANCH   2  22
TORSDOF 17
ENDMDL
MODEL 9
REMARK VINA RESULT:    -6.593      5.736      8.124
REMARK INTER + INTRA:         -16.211
REMARK INTER:                 -11.664
REMARK INTRA:                  -4.547
REMARK CONF_INDEPENDENT:        5.071
REMARK UNBOUND:                -4.547
REMARK  17 active torsions:
REMARK  status: ('A' for Active; 'I' for Inactive)
REMARK    1  A    between atoms: C_2  and  C_3 
REMARK    2  A    between atoms: C_3  and  C_4 
REMARK    3  A    between atoms: C_4  and  C_5 
REMARK    4  A    between atoms: C_5  and  C_6 
REMARK    5  A    between atoms: C_6  and  C_7 
REMARK    6  A    between atoms: C_7  and  C_8 
REMARK    7  A    between atoms: C_8  and  O_9 
REMARK    8  A    between atoms: O_9  and  C_10 
REMARK    9  A    between atoms: C_10  and  C_12 
REMARK   10  A    between atoms: C_15  and  N_16 
REMARK       I    between atoms: N_16  and  C_17 
REMARK   11  A    between atoms: C_17  and  C_19 
REMARK   12  A    between atoms: C_19  and  C_20 
REMARK   13  A    between atoms: C_20  and  C_21 
REMARK   14  A    between atoms: C_21  and  O_23 
REMARK   15  A    between atoms: O_23  and  C_24 
REMARK   16  A    between atoms: C_24  and  C_25 
REMARK   17  A    between atoms: C_25  and  C_27 
ROOT
ATOM      1  N   UNL d   1      27.222 -12.678  -5.954  0.00  0.00    -0.327 N 
ATOM      2  C   UNL d   1      26.706 -11.548  -6.597  0.00  0.00     0.222 C 
ATOM      3  O   UNL d   1      25.670 -10.967  -6.276  0.00  0.00    -0.273 OA
ATOM      4  H   UNL d   1      28.056 -13.115  -6.331  0.00  0.00     0.169 HD
ENDROOT
BRANCH   1   5
ATOM      5  C   UNL d   1      26.574 -13.341  -4.855  0.00  0.00     0.034 A 
ATOM      6  C   UNL d   1      26.343 -12.691  -3.631  0.00  0.00     0.030 A 
ATOM      7  C   UNL d   1      25.829 -13.410  -2.516  0.00  0.00     0.020 A 
ATOM      8  C   UNL d   1      25.493 -14.770  -2.632  0.00  0.00     0.039 A 
ATOM      9  C   UNL d   1      25.653 -15.388  -3.861  0.00  0.00     0.020 A 
ATOM     10  C   UNL d   1      26.174 -14.678  -4.943  0.00  0.00     0.030 A 
BRANCH   8  11
ATOM     11  C   UNL d   1      24.862 -15.548  -1.534  0.00  0.00     0.293 C 
ATOM     12  O   UNL d   1      23.792 -16.136  -1.660  0.00  0.00    -0.259 OA
BRANCH  11  13
ATOM     13  O   UNL d   1      25.642 -15.528  -0.419  0.00  0.00    -0.318 OA
BRANCH  13  14
ATOM     14  C   UNL d   1      26.925 -16.168  -0.561  0.00  0.00     0.179 C 
BRANCH  14  15
ATOM     15  C   UNL d   1      26.986 -17.417   0.320  0.00  0.00     0.027 C 
BRANCH  15  16
ATOM     16  C   UNL d   1      25.986 -18.477  -0.146  0.00  0.00     0.002 C 
BRANCH  16  17
ATOM     17  C   UNL d   1      24.600 -18.230   0.444  0.00  0.00     0.000 C 
BRANCH  17  18
ATOM     18  C   UNL d   1      23.522 -18.882  -0.416  0.00  0.00     0.000 C 
BRANCH  18  19
ATOM     19  C   UNL d   1      22.187 -18.174  -0.232  0.00  0.00    -0.000 C 
BRANCH  19  20
ATOM     20  C   UNL d   1      21.065 -18.946  -0.915  0.00  0.00    -0.005 C 
ATOM     21  C   UNL d   1      20.223 -19.680   0.111  0.00  0.00     0.005 C 
ENDBRANCH  19  20
ENDBRANCH  18  19
ENDBRANCH  17  18
ENDBRANCH  16  17
ENDBRANCH  15  16
ENDBRANCH  14  15
ENDBRANCH  13  14
ENDBRANCH  11  13
ENDBRANCH   8  11
ENDBRANCH   1   5
BRANCH   2  22
ATOM     22  C   UNL d   1      27.473 -11.004  -7.793  0.00  0.00     0.113 C 
BRANCH  22  23
ATOM     23  C   UNL d   1      28.973 -10.850  -7.423  0.00  0.00     0.120 C 
BRANCH  23  24
ATOM     24  C   UNL d   1      29.785 -12.070  -7.791  0.00  0.00     0.259 C 
ATOM     25  O   UNL d   1      30.080 -12.376  -8.939  0.00  0.00    -0.265 OA
BRANCH  24  26
ATOM     26  O   UNL d   1      30.152 -12.789  -6.690  0.00  0.00    -0.314 OA
BRANCH  26  27
ATOM     27  C   UNL d   1      30.364 -14.195  -6.928  0.00  0.00     0.262 C 
BRANCH  27  28
ATOM     28  C   UNL d   1      29.240 -15.064  -6.344  0.00  0.00     0.183 C 
ATOM     29  O   UNL d   1      28.142 -15.198  -6.879  0.00  0.00    -0.290 OA
BRANCH  28  30
ATOM     30  C   UNL d   1      29.485 -15.785  -5.056  0.00  0.00     0.012 A 
ATOM     31  C   UNL d   1      29.249 -15.136  -3.832  0.00  0.00     0.016 A 
ATOM     32  C   UNL d   1      29.612 -15.749  -2.624  0.00  0.00     0.020 A 
ATOM     33  C   UNL d   1      30.151 -17.034  -2.635  0.00  0.00     0.011 A 
ATOM     34 BR   UNL d   1      30.517 -17.923  -1.007  0.00  0.00    -0.051 Br
ATOM     35  C   UNL d   1      30.387 -17.685  -3.845  0.00  0.00     0.020 A 
ATOM     36  C   UNL d   1      30.059 -17.060  -5.054  0.00  0.00     0.016 A 
ENDBRANCH  28  30
ENDBRANCH  27  28
ENDBRANCH  26  27
ENDBRANCH  24  26
ENDBRANCH  23  24
ENDBRANCH  22  23
ENDBRANCH   2  22
TORSDOF 17
ENDMDL
