MODEL 1
REMARK VINA RESULT:    -9.931      0.000      0.000
REMARK INTER + INTRA:         -14.329
REMARK INTER:                 -12.616
REMARK INTRA:                  -1.714
REMARK CONF_INDEPENDENT:        2.685
REMARK UNBOUND:                -1.714
REMARK  9 active torsions:
REMARK  status: ('A' for Active; 'I' for Inactive)
REMARK    1  A    between atoms: C_2  and  C_3 
REMARK    2  A    between atoms: C_3  and  C_5 
REMARK    3  A    between atoms: C_8  and  O_9 
REMARK    4  A    between atoms: C_10  and  N_11 
REMARK    5  A    between atoms: N_11  and  C_12 
REMARK    6  A    between atoms: C_12  and  N_14 
REMARK       I    between atoms: N_14  and  C_15 
REMARK    7  A    between atoms: C_15  and  C_17 
REMARK    8  A    between atoms: C_19  and  N_20 
REMARK    9  A    between atoms: C_25  and  N_26 
ROOT
ATOM      1  N   UNL d   1      27.596 -12.696   0.068  0.00  0.00    -0.299 N 
ATOM      2  C   UNL d   1      26.760 -12.814   1.185  0.00  0.00     0.260 C 
ATOM      3  O   UNL d   1      25.905 -13.700   1.383  0.00  0.00    -0.267 OA
ATOM      4  H   UNL d   1      28.191 -11.881   0.092  0.00  0.00     0.171 HD
ENDROOT
BRANCH   1   5
ATOM      5  C   UNL d   1      27.309 -13.303  -1.191  0.00  0.00     0.179 C 
ATOM      6  S   UNL d   1      26.764 -12.301  -2.448  0.00  0.00    -0.040 SA
BRANCH   5   7
ATOM      7  N   UNL d   1      27.693 -14.690  -1.307  0.00  0.00    -0.331 N 
ATOM      8  H   UNL d   1      28.459 -14.926  -1.934  0.00  0.00     0.168 HD
BRANCH   7   9
ATOM      9  C   UNL d   1      26.942 -15.871  -0.838  0.00  0.00     0.068 C 
ATOM     10  C   UNL d   1      27.550 -16.969  -0.213  0.00  0.00     0.092 C 
ATOM     11  C   UNL d   1      26.888 -18.030   0.365  0.00  0.00     0.039 C 
ATOM     12  C   UNL d   1      25.563 -18.187   0.112  0.00  0.00     0.010 C 
ATOM     13  C   UNL d   1      24.855 -17.228  -0.619  0.00  0.00    -0.052 C 
ATOM     14  C   UNL d   1      25.538 -16.028  -1.042  0.00  0.00     0.039 C 
BRANCH  10  15
ATOM     15  O   UNL d   1      28.866 -17.302  -0.316  0.00  0.00    -0.358 OA
ATOM     16  H   UNL d   1      29.145 -17.481   0.605  0.00  0.00     0.217 HD
ENDBRANCH  10  15
BRANCH  13  17
ATOM     17  C   UNL d   1      23.380 -17.535  -0.916  0.00  0.00     0.014 C 
ATOM     18  C   UNL d   1      22.536 -16.325  -0.520  0.00  0.00     0.015 C 
BRANCH  17  19
ATOM     19  C   UNL d   1      22.871 -18.809  -0.168  0.00  0.00     0.004 C 
ATOM     20  C   UNL d   1      21.401 -19.119  -0.349  0.00  0.00     0.006 C 
ENDBRANCH  17  19
ENDBRANCH  13  17
ENDBRANCH   7   9
ENDBRANCH   5   7
ENDBRANCH   1   5
BRANCH   2  21
ATOM     21  C   UNL d   1      26.826 -11.904   2.324  0.00  0.00     0.061 A 
ATOM     22  C   UNL d   1      26.314 -10.617   2.032  0.00  0.00     0.055 A 
ATOM     23  C   UNL d   1      26.549  -9.561   2.890  0.00  0.00     0.104 A 
ATOM     24  C   UNL d   1      27.192  -9.805   4.105  0.00  0.00     0.038 A 
ATOM     25  C   UNL d   1      27.695 -11.096   4.390  0.00  0.00     0.033 A 
ATOM     26  C   UNL d   1      27.567 -12.171   3.488  0.00  0.00     0.046 A 
BRANCH  23  27
ATOM     27  N   UNL d   1      26.220  -8.188   2.480  0.00  0.00    -0.116 N 
ATOM     28  O   UNL d   1      26.655  -7.255   3.191  0.00  0.00    -0.532 OA
ATOM     29  O   UNL d   1      25.525  -8.035   1.481  0.00  0.00    -0.532 OA
ENDBRANCH  23  27
BRANCH  26  30
ATOM     30  N   UNL d   1      28.177 -13.381   3.734  0.00  0.00    -0.376 N 
ATOM     31  C   UNL d   1      27.683 -14.360   4.726  0.00  0.00     0.149 C 
ATOM     32  C   UNL d   1      28.848 -14.826   5.613  0.00  0.00     0.187 C 
ATOM     33  O   UNL d   1      30.051 -15.169   4.906  0.00  0.00    -0.388 OA
ATOM     34  C   UNL d   1      30.462 -14.167   3.960  0.00  0.00     0.187 C 
ATOM     35  C   UNL d   1      29.338 -13.830   2.968  0.00  0.00     0.149 C 
ENDBRANCH  26  30
ENDBRANCH   2  21
TORSDOF 9
ENDMDL
MODEL 2
REMARK VINA RESULT:    -8.609      1.566      1.911
REMARK INTER + INTRA:         -13.446
REMARK INTER:                 -11.293
REMARK INTRA:                  -2.153
REMARK CONF_INDEPENDENT:        2.685
REMARK UNBOUND:                -2.153
REMARK  9 active torsions:
REMARK  status: ('A' for Active; 'I' for Inactive)
REMARK    1  A    between atoms: C_2  and  C_3 
REMARK    2  A    between atoms: C_3  and  C_5 
REMARK    3  A    between atoms: C_8  and  O_9 
REMARK    4  A    between atoms: C_10  and  N_11 
REMARK    5  A    between atoms: N_11  and  C_12 
REMARK    6  A    between atoms: C_12  and  N_14 
REMARK       I    between atoms: N_14  and  C_15 
REMARK    7  A    between atoms: C_15  and  C_17 
REMARK    8  A    between atoms: C_19  and  N_20 
REMARK    9  A    between atoms: C_25  and  N_26 
ROOT
ATOM      1  N   UNL d   1      28.402 -13.838   1.813  0.00  0.00    -0.299 N 
ATOM      2  C   UNL d   1      27.280 -13.003   1.858  0.00  0.00     0.260 C 
ATOM      3  O   UNL d   1      26.269 -13.076   1.133  0.00  0.00    -0.267 OA
ATOM      4  H   UNL d   1      29.127 -13.579   2.467  0.00  0.00     0.171 HD
ENDROOT
BRANCH   1   5
ATOM      5  C   UNL d   1      28.752 -14.617   0.670  0.00  0.00     0.179 C 
ATOM      6  S   UNL d   1      30.095 -14.124  -0.243  0.00  0.00    -0.040 SA
BRANCH   5   7
ATOM      7  N   UNL d   1      28.024 -15.854   0.521  0.00  0.00    -0.331 N 
ATOM      8  H   UNL d   1      28.459 -16.711   0.856  0.00  0.00     0.168 HD
BRANCH   7   9
ATOM      9  C   UNL d   1      26.824 -16.096  -0.304  0.00  0.00     0.068 C 
ATOM     10  C   UNL d   1      26.408 -15.230  -1.325  0.00  0.00     0.092 C 
ATOM     11  C   UNL d   1      25.382 -15.472  -2.212  0.00  0.00     0.039 C 
ATOM     12  C   UNL d   1      24.526 -16.495  -1.956  0.00  0.00     0.010 C 
ATOM     13  C   UNL d   1      24.749 -17.362  -0.881  0.00  0.00    -0.052 C 
ATOM     14  C   UNL d   1      25.944 -17.199  -0.088  0.00  0.00     0.039 C 
BRANCH  10  15
ATOM     15  O   UNL d   1      26.752 -13.917  -1.431  0.00  0.00    -0.358 OA
ATOM     16  H   UNL d   1      26.484 -13.525  -0.575  0.00  0.00     0.217 HD
ENDBRANCH  10  15
BRANCH  13  17
ATOM     17  C   UNL d   1      23.685 -18.439  -0.630  0.00  0.00     0.014 C 
ATOM     18  C   UNL d   1      23.172 -18.949  -1.976  0.00  0.00     0.015 C 
BRANCH  17  19
ATOM     19  C   UNL d   1      22.490 -17.913   0.231  0.00  0.00     0.004 C 
ATOM     20  C   UNL d   1      21.453 -18.950   0.598  0.00  0.00     0.006 C 
ENDBRANCH  17  19
ENDBRANCH  13  17
ENDBRANCH   7   9
ENDBRANCH   5   7
ENDBRANCH   1   5
BRANCH   2  21
ATOM     21  C   UNL d   1      27.130 -11.928   2.836  0.00  0.00     0.061 A 
ATOM     22  C   UNL d   1      26.439 -10.805   2.320  0.00  0.00     0.055 A 
ATOM     23  C   UNL d   1      26.450  -9.605   3.002  0.00  0.00     0.104 A 
ATOM     24  C   UNL d   1      27.048  -9.548   4.263  0.00  0.00     0.038 A 
ATOM     25  C   UNL d   1      27.731 -10.677   4.772  0.00  0.00     0.033 A 
ATOM     26  C   UNL d   1      27.831 -11.884   4.053  0.00  0.00     0.046 A 
BRANCH  23  27
ATOM     27  N   UNL d   1      25.933  -8.386   2.362  0.00  0.00    -0.116 N 
ATOM     28  O   UNL d   1      26.275  -7.288   2.855  0.00  0.00    -0.532 OA
ATOM     29  O   UNL d   1      25.184  -8.514   1.399  0.00  0.00    -0.532 OA
ENDBRANCH  23  27
BRANCH  26  30
ATOM     30  N   UNL d   1      28.609 -12.923   4.515  0.00  0.00    -0.376 N 
ATOM     31  C   UNL d   1      28.100 -14.294   4.729  0.00  0.00     0.149 C 
ATOM     32  C   UNL d   1      28.531 -14.793   6.117  0.00  0.00     0.187 C 
ATOM     33  O   UNL d   1      29.908 -14.552   6.450  0.00  0.00    -0.388 OA
ATOM     34  C   UNL d   1      30.323 -13.195   6.211  0.00  0.00     0.187 C 
ATOM     35  C   UNL d   1      30.040 -12.763   4.764  0.00  0.00     0.149 C 
ENDBRANCH  26  30
ENDBRANCH   2  21
TORSDOF 9
ENDMDL
MODEL 3
REMARK VINA RESULT:    -8.586      1.735      2.883
REMARK INTER + INTRA:         -13.112
REMARK INTER:                 -11.271
REMARK INTRA:                  -1.841
REMARK CONF_INDEPENDENT:        2.685
REMARK UNBOUND:                -1.841
REMARK  9 active torsions:
REMARK  status: ('A' for Active; 'I' for Inactive)
REMARK    1  A    between atoms: C_2  and  C_3 
REMARK    2  A    between atoms: C_3  and  C_5 
REMARK    3  A    between atoms: C_8  and  O_9 
REMARK    4  A    between atoms: C_10  and  N_11 
REMARK    5  A    between atoms: N_11  and  C_12 
REMARK    6  A    between atoms: C_12  and  N_14 
REMARK       I    between atoms: N_14  and  C_15 
REMARK    7  A    between atoms: C_15  and  C_17 
REMARK    8  A    between atoms: C_19  and  N_20 
REMARK    9  A    between atoms: C_25  and  N_26 
ROOT
ATOM      1  N   UNL d   1      28.505 -13.644   2.082  0.00  0.00    -0.299 N 
ATOM      2  C   UNL d   1      27.297 -12.948   2.214  0.00  0.00     0.260 C 
ATOM      3  O   UNL d   1      26.219 -13.217   1.647  0.00  0.00    -0.267 OA
ATOM      4  H   UNL d   1      29.267 -13.235   2.603  0.00  0.00     0.171 HD
ENDROOT
BRANCH   1   5
ATOM      5  C   UNL d   1      28.803 -14.489   0.972  0.00  0.00     0.179 C 
ATOM      6  S   UNL d   1      30.065 -14.021  -0.062  0.00  0.00    -0.040 SA
BRANCH   5   7
ATOM      7  N   UNL d   1      28.110 -15.755   0.958  0.00  0.00    -0.331 N 
ATOM      8  H   UNL d   1      28.505 -16.526   1.492  0.00  0.00     0.168 HD
BRANCH   7   9
ATOM      9  C   UNL d   1      27.028 -16.175   0.046  0.00  0.00     0.068 C 
ATOM     10  C   UNL d   1      26.358 -17.402   0.163  0.00  0.00     0.092 C 
ATOM     11  C   UNL d   1      25.256 -17.786  -0.569  0.00  0.00     0.039 C 
ATOM     12  C   UNL d   1      24.916 -17.059  -1.665  0.00  0.00     0.010 C 
ATOM     13  C   UNL d   1      25.593 -15.876  -1.977  0.00  0.00    -0.052 C 
ATOM     14  C   UNL d   1      26.615 -15.397  -1.078  0.00  0.00     0.039 C 
BRANCH  10  15
ATOM     15  O   UNL d   1      26.841 -18.502   0.803  0.00  0.00    -0.358 OA
ATOM     16  H   UNL d   1      27.801 -18.333   0.888  0.00  0.00     0.217 HD
ENDBRANCH  10  15
BRANCH  13  17
ATOM     17  C   UNL d   1      25.184 -15.169  -3.277  0.00  0.00     0.014 C 
ATOM     18  C   UNL d   1      26.152 -15.577  -4.386  0.00  0.00     0.015 C 
BRANCH  17  19
ATOM     19  C   UNL d   1      25.165 -13.612  -3.132  0.00  0.00     0.004 C 
ATOM     20  C   UNL d   1      25.505 -12.843  -4.389  0.00  0.00     0.006 C 
ENDBRANCH  17  19
ENDBRANCH  13  17
ENDBRANCH   7   9
ENDBRANCH   5   7
ENDBRANCH   1   5
BRANCH   2  21
ATOM     21  C   UNL d   1      27.134 -11.805   3.107  0.00  0.00     0.061 A 
ATOM     22  C   UNL d   1      26.475 -10.714   2.491  0.00  0.00     0.055 A 
ATOM     23  C   UNL d   1      26.483  -9.468   3.086  0.00  0.00     0.104 A 
ATOM     24  C   UNL d   1      27.044  -9.327   4.357  0.00  0.00     0.038 A 
ATOM     25  C   UNL d   1      27.695 -10.425   4.966  0.00  0.00     0.033 A 
ATOM     26  C   UNL d   1      27.799 -11.682   4.339  0.00  0.00     0.046 A 
BRANCH  23  27
ATOM     27  N   UNL d   1      26.003  -8.292   2.345  0.00  0.00    -0.116 N 
ATOM     28  O   UNL d   1      25.258  -8.497   1.361  0.00  0.00    -0.532 OA
ATOM     29  O   UNL d   1      26.372  -7.184   2.719  0.00  0.00    -0.532 OA
ENDBRANCH  23  27
BRANCH  26  30
ATOM     30  N   UNL d   1      28.548 -12.694   4.897  0.00  0.00    -0.376 N 
ATOM     31  C   UNL d   1      30.019 -12.785   4.781  0.00  0.00     0.149 C 
ATOM     32  C   UNL d   1      30.414 -14.206   4.348  0.00  0.00     0.187 C 
ATOM     33  O   UNL d   1      29.753 -15.264   5.061  0.00  0.00    -0.388 OA
ATOM     34  C   UNL d   1      28.326 -15.100   5.131  0.00  0.00     0.187 C 
ATOM     35  C   UNL d   1      27.941 -13.735   5.725  0.00  0.00     0.149 C 
ENDBRANCH  26  30
ENDBRANCH   2  21
TORSDOF 9
ENDMDL
MODEL 4
REMARK VINA RESULT:    -8.176      4.736      8.418
REMARK INTER + INTRA:         -12.867
REMARK INTER:                 -10.860
REMARK INTRA:                  -2.007
REMARK CONF_INDEPENDENT:        2.685
REMARK UNBOUND:                -2.007
REMARK  9 active torsions:
REMARK  status: ('A' for Active; 'I' for Inactive)
REMARK    1  A    between atoms: C_2  and  C_3 
REMARK    2  A    between atoms: C_3  and  C_5 
REMARK    3  A    between atoms: C_8  and  O_9 
REMARK    4  A    between atoms: C_10  and  N_11 
REMARK    5  A    between atoms: N_11  and  C_12 
REMARK    6  A    between atoms: C_12  and  N_14 
REMARK       I    between atoms: N_14  and  C_15 
REMARK    7  A    between atoms: C_15  and  C_17 
REMARK    8  A    between atoms: C_19  and  N_20 
REMARK    9  A    between atoms: C_25  and  N_26 
ROOT
ATOM      1  N   UNL d   1      29.183 -10.201   6.373  0.00  0.00    -0.299 N 
ATOM      2  C   UNL d   1      28.272 -11.073   5.764  0.00  0.00     0.260 C 
ATOM      3  O   UNL d   1      27.622 -11.979   6.323  0.00  0.00    -0.267 OA
ATOM      4  H   UNL d   1      29.628  -9.565   5.727  0.00  0.00     0.171 HD
ENDROOT
BRANCH   1   5
ATOM      5  C   UNL d   1      29.824 -10.483   7.615  0.00  0.00     0.179 C 
ATOM      6  S   UNL d   1      31.443 -10.007   7.797  0.00  0.00    -0.040 SA
BRANCH   5   7
ATOM      7  N   UNL d   1      28.958 -10.986   8.655  0.00  0.00    -0.331 N 
ATOM      8  H   UNL d   1      28.398 -10.317   9.179  0.00  0.00     0.168 HD
BRANCH   7   9
ATOM      9  C   UNL d   1      28.969 -12.332   9.259  0.00  0.00     0.068 C 
ATOM     10  C   UNL d   1      27.932 -12.819  10.069  0.00  0.00     0.092 C 
ATOM     11  C   UNL d   1      27.825 -14.108  10.543  0.00  0.00     0.039 C 
ATOM     12  C   UNL d   1      28.903 -14.928  10.454  0.00  0.00     0.010 C 
ATOM     13  C   UNL d   1      30.061 -14.518   9.785  0.00  0.00    -0.052 C 
ATOM     14  C   UNL d   1      30.069 -13.232   9.127  0.00  0.00     0.039 C 
BRANCH  10  15
ATOM     15  O   UNL d   1      27.030 -12.049  10.736  0.00  0.00    -0.358 OA
ATOM     16  H   UNL d   1      27.548 -11.638  11.458  0.00  0.00     0.217 HD
ENDBRANCH  10  15
BRANCH  13  17
ATOM     17  C   UNL d   1      31.251 -15.487   9.805  0.00  0.00     0.014 C 
ATOM     18  C   UNL d   1      31.185 -16.322  11.082  0.00  0.00     0.015 C 
BRANCH  17  19
ATOM     19  C   UNL d   1      32.627 -14.749   9.720  0.00  0.00     0.004 C 
ATOM     20  C   UNL d   1      33.800 -15.503  10.307  0.00  0.00     0.006 C 
ENDBRANCH  17  19
ENDBRANCH  13  17
ENDBRANCH   7   9
ENDBRANCH   5   7
ENDBRANCH   1   5
BRANCH   2  21
ATOM     21  C   UNL d   1      27.921 -10.992   4.349  0.00  0.00     0.061 A 
ATOM     22  C   UNL d   1      27.392  -9.730   3.984  0.00  0.00     0.055 A 
ATOM     23  C   UNL d   1      26.756  -9.566   2.770  0.00  0.00     0.104 A 
ATOM     24  C   UNL d   1      26.748 -10.624   1.859  0.00  0.00     0.038 A 
ATOM     25  C   UNL d   1      27.284 -11.879   2.232  0.00  0.00     0.033 A 
ATOM     26  C   UNL d   1      27.844 -12.112   3.503  0.00  0.00     0.046 A 
BRANCH  23  27
ATOM     27  N   UNL d   1      26.009  -8.330   2.488  0.00  0.00    -0.116 N 
ATOM     28  O   UNL d   1      26.280  -7.324   3.181  0.00  0.00    -0.532 OA
ATOM     29  O   UNL d   1      25.156  -8.360   1.608  0.00  0.00    -0.532 OA
ENDBRANCH  23  27
BRANCH  26  30
ATOM     30  N   UNL d   1      28.242 -13.374   3.884  0.00  0.00    -0.376 N 
ATOM     31  C   UNL d   1      27.412 -14.281   4.705  0.00  0.00     0.149 C 
ATOM     32  C   UNL d   1      28.257 -14.851   5.856  0.00  0.00     0.187 C 
ATOM     33  O   UNL d   1      29.559 -15.327   5.476  0.00  0.00    -0.388 OA
ATOM     34  C   UNL d   1      30.300 -14.387   4.678  0.00  0.00     0.187 C 
ATOM     35  C   UNL d   1      29.507 -13.952   3.435  0.00  0.00     0.149 C 
ENDBRANCH  26  30
ENDBRANCH   2  21
TORSDOF 9
ENDMDL
MODEL 5
REMARK VINA RESULT:    -8.101      3.714      5.380
REMARK INTER + INTRA:         -13.171
REMARK INTER:                 -10.786
REMARK INTRA:                  -2.385
REMARK CONF_INDEPENDENT:        2.685
REMARK UNBOUND:                -2.385
REMARK  9 active torsions:
REMARK  status: ('A' for Active; 'I' for Inactive)
REMARK    1  A    between atoms: C_2  and  C_3 
REMARK    2  A    between atoms: C_3  and  C_5 
REMARK    3  A    between atoms: C_8  and  O_9 
REMARK    4  A    between atoms: C_10  and  N_11 
REMARK    5  A    between atoms: N_11  and  C_12 
REMARK    6  A    between atoms: C_12  and  N_14 
REMARK       I    between atoms: N_14  and  C_15 
REMARK    7  A    between atoms: C_15  and  C_17 
REMARK    8  A    between atoms: C_19  and  N_20 
REMARK    9  A    between atoms: C_25  and  N_26 
ROOT
ATOM      1  N   UNL d   1      28.369 -13.389  -2.530  0.00  0.00    -0.299 N 
ATOM      2  C   UNL d   1      27.545 -12.430  -1.930  0.00  0.00     0.260 C 
ATOM      3  O   UNL d   1      27.183 -12.403  -0.736  0.00  0.00    -0.267 OA
ATOM      4  H   UNL d   1      28.507 -13.242  -3.520  0.00  0.00     0.171 HD
ENDROOT
BRANCH   1   5
ATOM      5  C   UNL d   1      28.570 -14.696  -1.993  0.00  0.00     0.179 C 
ATOM      6  S   UNL d   1      29.829 -15.633  -2.637  0.00  0.00    -0.040 SA
BRANCH   5   7
ATOM      7  N   UNL d   1      27.783 -15.007  -0.824  0.00  0.00    -0.331 N 
ATOM      8  H   UNL d   1      27.936 -14.458   0.019  0.00  0.00     0.168 HD
BRANCH   7   9
ATOM      9  C   UNL d   1      26.958 -16.209  -0.591  0.00  0.00     0.068 C 
ATOM     10  C   UNL d   1      27.487 -17.428  -0.143  0.00  0.00     0.092 C 
ATOM     11  C   UNL d   1      26.752 -18.535   0.220  0.00  0.00     0.039 C 
ATOM     12  C   UNL d   1      25.433 -18.577  -0.102  0.00  0.00     0.010 C 
ATOM     13  C   UNL d   1      24.803 -17.470  -0.682  0.00  0.00    -0.052 C 
ATOM     14  C   UNL d   1      25.559 -16.254  -0.868  0.00  0.00     0.039 C 
BRANCH  10  15
ATOM     15  O   UNL d   1      28.789 -17.809  -0.256  0.00  0.00    -0.358 OA
ATOM     16  H   UNL d   1      29.188 -17.570   0.606  0.00  0.00     0.217 HD
ENDBRANCH  10  15
BRANCH  13  17
ATOM     17  C   UNL d   1      23.330 -17.643  -1.078  0.00  0.00     0.014 C 
ATOM     18  C   UNL d   1      22.529 -16.469  -0.520  0.00  0.00     0.015 C 
BRANCH  17  19
ATOM     19  C   UNL d   1      22.726 -18.993  -0.569  0.00  0.00     0.004 C 
ATOM     20  C   UNL d   1      21.257 -18.948  -0.212  0.00  0.00     0.006 C 
ENDBRANCH  17  19
ENDBRANCH  13  17
ENDBRANCH   7   9
ENDBRANCH   5   7
ENDBRANCH   1   5
BRANCH   2  21
ATOM     21  C   UNL d   1      27.027 -11.269  -2.647  0.00  0.00     0.061 A 
ATOM     22  C   UNL d   1      27.030 -10.090  -1.863  0.00  0.00     0.055 A 
ATOM     23  C   UNL d   1      26.328  -8.975  -2.276  0.00  0.00     0.104 A 
ATOM     24  C   UNL d   1      25.716  -8.986  -3.531  0.00  0.00     0.038 A 
ATOM     25  C   UNL d   1      25.724 -10.167  -4.309  0.00  0.00     0.033 A 
ATOM     26  C   UNL d   1      26.339 -11.356  -3.869  0.00  0.00     0.046 A 
BRANCH  23  27
ATOM     27  N   UNL d   1      26.142  -7.838  -1.362  0.00  0.00    -0.116 N 
ATOM     28  O   UNL d   1      25.148  -7.868  -0.602  0.00  0.00    -0.532 OA
ATOM     29  O   UNL d   1      26.955  -6.921  -1.409  0.00  0.00    -0.532 OA
ENDBRANCH  23  27
BRANCH  26  30
ATOM     30  N   UNL d   1      26.220 -12.524  -4.588  0.00  0.00    -0.376 N 
ATOM     31  C   UNL d   1      25.227 -13.576  -4.283  0.00  0.00     0.149 C 
ATOM     32  C   UNL d   1      25.922 -14.946  -4.247  0.00  0.00     0.187 C 
ATOM     33  O   UNL d   1      26.822 -15.201  -5.337  0.00  0.00    -0.388 OA
ATOM     34  C   UNL d   1      27.754 -14.130  -5.569  0.00  0.00     0.187 C 
ATOM     35  C   UNL d   1      27.034 -12.787  -5.773  0.00  0.00     0.149 C 
ENDBRANCH  26  30
ENDBRANCH   2  21
TORSDOF 9
ENDMDL
MODEL 6
REMARK VINA RESULT:    -7.921      4.551      7.687
REMARK INTER + INTRA:         -12.655
REMARK INTER:                 -10.605
REMARK INTRA:                  -2.049
REMARK CONF_INDEPENDENT:        2.685
REMARK UNBOUND:                -2.049
REMARK  9 active torsions:
REMARK  status: ('A' for Active; 'I' for Inactive)
REMARK    1  A    between atoms: C_2  and  C_3 
REMARK    2  A    between atoms: C_3  and  C_5 
REMARK    3  A    between atoms: C_8  and  O_9 
REMARK    4  A    between atoms: C_10  and  N_11 
REMARK    5  A    between atoms: N_11  and  C_12 
REMARK    6  A    between atoms: C_12  and  N_14 
REMARK       I    between atoms: N_14  and  C_15 
REMARK    7  A    between atoms: C_15  and  C_17 
REMARK    8  A    between atoms: C_19  and  N_20 
REMARK    9  A    between atoms: C_25  and  N_26 
ROOT
ATOM      1  N   UNL d   1      26.237 -15.874  -3.399  0.00  0.00    -0.299 N 
ATOM      2  C   UNL d   1      25.153 -15.830  -2.514  0.00  0.00     0.260 C 
ATOM      3  O   UNL d   1      24.273 -14.948  -2.460  0.00  0.00    -0.267 OA
ATOM      4  H   UNL d   1      26.853 -16.659  -3.246  0.00  0.00     0.171 HD
ENDROOT
BRANCH   1   5
ATOM      5  C   UNL d   1      26.742 -14.723  -4.074  0.00  0.00     0.179 C 
ATOM      6  S   UNL d   1      25.639 -13.507  -4.501  0.00  0.00    -0.040 SA
BRANCH   5   7
ATOM      7  N   UNL d   1      28.181 -14.641  -4.158  0.00  0.00    -0.331 N 
ATOM      8  H   UNL d   1      28.638 -13.813  -3.782  0.00  0.00     0.168 HD
BRANCH   7   9
ATOM      9  C   UNL d   1      29.082 -15.484  -4.968  0.00  0.00     0.068 C 
ATOM     10  C   UNL d   1      29.331 -15.254  -6.330  0.00  0.00     0.092 C 
ATOM     11  C   UNL d   1      30.261 -15.920  -7.097  0.00  0.00     0.039 C 
ATOM     12  C   UNL d   1      30.821 -17.055  -6.605  0.00  0.00     0.010 C 
ATOM     13  C   UNL d   1      30.553 -17.477  -5.298  0.00  0.00    -0.052 C 
ATOM     14  C   UNL d   1      29.727 -16.648  -4.452  0.00  0.00     0.039 C 
BRANCH  10  15
ATOM     15  O   UNL d   1      28.522 -14.551  -7.168  0.00  0.00    -0.358 OA
ATOM     16  H   UNL d   1      28.908 -14.695  -8.056  0.00  0.00     0.217 HD
ENDBRANCH  10  15
BRANCH  13  17
ATOM     17  C   UNL d   1      31.173 -18.812  -4.862  0.00  0.00     0.014 C 
ATOM     18  C   UNL d   1      30.406 -19.952  -5.528  0.00  0.00     0.015 C 
BRANCH  17  19
ATOM     19  C   UNL d   1      31.164 -18.998  -3.310  0.00  0.00     0.004 C 
ATOM     20  C   UNL d   1      32.108 -18.095  -2.546  0.00  0.00     0.006 C 
ENDBRANCH  17  19
ENDBRANCH  13  17
ENDBRANCH   7   9
ENDBRANCH   5   7
ENDBRANCH   1   5
BRANCH   2  21
ATOM     21  C   UNL d   1      24.882 -16.882  -1.539  0.00  0.00     0.061 A 
ATOM     22  C   UNL d   1      23.572 -17.408  -1.644  0.00  0.00     0.055 A 
ATOM     23  C   UNL d   1      23.055 -18.201  -0.639  0.00  0.00     0.104 A 
ATOM     24  C   UNL d   1      23.882 -18.575   0.422  0.00  0.00     0.038 A 
ATOM     25  C   UNL d   1      25.192 -18.049   0.515  0.00  0.00     0.033 A 
ATOM     26  C   UNL d   1      25.713 -17.151  -0.437  0.00  0.00     0.046 A 
BRANCH  23  27
ATOM     27  N   UNL d   1      21.628 -18.555  -0.637  0.00  0.00    -0.116 N 
ATOM     28  O   UNL d   1      20.815 -17.669  -0.984  0.00  0.00    -0.532 OA
ATOM     29  O   UNL d   1      21.315 -19.685  -0.279  0.00  0.00    -0.532 OA
ENDBRANCH  23  27
BRANCH  26  30
ATOM     30  N   UNL d   1      26.941 -16.556  -0.255  0.00  0.00    -0.376 N 
ATOM     31  C   UNL d   1      27.129 -15.098  -0.095  0.00  0.00     0.149 C 
ATOM     32  C   UNL d   1      28.251 -14.618  -1.029  0.00  0.00     0.187 C 
ATOM     33  O   UNL d   1      29.437 -15.429  -1.023  0.00  0.00    -0.388 OA
ATOM     34  C   UNL d   1      29.167 -16.834  -1.182  0.00  0.00     0.187 C 
ATOM     35  C   UNL d   1      28.168 -17.341  -0.130  0.00  0.00     0.149 C 
ENDBRANCH  26  30
ENDBRANCH   2  21
TORSDOF 9
ENDMDL
MODEL 7
REMARK VINA RESULT:    -7.702      4.533      7.653
REMARK INTER + INTRA:         -12.774
REMARK INTER:                 -10.387
REMARK INTRA:                  -2.387
REMARK CONF_INDEPENDENT:        2.685
REMARK UNBOUND:                -2.387
REMARK  9 active torsions:
REMARK  status: ('A' for Active; 'I' for Inactive)
REMARK    1  A    between atoms: C_2  and  C_3 
REMARK    2  A    between atoms: C_3  and  C_5 
REMARK    3  A    between atoms: C_8  and  O_9 
REMARK    4  A    between atoms: C_10  and  N_11 
REMARK    5  A    between atoms: N_11  and  C_12 
REMARK    6  A    between atoms: C_12  and  N_14 
REMARK       I    between atoms: N_14  and  C_15 
REMARK    7  A    between atoms: C_15  and  C_17 
REMARK    8  A    between atoms: C_19  and  N_20 
REMARK    9  A    between atoms: C_25  and  N_26 
ROOT
ATOM      1  N   UNL d   1      29.997 -17.302  -2.686  0.00  0.00    -0.299 N 
ATOM      2  C   UNL d   1      29.989 -15.934  -2.984  0.00  0.00     0.260 C 
ATOM      3  O   UNL d   1      30.696 -15.054  -2.455  0.00  0.00    -0.267 OA
ATOM      4  H   UNL d   1      29.316 -17.835  -3.208  0.00  0.00     0.171 HD
ENDROOT
BRANCH   1   5
ATOM      5  C   UNL d   1      30.492 -17.832  -1.458  0.00  0.00     0.179 C 
ATOM      6  S   UNL d   1      32.025 -18.561  -1.469  0.00  0.00    -0.040 SA
BRANCH   5   7
ATOM      7  N   UNL d   1      29.700 -17.523  -0.291  0.00  0.00    -0.331 N 
ATOM      8  H   UNL d   1      29.957 -17.957   0.593  0.00  0.00     0.168 HD
BRANCH   7   9
ATOM      9  C   UNL d   1      28.382 -16.861  -0.251  0.00  0.00     0.068 C 
ATOM     10  C   UNL d   1      28.159 -15.631   0.385  0.00  0.00     0.092 C 
ATOM     11  C   UNL d   1      26.989 -14.905   0.337  0.00  0.00     0.039 C 
ATOM     12  C   UNL d   1      25.868 -15.505  -0.138  0.00  0.00     0.010 C 
ATOM     13  C   UNL d   1      25.921 -16.793  -0.683  0.00  0.00    -0.052 C 
ATOM     14  C   UNL d   1      27.202 -17.450  -0.798  0.00  0.00     0.039 C 
BRANCH  10  15
ATOM     15  O   UNL d   1      28.944 -15.098   1.361  0.00  0.00    -0.358 OA
ATOM     16  H   UNL d   1      29.056 -15.825   2.008  0.00  0.00     0.217 HD
ENDBRANCH  10  15
BRANCH  13  17
ATOM     17  C   UNL d   1      24.588 -17.413  -1.123  0.00  0.00     0.014 C 
ATOM     18  C   UNL d   1      23.540 -16.306  -1.226  0.00  0.00     0.015 C 
BRANCH  17  19
ATOM     19  C   UNL d   1      24.093 -18.528  -0.144  0.00  0.00     0.004 C 
ATOM     20  C   UNL d   1      22.667 -18.984  -0.356  0.00  0.00     0.006 C 
ENDBRANCH  17  19
ENDBRANCH  13  17
ENDBRANCH   7   9
ENDBRANCH   5   7
ENDBRANCH   1   5
BRANCH   2  21
ATOM     21  C   UNL d   1      29.149 -15.356  -4.029  0.00  0.00     0.061 A 
ATOM     22  C   UNL d   1      27.937 -14.820  -3.531  0.00  0.00     0.055 A 
ATOM     23  C   UNL d   1      26.913 -14.490  -4.395  0.00  0.00     0.104 A 
ATOM     24  C   UNL d   1      27.132 -14.577  -5.771  0.00  0.00     0.038 A 
ATOM     25  C   UNL d   1      28.348 -15.107  -6.259  0.00  0.00     0.033 A 
ATOM     26  C   UNL d   1      29.373 -15.555  -5.403  0.00  0.00     0.046 A 
BRANCH  23  27
ATOM     27  N   UNL d   1      25.581 -14.154  -3.868  0.00  0.00    -0.116 N 
ATOM     28  O   UNL d   1      25.529 -13.601  -2.747  0.00  0.00    -0.532 OA
ATOM     29  O   UNL d   1      24.602 -14.450  -4.544  0.00  0.00    -0.532 OA
ENDBRANCH  23  27
BRANCH  26  30
ATOM     30  N   UNL d   1      30.492 -16.184  -5.902  0.00  0.00    -0.376 N 
ATOM     31  C   UNL d   1      31.564 -15.484  -6.640  0.00  0.00     0.149 C 
ATOM     32  C   UNL d   1      31.891 -16.255  -7.929  0.00  0.00     0.187 C 
ATOM     33  O   UNL d   1      32.034 -17.676  -7.768  0.00  0.00    -0.388 OA
ATOM     34  C   UNL d   1      30.951 -18.279  -7.039  0.00  0.00     0.187 C 
ATOM     35  C   UNL d   1      30.743 -17.606  -5.673  0.00  0.00     0.149 C 
ENDBRANCH  26  30
ENDBRANCH   2  21
TORSDOF 9
ENDMDL
MODEL 8
REMARK VINA RESULT:    -6.952      4.669      8.046
REMARK INTER + INTRA:         -12.644
REMARK INTER:                  -9.637
REMARK INTRA:                  -3.007
REMARK CONF_INDEPENDENT:        2.685
REMARK UNBOUND:                -3.007
REMARK  9 active torsions:
REMARK  status: ('A' for Active; 'I' for Inactive)
REMARK    1  A    between atoms: C_2  and  C_3 
REMARK    2  A    between atoms: C_3  and  C_5 
REMARK    3  A    between atoms: C_8  and  O_9 
REMARK    4  A    between atoms: C_10  and  N_11 
REMARK    5  A    between atoms: N_11  and  C_12 
REMARK    6  A    between atoms: C_12  and  N_14 
REMARK       I    between atoms: N_14  and  C_15 
REMARK    7  A    between atoms: C_15  and  C_17 
REMARK    8  A    between atoms: C_19  and  N_20 
REMARK    9  A    between atoms: C_25  and  N_26 
ROOT
ATOM      1  N   UNL d   1      26.192 -14.313  -2.300  0.00  0.00    -0.299 N 
ATOM      2  C   UNL d   1      25.694 -15.559  -2.698  0.00  0.00     0.260 C 
ATOM      3  O   UNL d   1      25.528 -15.954  -3.868  0.00  0.00    -0.267 OA
ATOM      4  H   UNL d   1      26.210 -14.184  -1.299  0.00  0.00     0.171 HD
ENDROOT
BRANCH   1   5
ATOM      5  C   UNL d   1      26.180 -13.161  -3.143  0.00  0.00     0.179 C 
ATOM      6  S   UNL d   1      26.582 -11.666  -2.447  0.00  0.00    -0.040 SA
BRANCH   5   7
ATOM      7  N   UNL d   1      26.000 -13.429  -4.550  0.00  0.00    -0.331 N 
ATOM      8  H   UNL d   1      25.129 -13.861  -4.849  0.00  0.00     0.168 HD
BRANCH   7   9
ATOM      9  C   UNL d   1      27.031 -13.410  -5.606  0.00  0.00     0.068 C 
ATOM     10  C   UNL d   1      27.824 -14.522  -5.926  0.00  0.00     0.092 C 
ATOM     11  C   UNL d   1      28.700 -14.602  -6.986  0.00  0.00     0.039 C 
ATOM     12  C   UNL d   1      29.037 -13.462  -7.642  0.00  0.00     0.010 C 
ATOM     13  C   UNL d   1      28.417 -12.248  -7.330  0.00  0.00    -0.052 C 
ATOM     14  C   UNL d   1      27.359 -12.235  -6.347  0.00  0.00     0.039 C 
BRANCH  10  15
ATOM     15  O   UNL d   1      28.064 -15.579  -5.102  0.00  0.00    -0.358 OA
ATOM     16  H   UNL d   1      27.256 -15.647  -4.552  0.00  0.00     0.217 HD
ENDBRANCH  10  15
BRANCH  13  17
ATOM     17  C   UNL d   1      28.921 -11.003  -8.074  0.00  0.00     0.014 C 
ATOM     18  C   UNL d   1      29.372  -9.965  -7.049  0.00  0.00     0.015 C 
BRANCH  17  19
ATOM     19  C   UNL d   1      27.835 -10.387  -9.016  0.00  0.00     0.004 C 
ATOM     20  C   UNL d   1      26.931 -11.388  -9.700  0.00  0.00     0.006 C 
ENDBRANCH  17  19
ENDBRANCH  13  17
ENDBRANCH   7   9
ENDBRANCH   5   7
ENDBRANCH   1   5
BRANCH   2  21
ATOM     21  C   UNL d   1      25.341 -16.611  -1.748  0.00  0.00     0.061 A 
ATOM     22  C   UNL d   1      24.019 -17.088  -1.920  0.00  0.00     0.055 A 
ATOM     23  C   UNL d   1      23.428 -17.872  -0.949  0.00  0.00     0.104 A 
ATOM     24  C   UNL d   1      24.191 -18.286   0.144  0.00  0.00     0.038 A 
ATOM     25  C   UNL d   1      25.512 -17.809   0.304  0.00  0.00     0.033 A 
ATOM     26  C   UNL d   1      26.109 -16.921  -0.613  0.00  0.00     0.046 A 
BRANCH  23  27
ATOM     27  N   UNL d   1      21.990 -18.174  -1.017  0.00  0.00    -0.116 N 
ATOM     28  O   UNL d   1      21.195 -17.215  -0.895  0.00  0.00    -0.532 OA
ATOM     29  O   UNL d   1      21.653 -19.343  -1.169  0.00  0.00    -0.532 OA
ENDBRANCH  23  27
BRANCH  26  30
ATOM     30  N   UNL d   1      27.348 -16.372  -0.367  0.00  0.00    -0.376 N 
ATOM     31  C   UNL d   1      27.637 -15.482   0.778  0.00  0.00     0.149 C 
ATOM     32  C   UNL d   1      28.388 -14.236   0.284  0.00  0.00     0.187 C 
ATOM     33  O   UNL d   1      29.471 -14.498  -0.623  0.00  0.00    -0.388 OA
ATOM     34  C   UNL d   1      29.108 -15.373  -1.706  0.00  0.00     0.187 C 
ATOM     35  C   UNL d   1      28.511 -16.693  -1.192  0.00  0.00     0.149 C 
ENDBRANCH  26  30
ENDBRANCH   2  21
TORSDOF 9
ENDMDL
