MODEL 1
REMARK VINA RESULT:   -10.149      0.000      0.000
REMARK INTER + INTRA:         -14.728
REMARK INTER:                 -12.833
REMARK INTRA:                  -1.894
REMARK CONF_INDEPENDENT:        2.685
REMARK UNBOUND:                -1.894
REMARK  9 active torsions:
REMARK  status: ('A' for Active; 'I' for Inactive)
REMARK    1  A    between atoms: C_2  and  C_26 
REMARK    2  A    between atoms: N_3  and  N_4 
REMARK    3  A    between atoms: N_4  and  C_5 
REMARK    4  A    between atoms: C_7  and  S_8 
REMARK    5  A    between atoms: S_8  and  C_9 
REMARK    6  A    between atoms: C_9  and  C_10 
REMARK       I    between atoms: C_10  and  N_12 
REMARK    7  A    between atoms: N_12  and  C_13 
REMARK    8  A    between atoms: C_13  and  C_14 
REMARK    9  A    between atoms: C_17  and  C_18 
ROOT
ATOM      1  C   UNL d   1      30.979 -14.384   2.420  0.00  0.00     0.739 A 
ATOM      2  N   UNL d   1      31.028 -14.838   1.180  0.00  0.00    -0.034 NA
ATOM      3  C   UNL d   1      31.881 -15.907   1.255  0.00  0.00     0.226 A 
ATOM      4  N   UNL d   1      32.348 -16.164   2.484  0.00  0.00    -0.132 NA
ATOM      5  N   UNL d   1      31.763 -15.197   3.200  0.00  0.00    -0.103 N 
ATOM      6  H   UNL d   1      31.894 -15.184   4.204  0.00  0.00     0.208 HD
ENDROOT
BRANCH   3   7
ATOM      7  S   UNL d   1      32.385 -16.925  -0.063  0.00  0.00    -0.079 SA
BRANCH   7   8
ATOM      8  C   UNL d   1      30.950 -17.973  -0.453  0.00  0.00     0.185 C 
BRANCH   8   9
ATOM      9  C   UNL d   1      29.775 -17.093  -0.930  0.00  0.00     0.227 C 
ATOM     10  O   UNL d   1      29.380 -17.039  -2.107  0.00  0.00    -0.273 OA
ATOM     11  N   UNL d   1      29.147 -16.330   0.033  0.00  0.00    -0.356 N 
ATOM     12  H   UNL d   1      29.452 -16.352   0.998  0.00  0.00     0.162 HD
BRANCH  11  13
ATOM     13  C   UNL d   1      28.027 -15.470  -0.327  0.00  0.00     0.161 C 
BRANCH  13  14
ATOM     14  C   UNL d   1      26.733 -16.244  -0.378  0.00  0.00    -0.041 A 
ATOM     15  C   UNL d   1      26.568 -17.400   0.398  0.00  0.00     0.009 A 
ATOM     16  C   UNL d   1      25.431 -18.198   0.247  0.00  0.00     0.017 A 
ATOM     17  C   UNL d   1      24.408 -17.825  -0.636  0.00  0.00     0.047 A 
ATOM     18  C   UNL d   1      24.557 -16.648  -1.385  0.00  0.00     0.017 A 
ATOM     19  C   UNL d   1      25.709 -15.866  -1.257  0.00  0.00     0.009 A 
BRANCH  17  20
ATOM     20  C   UNL d   1      23.159 -18.666  -0.732  0.00  0.00     0.417 C 
ATOM     21  F   UNL d   1      22.788 -18.918  -2.019  0.00  0.00    -0.166 F 
ATOM     22  F   UNL d   1      23.315 -19.885  -0.145  0.00  0.00    -0.166 F 
ATOM     23  F   UNL d   1      22.071 -18.103  -0.134  0.00  0.00    -0.166 F 
ENDBRANCH  17  20
ENDBRANCH  13  14
ENDBRANCH  11  13
ENDBRANCH   8   9
ENDBRANCH   7   8
ENDBRANCH   3   7
BRANCH   1  24
ATOM     24  N   UNL d   1      30.313 -13.331   2.978  0.00  0.00    -0.106 N 
ATOM     25  H   UNL d   1      29.949 -12.624   2.348  0.00  0.00     0.208 HD
BRANCH  24  26
ATOM     26  N   UNL d   1      30.066 -13.237   4.325  0.00  0.00    -0.164 NA
ATOM     27  C   UNL d   1      28.959 -13.680   4.868  0.00  0.00     0.061 C 
ATOM     28  C   UNL d   1      27.829 -14.349   4.112  0.00  0.00     0.073 C 
BRANCH  27  29
ATOM     29  C   UNL d   1      28.775 -13.470   6.374  0.00  0.00    -0.009 C 
ATOM     30  C   UNL d   1      28.456 -12.170   6.769  0.00  0.00     0.014 C 
ATOM     31  C   UNL d   1      28.347 -11.848   8.121  0.00  0.00     0.013 C 
ATOM     32  C   UNL d   1      28.495 -12.820   9.117  0.00  0.00    -0.029 C 
ATOM     33  C   UNL d   1      28.187 -12.472  10.434  0.00  0.00    -0.005 C 
ATOM     34  C   UNL d   1      28.915 -14.128   8.811  0.00  0.00    -0.026 C 
ATOM     35  C   UNL d   1      28.127 -13.451  11.407  0.00  0.00     0.043 C 
ATOM     36  C   UNL d   1      29.088 -14.417  11.274  0.00  0.00    -0.016 C 
ATOM     37  C   UNL d   1      29.288 -14.914   9.976  0.00  0.00     0.009 C 
ATOM     38  C   UNL d   1      28.993 -14.450   7.390  0.00  0.00     0.025 C 
ENDBRANCH  27  29
ENDBRANCH  24  26
ENDBRANCH   1  24
TORSDOF 9
ENDMDL
MODEL 2
REMARK VINA RESULT:    -9.938      6.974      9.127
REMARK INTER + INTRA:         -14.539
REMARK INTER:                 -12.623
REMARK INTRA:                  -1.916
REMARK CONF_INDEPENDENT:        2.685
REMARK UNBOUND:                -1.916
REMARK  9 active torsions:
REMARK  status: ('A' for Active; 'I' for Inactive)
REMARK    1  A    between atoms: C_2  and  C_26 
REMARK    2  A    between atoms: N_3  and  N_4 
REMARK    3  A    between atoms: N_4  and  C_5 
REMARK    4  A    between atoms: C_7  and  S_8 
REMARK    5  A    between atoms: S_8  and  C_9 
REMARK    6  A    between atoms: C_9  and  C_10 
REMARK       I    between atoms: C_10  and  N_12 
REMARK    7  A    between atoms: N_12  and  C_13 
REMARK    8  A    between atoms: C_13  and  C_14 
REMARK    9  A    between atoms: C_17  and  C_18 
ROOT
ATOM      1  C   UNL d   1      28.278 -16.996  -0.277  0.00  0.00     0.739 A 
ATOM      2  N   UNL d   1      28.356 -16.054  -1.201  0.00  0.00    -0.034 NA
ATOM      3  C   UNL d   1      29.462 -16.402  -1.931  0.00  0.00     0.226 A 
ATOM      4  N   UNL d   1      30.065 -17.529  -1.530  0.00  0.00    -0.132 NA
ATOM      5  N   UNL d   1      29.299 -17.886  -0.491  0.00  0.00    -0.103 N 
ATOM      6  H   UNL d   1      29.493 -18.761  -0.019  0.00  0.00     0.208 HD
ENDROOT
BRANCH   3   7
ATOM      7  S   UNL d   1      30.119 -15.539  -3.290  0.00  0.00    -0.079 SA
BRANCH   7   8
ATOM      8  C   UNL d   1      29.303 -16.236  -4.759  0.00  0.00     0.185 C 
BRANCH   8   9
ATOM      9  C   UNL d   1      27.986 -15.479  -5.034  0.00  0.00     0.227 C 
ATOM     10  O   UNL d   1      27.550 -15.232  -6.170  0.00  0.00    -0.273 OA
ATOM     11  N   UNL d   1      27.274 -15.063  -3.927  0.00  0.00    -0.356 N 
ATOM     12  H   UNL d   1      27.609 -15.248  -2.990  0.00  0.00     0.162 HD
BRANCH  11  13
ATOM     13  C   UNL d   1      26.018 -14.343  -4.092  0.00  0.00     0.161 C 
BRANCH  13  14
ATOM     14  C   UNL d   1      26.205 -12.859  -3.901  0.00  0.00    -0.041 A 
ATOM     15  C   UNL d   1      26.654 -12.353  -2.674  0.00  0.00     0.009 A 
ATOM     16  C   UNL d   1      26.691 -10.975  -2.446  0.00  0.00     0.017 A 
ATOM     17  C   UNL d   1      26.342 -10.073  -3.461  0.00  0.00     0.047 A 
ATOM     18  C   UNL d   1      25.929 -10.580  -4.703  0.00  0.00     0.017 A 
ATOM     19  C   UNL d   1      25.861 -11.959  -4.920  0.00  0.00     0.009 A 
BRANCH  17  20
ATOM     20  C   UNL d   1      26.456  -8.589  -3.217  0.00  0.00     0.417 C 
ATOM     21  F   UNL d   1      25.798  -8.185  -2.094  0.00  0.00    -0.166 F 
ATOM     22  F   UNL d   1      27.750  -8.195  -3.051  0.00  0.00    -0.166 F 
ATOM     23  F   UNL d   1      25.963  -7.825  -4.232  0.00  0.00    -0.166 F 
ENDBRANCH  17  20
ENDBRANCH  13  14
ENDBRANCH  11  13
ENDBRANCH   8   9
ENDBRANCH   7   8
ENDBRANCH   3   7
BRANCH   1  24
ATOM     24  N   UNL d   1      27.402 -17.190   0.752  0.00  0.00    -0.106 N 
ATOM     25  H   UNL d   1      27.660 -16.816   1.660  0.00  0.00     0.208 HD
BRANCH  24  26
ATOM     26  N   UNL d   1      26.182 -17.796   0.586  0.00  0.00    -0.164 NA
ATOM     27  C   UNL d   1      25.248 -17.294  -0.185  0.00  0.00     0.061 C 
ATOM     28  C   UNL d   1      25.380 -16.015  -0.987  0.00  0.00     0.073 C 
BRANCH  27  29
ATOM     29  C   UNL d   1      23.908 -18.034  -0.248  0.00  0.00    -0.009 C 
ATOM     30  C   UNL d   1      23.450 -18.348  -1.527  0.00  0.00     0.014 C 
ATOM     31  C   UNL d   1      22.204 -18.948  -1.705  0.00  0.00     0.013 C 
ATOM     32  C   UNL d   1      21.403 -19.304  -0.614  0.00  0.00    -0.029 C 
ATOM     33  C   UNL d   1      20.259 -20.068  -0.853  0.00  0.00    -0.005 C 
ATOM     34  C   UNL d   1      21.744 -18.932   0.700  0.00  0.00    -0.026 C 
ATOM     35  C   UNL d   1      19.558 -20.606   0.209  0.00  0.00     0.043 C 
ATOM     36  C   UNL d   1      19.481 -19.774   1.294  0.00  0.00    -0.016 C 
ATOM     37  C   UNL d   1      20.673 -19.131   1.663  0.00  0.00     0.009 C 
ATOM     38  C   UNL d   1      23.064 -18.334   0.865  0.00  0.00     0.025 C 
ENDBRANCH  27  29
ENDBRANCH  24  26
ENDBRANCH   1  24
TORSDOF 9
ENDMDL
MODEL 3
REMARK VINA RESULT:    -9.294      7.640     10.115
REMARK INTER + INTRA:         -13.760
REMARK INTER:                 -11.979
REMARK INTRA:                  -1.781
REMARK CONF_INDEPENDENT:        2.685
REMARK UNBOUND:                -1.781
REMARK  9 active torsions:
REMARK  status: ('A' for Active; 'I' for Inactive)
REMARK    1  A    between atoms: C_2  and  C_26 
REMARK    2  A    between atoms: N_3  and  N_4 
REMARK    3  A    between atoms: N_4  and  C_5 
REMARK    4  A    between atoms: C_7  and  S_8 
REMARK    5  A    between atoms: S_8  and  C_9 
REMARK    6  A    between atoms: C_9  and  C_10 
REMARK       I    between atoms: C_10  and  N_12 
REMARK    7  A    between atoms: N_12  and  C_13 
REMARK    8  A    between atoms: C_13  and  C_14 
REMARK    9  A    between atoms: C_17  and  C_18 
ROOT
ATOM      1  C   UNL d   1      25.369 -15.902  -2.908  0.00  0.00     0.739 A 
ATOM      2  N   UNL d   1      26.285 -15.495  -3.770  0.00  0.00    -0.034 NA
ATOM      3  C   UNL d   1      25.839 -14.262  -4.165  0.00  0.00     0.226 A 
ATOM      4  N   UNL d   1      24.705 -13.862  -3.575  0.00  0.00    -0.132 NA
ATOM      5  N   UNL d   1      24.431 -14.908  -2.785  0.00  0.00    -0.103 N 
ATOM      6  H   UNL d   1      23.637 -14.854  -2.160  0.00  0.00     0.208 HD
ENDROOT
BRANCH   3   7
ATOM      7  S   UNL d   1      26.599 -13.207  -5.321  0.00  0.00    -0.079 SA
BRANCH   7   8
ATOM      8  C   UNL d   1      27.763 -12.185  -4.367  0.00  0.00     0.185 C 
BRANCH   8   9
ATOM      9  C   UNL d   1      28.840 -13.083  -3.723  0.00  0.00     0.227 C 
ATOM     10  O   UNL d   1      29.703 -12.673  -2.930  0.00  0.00    -0.273 OA
ATOM     11  N   UNL d   1      28.815 -14.419  -4.070  0.00  0.00    -0.356 N 
ATOM     12  H   UNL d   1      28.125 -14.778  -4.718  0.00  0.00     0.162 HD
BRANCH  11  13
ATOM     13  C   UNL d   1      29.794 -15.341  -3.508  0.00  0.00     0.161 C 
BRANCH  13  14
ATOM     14  C   UNL d   1      30.176 -16.410  -4.501  0.00  0.00    -0.041 A 
ATOM     15  C   UNL d   1      30.248 -16.114  -5.869  0.00  0.00     0.009 A 
ATOM     16  C   UNL d   1      30.459 -17.131  -6.804  0.00  0.00     0.017 A 
ATOM     17  C   UNL d   1      30.665 -18.454  -6.387  0.00  0.00     0.047 A 
ATOM     18  C   UNL d   1      30.631 -18.743  -5.015  0.00  0.00     0.017 A 
ATOM     19  C   UNL d   1      30.387 -17.731  -4.081  0.00  0.00     0.009 A 
BRANCH  17  20
ATOM     20  C   UNL d   1      30.961 -19.523  -7.409  0.00  0.00     0.417 C 
ATOM     21  F   UNL d   1      32.294 -19.755  -7.562  0.00  0.00    -0.166 F 
ATOM     22  F   UNL d   1      30.412 -20.723  -7.068  0.00  0.00    -0.166 F 
ATOM     23  F   UNL d   1      30.486 -19.239  -8.654  0.00  0.00    -0.166 F 
ENDBRANCH  17  20
ENDBRANCH  13  14
ENDBRANCH  11  13
ENDBRANCH   8   9
ENDBRANCH   7   8
ENDBRANCH   3   7
BRANCH   1  24
ATOM     24  N   UNL d   1      25.246 -17.055  -2.188  0.00  0.00    -0.106 N 
ATOM     25  H   UNL d   1      26.099 -17.480  -1.840  0.00  0.00     0.208 HD
BRANCH  24  26
ATOM     26  N   UNL d   1      24.030 -17.604  -1.867  0.00  0.00    -0.164 NA
ATOM     27  C   UNL d   1      23.756 -18.051  -0.666  0.00  0.00     0.061 C 
ATOM     28  C   UNL d   1      24.711 -18.018   0.510  0.00  0.00     0.073 C 
BRANCH  27  29
ATOM     29  C   UNL d   1      22.383 -18.691  -0.444  0.00  0.00    -0.009 C 
ATOM     30  C   UNL d   1      21.643 -18.950  -1.598  0.00  0.00     0.014 C 
ATOM     31  C   UNL d   1      20.346 -19.456  -1.509  0.00  0.00     0.013 C 
ATOM     32  C   UNL d   1      19.770 -19.772  -0.273  0.00  0.00    -0.029 C 
ATOM     33  C   UNL d   1      18.548 -20.448  -0.266  0.00  0.00    -0.005 C 
ATOM     34  C   UNL d   1      20.407 -19.449   0.940  0.00  0.00    -0.026 C 
ATOM     35  C   UNL d   1      18.049 -20.952   0.921  0.00  0.00     0.043 C 
ATOM     36  C   UNL d   1      18.265 -20.136   1.998  0.00  0.00    -0.016 C 
ATOM     37  C   UNL d   1      19.552 -19.587   2.108  0.00  0.00     0.009 C 
ATOM     38  C   UNL d   1      21.773 -18.950   0.822  0.00  0.00     0.025 C 
ENDBRANCH  27  29
ENDBRANCH  24  26
ENDBRANCH   1  24
TORSDOF 9
ENDMDL
MODEL 4
REMARK VINA RESULT:    -9.137      5.663      8.017
REMARK INTER + INTRA:         -14.408
REMARK INTER:                 -11.822
REMARK INTRA:                  -2.586
REMARK CONF_INDEPENDENT:        2.685
REMARK UNBOUND:                -2.586
REMARK  9 active torsions:
REMARK  status: ('A' for Active; 'I' for Inactive)
REMARK    1  A    between atoms: C_2  and  C_26 
REMARK    2  A    between atoms: N_3  and  N_4 
REMARK    3  A    between atoms: N_4  and  C_5 
REMARK    4  A    between atoms: C_7  and  S_8 
REMARK    5  A    between atoms: S_8  and  C_9 
REMARK    6  A    between atoms: C_9  and  C_10 
REMARK       I    between atoms: C_10  and  N_12 
REMARK    7  A    between atoms: N_12  and  C_13 
REMARK    8  A    between atoms: C_13  and  C_14 
REMARK    9  A    between atoms: C_17  and  C_18 
ROOT
ATOM      1  C   UNL d   1      30.204 -18.093  -1.258  0.00  0.00     0.739 A 
ATOM      2  N   UNL d   1      30.582 -18.154  -2.523  0.00  0.00    -0.034 NA
ATOM      3  C   UNL d   1      31.542 -19.132  -2.531  0.00  0.00     0.226 A 
ATOM      4  N   UNL d   1      31.765 -19.706  -1.342  0.00  0.00    -0.132 NA
ATOM      5  N   UNL d   1      30.908 -19.040  -0.558  0.00  0.00    -0.103 N 
ATOM      6  H   UNL d   1      30.818 -19.315   0.412  0.00  0.00     0.208 HD
ENDROOT
BRANCH   3   7
ATOM      7  S   UNL d   1      32.455 -19.675  -3.908  0.00  0.00    -0.079 SA
BRANCH   7   8
ATOM      8  C   UNL d   1      31.227 -20.249  -5.121  0.00  0.00     0.185 C 
BRANCH   8   9
ATOM      9  C   UNL d   1      30.771 -19.067  -6.001  0.00  0.00     0.227 C 
ATOM     10  O   UNL d   1      30.526 -19.158  -7.216  0.00  0.00    -0.273 OA
ATOM     11  N   UNL d   1      30.636 -17.846  -5.371  0.00  0.00    -0.356 N 
ATOM     12  H   UNL d   1      30.833 -17.743  -4.383  0.00  0.00     0.162 HD
BRANCH  11  13
ATOM     13  C   UNL d   1      30.208 -16.674  -6.125  0.00  0.00     0.161 C 
BRANCH  13  14
ATOM     14  C   UNL d   1      29.152 -15.897  -5.380  0.00  0.00    -0.041 A 
ATOM     15  C   UNL d   1      29.059 -15.984  -3.985  0.00  0.00     0.009 A 
ATOM     16  C   UNL d   1      27.997 -15.382  -3.306  0.00  0.00     0.017 A 
ATOM     17  C   UNL d   1      27.041 -14.627  -4.000  0.00  0.00     0.047 A 
ATOM     18  C   UNL d   1      27.156 -14.508  -5.394  0.00  0.00     0.017 A 
ATOM     19  C   UNL d   1      28.201 -15.138  -6.077  0.00  0.00     0.009 A 
BRANCH  17  20
ATOM     20  C   UNL d   1      25.942 -13.929  -3.240  0.00  0.00     0.417 C 
ATOM     21  F   UNL d   1      24.744 -14.572  -3.329  0.00  0.00    -0.166 F 
ATOM     22  F   UNL d   1      26.217 -13.839  -1.908  0.00  0.00    -0.166 F 
ATOM     23  F   UNL d   1      25.711 -12.652  -3.657  0.00  0.00    -0.166 F 
ENDBRANCH  17  20
ENDBRANCH  13  14
ENDBRANCH  11  13
ENDBRANCH   8   9
ENDBRANCH   7   8
ENDBRANCH   3   7
BRANCH   1  24
ATOM     24  N   UNL d   1      29.292 -17.303  -0.618  0.00  0.00    -0.106 N 
ATOM     25  H   UNL d   1      29.652 -16.539  -0.056  0.00  0.00     0.208 HD
BRANCH  24  26
ATOM     26  N   UNL d   1      27.938 -17.463  -0.766  0.00  0.00    -0.164 NA
ATOM     27  C   UNL d   1      27.069 -16.710  -0.136  0.00  0.00     0.061 C 
ATOM     28  C   UNL d   1      27.424 -15.583   0.812  0.00  0.00     0.073 C 
BRANCH  27  29
ATOM     29  C   UNL d   1      25.583 -17.021  -0.340  0.00  0.00    -0.009 C 
ATOM     30  C   UNL d   1      24.749 -15.913  -0.497  0.00  0.00     0.014 C 
ATOM     31  C   UNL d   1      23.369 -16.076  -0.607  0.00  0.00     0.013 C 
ATOM     32  C   UNL d   1      22.784 -17.347  -0.623  0.00  0.00    -0.029 C 
ATOM     33  C   UNL d   1      21.423 -17.447  -0.925  0.00  0.00    -0.005 C 
ATOM     34  C   UNL d   1      23.538 -18.508  -0.370  0.00  0.00    -0.026 C 
ATOM     35  C   UNL d   1      20.858 -18.688  -1.147  0.00  0.00     0.043 C 
ATOM     36  C   UNL d   1      21.339 -19.667  -0.319  0.00  0.00    -0.016 C 
ATOM     37  C   UNL d   1      22.732 -19.696  -0.144  0.00  0.00     0.009 C 
ATOM     38  C   UNL d   1      24.982 -18.316  -0.288  0.00  0.00     0.025 C 
ENDBRANCH  27  29
ENDBRANCH  24  26
ENDBRANCH   1  24
TORSDOF 9
ENDMDL
MODEL 5
REMARK VINA RESULT:    -9.063      4.478      9.242
REMARK INTER + INTRA:         -13.761
REMARK INTER:                 -11.748
REMARK INTRA:                  -2.013
REMARK CONF_INDEPENDENT:        2.685
REMARK UNBOUND:                -2.013
REMARK  9 active torsions:
REMARK  status: ('A' for Active; 'I' for Inactive)
REMARK    1  A    between atoms: C_2  and  C_26 
REMARK    2  A    between atoms: N_3  and  N_4 
REMARK    3  A    between atoms: N_4  and  C_5 
REMARK    4  A    between atoms: C_7  and  S_8 
REMARK    5  A    between atoms: S_8  and  C_9 
REMARK    6  A    between atoms: C_9  and  C_10 
REMARK       I    between atoms: C_10  and  N_12 
REMARK    7  A    between atoms: N_12  and  C_13 
REMARK    8  A    between atoms: C_13  and  C_14 
REMARK    9  A    between atoms: C_17  and  C_18 
ROOT
ATOM      1  C   UNL d   1      30.963 -14.459   0.447  0.00  0.00     0.739 A 
ATOM      2  N   UNL d   1      31.979 -13.654   0.704  0.00  0.00    -0.034 NA
ATOM      3  C   UNL d   1      32.358 -13.999   1.975  0.00  0.00     0.226 A 
ATOM      4  N   UNL d   1      31.650 -14.998   2.517  0.00  0.00    -0.132 NA
ATOM      5  N   UNL d   1      30.781 -15.274   1.536  0.00  0.00    -0.103 N 
ATOM      6  H   UNL d   1      30.144 -16.052   1.652  0.00  0.00     0.208 HD
ENDROOT
BRANCH   3   7
ATOM      7  S   UNL d   1      33.639 -13.279   2.905  0.00  0.00    -0.079 SA
BRANCH   7   8
ATOM      8  C   UNL d   1      32.992 -11.681   3.484  0.00  0.00     0.185 C 
BRANCH   8   9
ATOM      9  C   UNL d   1      31.466 -11.779   3.689  0.00  0.00     0.227 C 
ATOM     10  O   UNL d   1      30.672 -10.851   3.461  0.00  0.00    -0.273 OA
ATOM     11  N   UNL d   1      30.984 -12.985   4.156  0.00  0.00    -0.356 N 
ATOM     12  H   UNL d   1      31.610 -13.757   4.354  0.00  0.00     0.162 HD
BRANCH  11  13
ATOM     13  C   UNL d   1      29.556 -13.169   4.377  0.00  0.00     0.161 C 
BRANCH  13  14
ATOM     14  C   UNL d   1      29.226 -13.200   5.849  0.00  0.00    -0.041 A 
ATOM     15  C   UNL d   1      28.350 -12.255   6.399  0.00  0.00     0.009 A 
ATOM     16  C   UNL d   1      28.155 -12.190   7.781  0.00  0.00     0.017 A 
ATOM     17  C   UNL d   1      28.782 -13.108   8.636  0.00  0.00     0.047 A 
ATOM     18  C   UNL d   1      29.630 -14.078   8.081  0.00  0.00     0.017 A 
ATOM     19  C   UNL d   1      29.850 -14.123   6.701  0.00  0.00     0.009 A 
BRANCH  17  20
ATOM     20  C   UNL d   1      28.503 -13.063  10.118  0.00  0.00     0.417 C 
ATOM     21  F   UNL d   1      27.952 -14.217  10.588  0.00  0.00    -0.166 F 
ATOM     22  F   UNL d   1      29.637 -12.868  10.847  0.00  0.00    -0.166 F 
ATOM     23  F   UNL d   1      27.650 -12.066  10.486  0.00  0.00    -0.166 F 
ENDBRANCH  17  20
ENDBRANCH  13  14
ENDBRANCH  11  13
ENDBRANCH   8   9
ENDBRANCH   7   8
ENDBRANCH   3   7
BRANCH   1  24
ATOM     24  N   UNL d   1      30.156 -14.585  -0.647  0.00  0.00    -0.106 N 
ATOM     25  H   UNL d   1      30.452 -14.120  -1.499  0.00  0.00     0.208 HD
BRANCH  24  26
ATOM     26  N   UNL d   1      29.024 -15.361  -0.650  0.00  0.00    -0.164 NA
ATOM     27  C   UNL d   1      27.896 -14.960  -0.117  0.00  0.00     0.061 C 
ATOM     28  C   UNL d   1      27.682 -13.617   0.552  0.00  0.00     0.073 C 
BRANCH  27  29
ATOM     29  C   UNL d   1      26.717 -15.937  -0.134  0.00  0.00    -0.009 C 
ATOM     30  C   UNL d   1      27.049 -17.288  -0.021  0.00  0.00     0.014 C 
ATOM     31  C   UNL d   1      26.062 -18.269  -0.108  0.00  0.00     0.013 C 
ATOM     32  C   UNL d   1      24.711 -17.933  -0.253  0.00  0.00    -0.029 C 
ATOM     33  C   UNL d   1      23.760 -18.951  -0.144  0.00  0.00    -0.005 C 
ATOM     34  C   UNL d   1      24.303 -16.605  -0.475  0.00  0.00    -0.026 C 
ATOM     35  C   UNL d   1      22.417 -18.632  -0.079  0.00  0.00     0.043 C 
ATOM     36  C   UNL d   1      22.060 -17.593  -0.895  0.00  0.00    -0.016 C 
ATOM     37  C   UNL d   1      22.913 -16.477  -0.883  0.00  0.00     0.009 C 
ATOM     38  C   UNL d   1      25.347 -15.595  -0.349  0.00  0.00     0.025 C 
ENDBRANCH  27  29
ENDBRANCH  24  26
ENDBRANCH   1  24
TORSDOF 9
ENDMDL
MODEL 6
REMARK VINA RESULT:    -8.787      6.938     10.702
REMARK INTER + INTRA:         -13.727
REMARK INTER:                 -11.472
REMARK INTRA:                  -2.255
REMARK CONF_INDEPENDENT:        2.685
REMARK UNBOUND:                -2.255
REMARK  9 active torsions:
REMARK  status: ('A' for Active; 'I' for Inactive)
REMARK    1  A    between atoms: C_2  and  C_26 
REMARK    2  A    between atoms: N_3  and  N_4 
REMARK    3  A    between atoms: N_4  and  C_5 
REMARK    4  A    between atoms: C_7  and  S_8 
REMARK    5  A    between atoms: S_8  and  C_9 
REMARK    6  A    between atoms: C_9  and  C_10 
REMARK       I    between atoms: C_10  and  N_12 
REMARK    7  A    between atoms: N_12  and  C_13 
REMARK    8  A    between atoms: C_13  and  C_14 
REMARK    9  A    between atoms: C_17  and  C_18 
ROOT
ATOM      1  C   UNL d   1      28.353 -17.596  -0.146  0.00  0.00     0.739 A 
ATOM      2  N   UNL d   1      27.334 -18.435  -0.092  0.00  0.00    -0.034 NA
ATOM      3  C   UNL d   1      26.300 -17.667   0.374  0.00  0.00     0.226 A 
ATOM      4  N   UNL d   1      26.610 -16.382   0.587  0.00  0.00    -0.132 NA
ATOM      5  N   UNL d   1      27.905 -16.360   0.249  0.00  0.00    -0.103 N 
ATOM      6  H   UNL d   1      28.398 -15.475   0.256  0.00  0.00     0.208 HD
ENDROOT
BRANCH   3   7
ATOM      7  S   UNL d   1      24.675 -18.201   0.691  0.00  0.00    -0.079 SA
BRANCH   7   8
ATOM      8  C   UNL d   1      23.810 -18.128  -0.908  0.00  0.00     0.185 C 
BRANCH   8   9
ATOM      9  C   UNL d   1      23.669 -16.659  -1.359  0.00  0.00     0.227 C 
ATOM     10  O   UNL d   1      22.685 -15.945  -1.104  0.00  0.00    -0.273 OA
ATOM     11  N   UNL d   1      24.716 -16.136  -2.090  0.00  0.00    -0.356 N 
ATOM     12  H   UNL d   1      25.528 -16.698  -2.315  0.00  0.00     0.162 HD
BRANCH  11  13
ATOM     13  C   UNL d   1      24.669 -14.756  -2.556  0.00  0.00     0.161 C 
BRANCH  13  14
ATOM     14  C   UNL d   1      25.766 -14.474  -3.551  0.00  0.00    -0.041 A 
ATOM     15  C   UNL d   1      26.271 -13.175  -3.701  0.00  0.00     0.009 A 
ATOM     16  C   UNL d   1      27.182 -12.881  -4.718  0.00  0.00     0.017 A 
ATOM     17  C   UNL d   1      27.655 -13.891  -5.567  0.00  0.00     0.047 A 
ATOM     18  C   UNL d   1      27.179 -15.199  -5.393  0.00  0.00     0.017 A 
ATOM     19  C   UNL d   1      26.242 -15.487  -4.395  0.00  0.00     0.009 A 
BRANCH  17  20
ATOM     20  C   UNL d   1      28.691 -13.565  -6.615  0.00  0.00     0.417 C 
ATOM     21  F   UNL d   1      28.411 -12.419  -7.297  0.00  0.00    -0.166 F 
ATOM     22  F   UNL d   1      29.927 -13.382  -6.072  0.00  0.00    -0.166 F 
ATOM     23  F   UNL d   1      28.841 -14.535  -7.560  0.00  0.00    -0.166 F 
ENDBRANCH  17  20
ENDBRANCH  13  14
ENDBRANCH  11  13
ENDBRANCH   8   9
ENDBRANCH   7   8
ENDBRANCH   3   7
BRANCH   1  24
ATOM     24  N   UNL d   1      29.656 -17.768  -0.514  0.00  0.00    -0.106 N 
ATOM     25  H   UNL d   1      30.346 -17.821   0.228  0.00  0.00     0.208 HD
BRANCH  24  26
ATOM     26  N   UNL d   1      30.043 -17.940  -1.819  0.00  0.00    -0.164 NA
ATOM     27  C   UNL d   1      29.884 -17.009  -2.728  0.00  0.00     0.061 C 
ATOM     28  C   UNL d   1      29.276 -15.645  -2.474  0.00  0.00     0.073 C 
BRANCH  27  29
ATOM     29  C   UNL d   1      30.306 -17.340  -4.163  0.00  0.00    -0.009 C 
ATOM     30  C   UNL d   1      30.517 -16.244  -5.000  0.00  0.00     0.014 C 
ATOM     31  C   UNL d   1      30.824 -16.431  -6.347  0.00  0.00     0.013 C 
ATOM     32  C   UNL d   1      30.987 -17.711  -6.887  0.00  0.00    -0.029 C 
ATOM     33  C   UNL d   1      31.477 -17.823  -8.190  0.00  0.00    -0.005 C 
ATOM     34  C   UNL d   1      30.694 -18.867  -6.140  0.00  0.00    -0.026 C 
ATOM     35  C   UNL d   1      31.840 -19.062  -8.683  0.00  0.00     0.043 C 
ATOM     36  C   UNL d   1      31.007 -20.075  -8.290  0.00  0.00    -0.016 C 
ATOM     37  C   UNL d   1      30.644 -20.084  -6.934  0.00  0.00     0.009 C 
ATOM     38  C   UNL d   1      30.405 -18.649  -4.727  0.00  0.00     0.025 C 
ENDBRANCH  27  29
ENDBRANCH  24  26
ENDBRANCH   1  24
TORSDOF 9
ENDMDL
MODEL 7
REMARK VINA RESULT:    -8.599      6.730      9.579
REMARK INTER + INTRA:         -13.693
REMARK INTER:                 -11.284
REMARK INTRA:                  -2.409
REMARK CONF_INDEPENDENT:        2.685
REMARK UNBOUND:                -2.409
REMARK  9 active torsions:
REMARK  status: ('A' for Active; 'I' for Inactive)
REMARK    1  A    between atoms: C_2  and  C_26 
REMARK    2  A    between atoms: N_3  and  N_4 
REMARK    3  A    between atoms: N_4  and  C_5 
REMARK    4  A    between atoms: C_7  and  S_8 
REMARK    5  A    between atoms: S_8  and  C_9 
REMARK    6  A    between atoms: C_9  and  C_10 
REMARK       I    between atoms: C_10  and  N_12 
REMARK    7  A    between atoms: N_12  and  C_13 
REMARK    8  A    between atoms: C_13  and  C_14 
REMARK    9  A    between atoms: C_17  and  C_18 
ROOT
ATOM      1  C   UNL d   1      25.219 -15.772  -2.903  0.00  0.00     0.739 A 
ATOM      2  N   UNL d   1      26.163 -15.232  -3.654  0.00  0.00    -0.034 NA
ATOM      3  C   UNL d   1      25.660 -13.999  -3.977  0.00  0.00     0.226 A 
ATOM      4  N   UNL d   1      24.462 -13.727  -3.444  0.00  0.00    -0.132 NA
ATOM      5  N   UNL d   1      24.207 -14.855  -2.769  0.00  0.00    -0.103 N 
ATOM      6  H   UNL d   1      23.368 -14.907  -2.204  0.00  0.00     0.208 HD
ENDROOT
BRANCH   3   7
ATOM      7  S   UNL d   1      26.424 -12.799  -4.979  0.00  0.00    -0.079 SA
BRANCH   7   8
ATOM      8  C   UNL d   1      26.484 -11.284  -3.975  0.00  0.00     0.185 C 
BRANCH   8   9
ATOM      9  C   UNL d   1      27.218 -11.565  -2.647  0.00  0.00     0.227 C 
ATOM     10  O   UNL d   1      28.268 -11.001  -2.300  0.00  0.00    -0.273 OA
ATOM     11  N   UNL d   1      26.648 -12.509  -1.817  0.00  0.00    -0.356 N 
ATOM     12  H   UNL d   1      25.794 -12.987  -2.078  0.00  0.00     0.162 HD
BRANCH  11  13
ATOM     13  C   UNL d   1      27.272 -12.838  -0.542  0.00  0.00     0.161 C 
BRANCH  13  14
ATOM     14  C   UNL d   1      28.080 -14.107  -0.636  0.00  0.00    -0.041 A 
ATOM     15  C   UNL d   1      29.463 -14.053  -0.855  0.00  0.00     0.009 A 
ATOM     16  C   UNL d   1      30.191 -15.223  -1.086  0.00  0.00     0.017 A 
ATOM     17  C   UNL d   1      29.563 -16.476  -1.040  0.00  0.00     0.047 A 
ATOM     18  C   UNL d   1      28.185 -16.533  -0.783  0.00  0.00     0.017 A 
ATOM     19  C   UNL d   1      27.451 -15.359  -0.584  0.00  0.00     0.009 A 
BRANCH  17  20
ATOM     20  C   UNL d   1      30.381 -17.730  -1.224  0.00  0.00     0.417 C 
ATOM     21  F   UNL d   1      29.888 -18.791  -0.525  0.00  0.00    -0.166 F 
ATOM     22  F   UNL d   1      30.421 -18.129  -2.526  0.00  0.00    -0.166 F 
ATOM     23  F   UNL d   1      31.681 -17.600  -0.836  0.00  0.00    -0.166 F 
ENDBRANCH  17  20
ENDBRANCH  13  14
ENDBRANCH  11  13
ENDBRANCH   8   9
ENDBRANCH   7   8
ENDBRANCH   3   7
BRANCH   1  24
ATOM     24  N   UNL d   1      25.126 -16.990  -2.294  0.00  0.00    -0.106 N 
ATOM     25  H   UNL d   1      25.995 -17.460  -2.058  0.00  0.00     0.208 HD
BRANCH  24  26
ATOM     26  N   UNL d   1      23.927 -17.551  -1.934  0.00  0.00    -0.164 NA
ATOM     27  C   UNL d   1      23.709 -18.034  -0.735  0.00  0.00     0.061 C 
ATOM     28  C   UNL d   1      24.716 -18.034   0.396  0.00  0.00     0.073 C 
BRANCH  27  29
ATOM     29  C   UNL d   1      22.348 -18.685  -0.470  0.00  0.00    -0.009 C 
ATOM     30  C   UNL d   1      21.574 -18.950  -1.601  0.00  0.00     0.014 C 
ATOM     31  C   UNL d   1      20.285 -19.466  -1.471  0.00  0.00     0.013 C 
ATOM     32  C   UNL d   1      19.750 -19.786  -0.218  0.00  0.00    -0.029 C 
ATOM     33  C   UNL d   1      18.534 -20.471  -0.172  0.00  0.00    -0.005 C 
ATOM     34  C   UNL d   1      20.422 -19.457   0.974  0.00  0.00    -0.026 C 
ATOM     35  C   UNL d   1      18.076 -20.978   1.030  0.00  0.00     0.043 C 
ATOM     36  C   UNL d   1      18.320 -20.159   2.100  0.00  0.00    -0.016 C 
ATOM     37  C   UNL d   1      19.606 -19.600   2.169  0.00  0.00     0.009 C 
ATOM     38  C   UNL d   1      21.780 -18.947   0.814  0.00  0.00     0.025 C 
ENDBRANCH  27  29
ENDBRANCH  24  26
ENDBRANCH   1  24
TORSDOF 9
ENDMDL
MODEL 8
REMARK VINA RESULT:    -8.168      4.532      5.602
REMARK INTER + INTRA:         -13.702
REMARK INTER:                 -10.852
REMARK INTRA:                  -2.850
REMARK CONF_INDEPENDENT:        2.685
REMARK UNBOUND:                -2.850
REMARK  9 active torsions:
REMARK  status: ('A' for Active; 'I' for Inactive)
REMARK    1  A    between atoms: C_2  and  C_26 
REMARK    2  A    between atoms: N_3  and  N_4 
REMARK    3  A    between atoms: N_4  and  C_5 
REMARK    4  A    between atoms: C_7  and  S_8 
REMARK    5  A    between atoms: S_8  and  C_9 
REMARK    6  A    between atoms: C_9  and  C_10 
REMARK       I    between atoms: C_10  and  N_12 
REMARK    7  A    between atoms: N_12  and  C_13 
REMARK    8  A    between atoms: C_13  and  C_14 
REMARK    9  A    between atoms: C_17  and  C_18 
ROOT
ATOM      1  C   UNL d   1      30.205 -16.609  -0.630  0.00  0.00     0.739 A 
ATOM      2  N   UNL d   1      29.953 -16.300  -1.890  0.00  0.00    -0.034 NA
ATOM      3  C   UNL d   1      30.207 -17.461  -2.570  0.00  0.00     0.226 A 
ATOM      4  N   UNL d   1      30.578 -18.491  -1.799  0.00  0.00    -0.132 NA
ATOM      5  N   UNL d   1      30.565 -17.932  -0.582  0.00  0.00    -0.103 N 
ATOM      6  H   UNL d   1      30.752 -18.514   0.225  0.00  0.00     0.208 HD
ENDROOT
BRANCH   3   7
ATOM      7  S   UNL d   1      30.085 -17.703  -4.289  0.00  0.00    -0.079 SA
BRANCH   7   8
ATOM      8  C   UNL d   1      29.948 -16.039  -5.013  0.00  0.00     0.185 C 
BRANCH   8   9
ATOM      9  C   UNL d   1      28.557 -15.448  -4.702  0.00  0.00     0.227 C 
ATOM     10  O   UNL d   1      27.566 -15.576  -5.440  0.00  0.00    -0.273 OA
ATOM     11  N   UNL d   1      28.440 -14.737  -3.525  0.00  0.00    -0.356 N 
ATOM     12  H   UNL d   1      29.233 -14.614  -2.907  0.00  0.00     0.162 HD
BRANCH  11  13
ATOM     13  C   UNL d   1      27.162 -14.144  -3.150  0.00  0.00     0.161 C 
BRANCH  13  14
ATOM     14  C   UNL d   1      26.322 -15.108  -2.350  0.00  0.00    -0.041 A 
ATOM     15  C   UNL d   1      26.921 -16.184  -1.681  0.00  0.00     0.009 A 
ATOM     16  C   UNL d   1      26.135 -17.159  -1.061  0.00  0.00     0.017 A 
ATOM     17  C   UNL d   1      24.738 -17.045  -1.042  0.00  0.00     0.047 A 
ATOM     18  C   UNL d   1      24.140 -15.947  -1.680  0.00  0.00     0.017 A 
ATOM     19  C   UNL d   1      24.925 -14.989  -2.328  0.00  0.00     0.009 A 
BRANCH  17  20
ATOM     20  C   UNL d   1      23.913 -18.072  -0.307  0.00  0.00     0.417 C 
ATOM     21  F   UNL d   1      24.545 -18.572   0.791  0.00  0.00    -0.166 F 
ATOM     22  F   UNL d   1      22.736 -17.556   0.144  0.00  0.00    -0.166 F 
ATOM     23  F   UNL d   1      23.576 -19.152  -1.067  0.00  0.00    -0.166 F 
ENDBRANCH  17  20
ENDBRANCH  13  14
ENDBRANCH  11  13
ENDBRANCH   8   9
ENDBRANCH   7   8
ENDBRANCH   3   7
BRANCH   1  24
ATOM     24  N   UNL d   1      30.151 -15.870   0.517  0.00  0.00    -0.106 N 
ATOM     25  H   UNL d   1      30.556 -16.279   1.353  0.00  0.00     0.208 HD
BRANCH  24  26
ATOM     26  N   UNL d   1      29.644 -14.596   0.557  0.00  0.00    -0.164 NA
ATOM     27  C   UNL d   1      28.413 -14.341   0.929  0.00  0.00     0.061 C 
ATOM     28  C   UNL d   1      27.405 -15.385   1.366  0.00  0.00     0.073 C 
BRANCH  27  29
ATOM     29  C   UNL d   1      27.946 -12.883   0.881  0.00  0.00    -0.009 C 
ATOM     30  C   UNL d   1      28.470 -12.114  -0.159  0.00  0.00     0.014 C 
ATOM     31  C   UNL d   1      28.177 -10.754  -0.251  0.00  0.00     0.013 C 
ATOM     32  C   UNL d   1      27.309 -10.133   0.654  0.00  0.00    -0.029 C 
ATOM     33  C   UNL d   1      26.912  -8.819   0.395  0.00  0.00    -0.005 C 
ATOM     34  C   UNL d   1      26.820 -10.809   1.787  0.00  0.00    -0.026 C 
ATOM     35  C   UNL d   1      25.907  -8.244   1.150  0.00  0.00     0.043 C 
ATOM     36  C   UNL d   1      25.953  -8.583   2.475  0.00  0.00    -0.016 C 
ATOM     37  C   UNL d   1      26.173  -9.941   2.757  0.00  0.00     0.009 C 
ATOM     38  C   UNL d   1      27.114 -12.237   1.845  0.00  0.00     0.025 C 
ENDBRANCH  27  29
ENDBRANCH  24  26
ENDBRANCH   1  24
TORSDOF 9
ENDMDL
MODEL 9
REMARK VINA RESULT:    -7.874      6.460      9.642
REMARK INTER + INTRA:         -13.618
REMARK INTER:                 -10.559
REMARK INTRA:                  -3.059
REMARK CONF_INDEPENDENT:        2.685
REMARK UNBOUND:                -3.059
REMARK  9 active torsions:
REMARK  status: ('A' for Active; 'I' for Inactive)
REMARK    1  A    between atoms: C_2  and  C_26 
REMARK    2  A    between atoms: N_3  and  N_4 
REMARK    3  A    between atoms: N_4  and  C_5 
REMARK    4  A    between atoms: C_7  and  S_8 
REMARK    5  A    between atoms: S_8  and  C_9 
REMARK    6  A    between atoms: C_9  and  C_10 
REMARK       I    between atoms: C_10  and  N_12 
REMARK    7  A    between atoms: N_12  and  C_13 
REMARK    8  A    between atoms: C_13  and  C_14 
REMARK    9  A    between atoms: C_17  and  C_18 
ROOT
ATOM      1  C   UNL d   1      25.843 -10.095  -3.524  0.00  0.00     0.739 A 
ATOM      2  N   UNL d   1      25.246  -8.924  -3.388  0.00  0.00    -0.034 NA
ATOM      3  C   UNL d   1      26.213  -8.125  -2.837  0.00  0.00     0.226 A 
ATOM      4  N   UNL d   1      27.394  -8.727  -2.647  0.00  0.00    -0.132 NA
ATOM      5  N   UNL d   1      27.139  -9.964  -3.091  0.00  0.00    -0.103 N 
ATOM      6  H   UNL d   1      27.893 -10.638  -3.122  0.00  0.00     0.208 HD
ENDROOT
BRANCH   3   7
ATOM      7  S   UNL d   1      26.043  -6.453  -2.388  0.00  0.00    -0.079 SA
BRANCH   7   8
ATOM      8  C   UNL d   1      24.975  -6.444  -0.915  0.00  0.00     0.185 C 
BRANCH   8   9
ATOM      9  C   UNL d   1      25.680  -7.177   0.246  0.00  0.00     0.227 C 
ATOM     10  O   UNL d   1      25.158  -7.391   1.352  0.00  0.00    -0.273 OA
ATOM     11  N   UNL d   1      26.970  -7.607   0.008  0.00  0.00    -0.356 N 
ATOM     12  H   UNL d   1      27.421  -7.442  -0.883  0.00  0.00     0.162 HD
BRANCH  11  13
ATOM     13  C   UNL d   1      27.712  -8.309   1.048  0.00  0.00     0.161 C 
BRANCH  13  14
ATOM     14  C   UNL d   1      27.495  -9.800   0.966  0.00  0.00    -0.041 A 
ATOM     15  C   UNL d   1      26.951 -10.497   2.053  0.00  0.00     0.009 A 
ATOM     16  C   UNL d   1      26.883 -11.893   2.037  0.00  0.00     0.017 A 
ATOM     17  C   UNL d   1      27.299 -12.616   0.910  0.00  0.00     0.047 A 
ATOM     18  C   UNL d   1      27.809 -11.915  -0.193  0.00  0.00     0.017 A 
ATOM     19  C   UNL d   1      27.907 -10.520  -0.164  0.00  0.00     0.009 A 
BRANCH  17  20
ATOM     20  C   UNL d   1      27.152 -14.117   0.888  0.00  0.00     0.417 C 
ATOM     21  F   UNL d   1      25.908 -14.522   0.504  0.00  0.00    -0.166 F 
ATOM     22  F   UNL d   1      28.019 -14.704   0.016  0.00  0.00    -0.166 F 
ATOM     23  F   UNL d   1      27.381 -14.710   2.094  0.00  0.00    -0.166 F 
ENDBRANCH  17  20
ENDBRANCH  13  14
ENDBRANCH  11  13
ENDBRANCH   8   9
ENDBRANCH   7   8
ENDBRANCH   3   7
BRANCH   1  24
ATOM     24  N   UNL d   1      25.397 -11.295  -3.999  0.00  0.00    -0.106 N 
ATOM     25  H   UNL d   1      25.155 -11.344  -4.983  0.00  0.00     0.208 HD
BRANCH  24  26
ATOM     26  N   UNL d   1      25.334 -12.424  -3.223  0.00  0.00    -0.164 NA
ATOM     27  C   UNL d   1      25.747 -13.593  -3.649  0.00  0.00     0.061 C 
ATOM     28  C   UNL d   1      26.344 -13.856  -5.017  0.00  0.00     0.073 C 
BRANCH  27  29
ATOM     29  C   UNL d   1      25.576 -14.791  -2.710  0.00  0.00    -0.009 C 
ATOM     30  C   UNL d   1      26.729 -15.536  -2.462  0.00  0.00     0.014 C 
ATOM     31  C   UNL d   1      26.671 -16.694  -1.688  0.00  0.00     0.013 C 
ATOM     32  C   UNL d   1      25.477 -17.113  -1.091  0.00  0.00    -0.029 C 
ATOM     33  C   UNL d   1      25.528 -18.170  -0.179  0.00  0.00    -0.005 C 
ATOM     34  C   UNL d   1      24.253 -16.479  -1.371  0.00  0.00    -0.026 C 
ATOM     35  C   UNL d   1      24.413 -18.478   0.578  0.00  0.00     0.043 C 
ATOM     36  C   UNL d   1      23.234 -18.364  -0.110  0.00  0.00    -0.016 C 
ATOM     37  C   UNL d   1      23.089 -17.211  -0.898  0.00  0.00     0.009 C 
ATOM     38  C   UNL d   1      24.342 -15.253  -2.158  0.00  0.00     0.025 C 
ENDBRANCH  27  29
ENDBRANCH  24  26
ENDBRANCH   1  24
TORSDOF 9
ENDMDL
