MODEL 1
REMARK VINA RESULT:    -7.123      0.000      0.000
REMARK INTER + INTRA:         -10.663
REMARK INTER:                  -8.615
REMARK INTRA:                  -2.049
REMARK CONF_INDEPENDENT:        1.492
REMARK UNBOUND:                -2.049
REMARK  5 active torsions:
REMARK  status: ('A' for Active; 'I' for Inactive)
REMARK    1  A    between atoms: O_2  and  C_3 
REMARK    2  A    between atoms: C_9  and  C_10 
REMARK    3  A    between atoms: C_10  and  N_11 
REMARK    4  A    between atoms: C_12  and  C_13 
REMARK    5  A    between atoms: C_17  and  S_18 
ROOT
ATOM      1  C   UNL d   1      25.434 -16.361  -1.884  0.00  0.00     0.113 A 
ATOM      2  C   UNL d   1      24.472 -17.004  -1.128  0.00  0.00     0.139 A 
ATOM      3  C   UNL d   1      24.805 -17.858  -0.108  0.00  0.00     0.108 A 
ATOM      4  C   UNL d   1      26.111 -18.116   0.223  0.00  0.00     0.047 A 
ATOM      5  C   UNL d   1      27.121 -17.492  -0.526  0.00  0.00    -0.043 A 
ATOM      6  C   UNL d   1      26.801 -16.584  -1.576  0.00  0.00     0.017 A 
ATOM      7  C   UNL d   1      27.916 -15.907  -2.375  0.00  0.00     0.243 C 
ATOM      8  N   UNL d   1      29.319 -16.043  -1.684  0.00  0.00    -0.065 N 
ATOM      9  C   UNL d   1      30.489 -15.642  -2.548  0.00  0.00     0.270 C 
ATOM     10  C   UNL d   1      29.549 -17.446  -1.207  0.00  0.00     0.240 C 
ATOM     11  C   UNL d   1      28.538 -17.816  -0.145  0.00  0.00     0.067 C 
ATOM     12  O   UNL d   1      23.716 -18.440   0.460  0.00  0.00    -0.323 OA
ATOM     13  C   UNL d   1      22.699 -18.042  -0.479  0.00  0.00     0.352 C 
ATOM     14  O   UNL d   1      23.124 -16.954  -1.311  0.00  0.00    -0.320 OA
ATOM     15  H   UNL d   1      29.300 -15.406  -0.878  0.00  0.00     0.280 HD
ENDROOT
BRANCH   7  16
ATOM     16  C   UNL d   1      27.621 -14.390  -2.580  0.00  0.00     0.186 C 
BRANCH  16  17
ATOM     17  N   UNL d   1      28.134 -13.632  -1.452  0.00  0.00    -0.302 NA
ATOM     18  C   UNL d   1      27.633 -13.923  -0.309  0.00  0.00     0.107 C 
BRANCH  18  19
ATOM     19  C   UNL d   1      28.078 -13.151   0.897  0.00  0.00     0.212 A 
ATOM     20  C   UNL d   1      27.028 -13.172   1.954  0.00  0.00     0.263 A 
ATOM     21  O   UNL d   1      25.905 -12.727   1.696  0.00  0.00    -0.270 OA
ATOM     22  N   UNL d   1      27.312 -13.695   3.179  0.00  0.00    -0.188 NA
ATOM     23  C   UNL d   1      28.494 -14.124   3.455  0.00  0.00     0.171 A 
ATOM     24  N   UNL d   1      29.559 -14.114   2.582  0.00  0.00    -0.300 N 
ATOM     25  C   UNL d   1      30.895 -14.617   2.883  0.00  0.00     0.161 C 
ATOM     26  C   UNL d   1      29.420 -13.624   1.303  0.00  0.00     0.243 A 
ATOM     27  O   UNL d   1      30.334 -13.618   0.475  0.00  0.00    -0.272 OA
BRANCH  23  28
ATOM     28  S   UNL d   1      28.739 -14.769   5.062  0.00  0.00    -0.105 SA
ATOM     29  H   UNL d   1      29.279 -15.950   4.729  0.00  0.00     0.110 HD
ENDBRANCH  23  28
ENDBRANCH  18  19
ENDBRANCH  16  17
ENDBRANCH   7  16
BRANCH   1  30
ATOM     30  O   UNL d   1      25.105 -15.648  -3.005  0.00  0.00    -0.352 OA
ATOM     31  C   UNL d   1      24.355 -14.450  -2.770  0.00  0.00     0.210 C 
ENDBRANCH   1  30
TORSDOF 5
ENDMDL
MODEL 2
REMARK VINA RESULT:    -6.940      1.872      2.414
REMARK INTER + INTRA:          -9.957
REMARK INTER:                  -8.431
REMARK INTRA:                  -1.526
REMARK CONF_INDEPENDENT:        1.492
REMARK UNBOUND:                -1.526
REMARK  5 active torsions:
REMARK  status: ('A' for Active; 'I' for Inactive)
REMARK    1  A    between atoms: O_2  and  C_3 
REMARK    2  A    between atoms: C_9  and  C_10 
REMARK    3  A    between atoms: C_10  and  N_11 
REMARK    4  A    between atoms: C_12  and  C_13 
REMARK    5  A    between atoms: C_17  and  S_18 
ROOT
ATOM      1  C   UNL d   1      24.784 -16.051  -0.997  0.00  0.00     0.113 A 
ATOM      2  C   UNL d   1      23.661 -16.818  -0.749  0.00  0.00     0.139 A 
ATOM      3  C   UNL d   1      23.743 -18.045  -0.141  0.00  0.00     0.108 A 
ATOM      4  C   UNL d   1      24.942 -18.574   0.261  0.00  0.00     0.047 A 
ATOM      5  C   UNL d   1      26.110 -17.833   0.019  0.00  0.00    -0.043 A 
ATOM      6  C   UNL d   1      26.049 -16.547  -0.590  0.00  0.00     0.017 A 
ATOM      7  C   UNL d   1      27.331 -15.751  -0.837  0.00  0.00     0.243 C 
ATOM      8  N   UNL d   1      28.558 -16.327  -0.047  0.00  0.00    -0.065 N 
ATOM      9  C   UNL d   1      29.896 -15.762  -0.458  0.00  0.00     0.270 C 
ATOM     10  C   UNL d   1      28.624 -17.821  -0.171  0.00  0.00     0.240 C 
ATOM     11  C   UNL d   1      27.405 -18.458   0.457  0.00  0.00     0.067 C 
ATOM     12  O   UNL d   1      22.537 -18.666  -0.056  0.00  0.00    -0.323 OA
ATOM     13  C   UNL d   1      21.748 -17.800  -0.895  0.00  0.00     0.352 C 
ATOM     14  O   UNL d   1      22.381 -16.531  -1.113  0.00  0.00    -0.320 OA
ATOM     15  H   UNL d   1      28.407 -16.072   0.936  0.00  0.00     0.280 HD
ENDROOT
BRANCH   7  16
ATOM     16  C   UNL d   1      27.153 -14.256  -0.434  0.00  0.00     0.186 C 
BRANCH  16  17
ATOM     17  N   UNL d   1      27.495 -14.080   0.967  0.00  0.00    -0.302 NA
ATOM     18  C   UNL d   1      26.749 -13.277   1.629  0.00  0.00     0.107 C 
BRANCH  18  19
ATOM     19  C   UNL d   1      27.068 -13.008   3.068  0.00  0.00     0.212 A 
ATOM     20  C   UNL d   1      28.057 -13.996   3.584  0.00  0.00     0.263 A 
ATOM     21  O   UNL d   1      27.780 -15.200   3.546  0.00  0.00    -0.270 OA
ATOM     22  N   UNL d   1      29.253 -13.566   4.071  0.00  0.00    -0.188 NA
ATOM     23  C   UNL d   1      29.521 -12.309   4.143  0.00  0.00     0.171 A 
ATOM     24  N   UNL d   1      28.674 -11.299   3.745  0.00  0.00    -0.300 N 
ATOM     25  C   UNL d   1      28.982  -9.873   3.806  0.00  0.00     0.161 C 
ATOM     26  C   UNL d   1      27.433 -11.583   3.222  0.00  0.00     0.243 A 
ATOM     27  O   UNL d   1      26.649 -10.716   2.826  0.00  0.00    -0.272 OA
BRANCH  23  28
ATOM     28  S   UNL d   1      31.088 -11.877   4.790  0.00  0.00    -0.105 SA
ATOM     29  H   UNL d   1      31.534 -13.106   5.085  0.00  0.00     0.110 HD
ENDBRANCH  23  28
ENDBRANCH  18  19
ENDBRANCH  16  17
ENDBRANCH   7  16
BRANCH   1  30
ATOM     30  O   UNL d   1      24.719 -14.913  -1.754  0.00  0.00    -0.352 OA
ATOM     31  C   UNL d   1      25.176 -15.050  -3.105  0.00  0.00     0.210 C 
ENDBRANCH   1  30
TORSDOF 5
ENDMDL
MODEL 3
REMARK VINA RESULT:    -6.880      2.579      4.171
REMARK INTER + INTRA:         -10.007
REMARK INTER:                  -8.372
REMARK INTRA:                  -1.635
REMARK CONF_INDEPENDENT:        1.492
REMARK UNBOUND:                -1.635
REMARK  5 active torsions:
REMARK  status: ('A' for Active; 'I' for Inactive)
REMARK    1  A    between atoms: O_2  and  C_3 
REMARK    2  A    between atoms: C_9  and  C_10 
REMARK    3  A    between atoms: C_10  and  N_11 
REMARK    4  A    between atoms: C_12  and  C_13 
REMARK    5  A    between atoms: C_17  and  S_18 
ROOT
ATOM      1  C   UNL d   1      27.311 -13.305  -1.463  0.00  0.00     0.113 A 
ATOM      2  C   UNL d   1      26.280 -13.651  -2.318  0.00  0.00     0.139 A 
ATOM      3  C   UNL d   1      25.938 -14.959  -2.547  0.00  0.00     0.108 A 
ATOM      4  C   UNL d   1      26.594 -15.996  -1.935  0.00  0.00     0.047 A 
ATOM      5  C   UNL d   1      27.655 -15.692  -1.067  0.00  0.00    -0.043 A 
ATOM      6  C   UNL d   1      28.015 -14.341  -0.796  0.00  0.00     0.017 A 
ATOM      7  C   UNL d   1      29.168 -14.029   0.160  0.00  0.00     0.243 C 
ATOM      8  N   UNL d   1      29.596 -15.274   1.013  0.00  0.00    -0.065 N 
ATOM      9  C   UNL d   1      30.893 -15.108   1.766  0.00  0.00     0.270 C 
ATOM     10  C   UNL d   1      29.707 -16.500   0.155  0.00  0.00     0.240 C 
ATOM     11  C   UNL d   1      28.361 -16.857  -0.434  0.00  0.00     0.067 C 
ATOM     12  O   UNL d   1      24.950 -15.084  -3.472  0.00  0.00    -0.323 OA
ATOM     13  C   UNL d   1      24.893 -13.732  -3.965  0.00  0.00     0.352 C 
ATOM     14  O   UNL d   1      25.534 -12.803  -3.079  0.00  0.00    -0.320 OA
ATOM     15  H   UNL d   1      28.853 -15.410   1.709  0.00  0.00     0.280 HD
ENDROOT
BRANCH   7  16
ATOM     16  C   UNL d   1      28.791 -12.876   1.139  0.00  0.00     0.186 C 
BRANCH  16  17
ATOM     17  N   UNL d   1      28.176 -13.428   2.334  0.00  0.00    -0.302 NA
ATOM     18  C   UNL d   1      28.299 -12.728   3.401  0.00  0.00     0.107 C 
BRANCH  18  19
ATOM     19  C   UNL d   1      27.731 -13.254   4.684  0.00  0.00     0.212 A 
ATOM     20  C   UNL d   1      28.300 -14.594   5.004  0.00  0.00     0.263 A 
ATOM     21  O   UNL d   1      28.154 -15.518   4.196  0.00  0.00    -0.270 OA
ATOM     22  N   UNL d   1      28.987 -14.778   6.165  0.00  0.00    -0.188 NA
ATOM     23  C   UNL d   1      29.104 -13.823   7.020  0.00  0.00     0.171 A 
ATOM     24  N   UNL d   1      28.584 -12.558   6.863  0.00  0.00    -0.300 N 
ATOM     25  C   UNL d   1      28.732 -11.466   7.820  0.00  0.00     0.161 C 
ATOM     26  C   UNL d   1      27.874 -12.221   5.733  0.00  0.00     0.243 A 
ATOM     27  O   UNL d   1      27.412 -11.094   5.533  0.00  0.00    -0.272 OA
BRANCH  23  28
ATOM     28  S   UNL d   1      30.004 -14.181   8.477  0.00  0.00    -0.105 SA
ATOM     29  H   UNL d   1      29.350 -15.288   8.855  0.00  0.00     0.110 HD
ENDBRANCH  23  28
ENDBRANCH  18  19
ENDBRANCH  16  17
ENDBRANCH   7  16
BRANCH   1  30
ATOM     30  O   UNL d   1      27.761 -12.017  -1.370  0.00  0.00    -0.352 OA
ATOM     31  C   UNL d   1      28.462 -11.528  -2.520  0.00  0.00     0.210 C 
ENDBRANCH   1  30
TORSDOF 5
ENDMDL
MODEL 4
REMARK VINA RESULT:    -6.830      3.960      6.277
REMARK INTER + INTRA:         -10.013
REMARK INTER:                  -8.321
REMARK INTRA:                  -1.691
REMARK CONF_INDEPENDENT:        1.492
REMARK UNBOUND:                -1.691
REMARK  5 active torsions:
REMARK  status: ('A' for Active; 'I' for Inactive)
REMARK    1  A    between atoms: O_2  and  C_3 
REMARK    2  A    between atoms: C_9  and  C_10 
REMARK    3  A    between atoms: C_10  and  N_11 
REMARK    4  A    between atoms: C_12  and  C_13 
REMARK    5  A    between atoms: C_17  and  S_18 
ROOT
ATOM      1  C   UNL d   1      26.171 -17.341  -0.812  0.00  0.00     0.113 A 
ATOM      2  C   UNL d   1      24.858 -17.771  -0.746  0.00  0.00     0.139 A 
ATOM      3  C   UNL d   1      23.821 -17.004  -1.212  0.00  0.00     0.108 A 
ATOM      4  C   UNL d   1      24.030 -15.772  -1.776  0.00  0.00     0.047 A 
ATOM      5  C   UNL d   1      25.347 -15.291  -1.853  0.00  0.00    -0.043 A 
ATOM      6  C   UNL d   1      26.442 -16.078  -1.396  0.00  0.00     0.017 A 
ATOM      7  C   UNL d   1      27.871 -15.540  -1.497  0.00  0.00     0.243 C 
ATOM      8  N   UNL d   1      27.978 -14.289  -2.439  0.00  0.00    -0.065 N 
ATOM      9  C   UNL d   1      29.293 -13.553  -2.364  0.00  0.00     0.270 C 
ATOM     10  C   UNL d   1      26.877 -13.310  -2.158  0.00  0.00     0.240 C 
ATOM     11  C   UNL d   1      25.530 -13.928  -2.459  0.00  0.00     0.067 C 
ATOM     12  O   UNL d   1      22.609 -17.576  -0.988  0.00  0.00    -0.323 OA
ATOM     13  C   UNL d   1      22.997 -18.656  -0.118  0.00  0.00     0.352 C 
ATOM     14  O   UNL d   1      24.406 -18.922  -0.176  0.00  0.00    -0.320 OA
ATOM     15  H   UNL d   1      27.881 -14.647  -3.397  0.00  0.00     0.280 HD
ENDROOT
BRANCH   7  16
ATOM     16  C   UNL d   1      28.848 -16.632  -2.029  0.00  0.00     0.186 C 
BRANCH  16  17
ATOM     17  N   UNL d   1      28.769 -16.700  -3.478  0.00  0.00    -0.302 NA
ATOM     18  C   UNL d   1      29.800 -16.285  -4.115  0.00  0.00     0.107 C 
BRANCH  18  19
ATOM     19  C   UNL d   1      29.775 -16.280  -5.613  0.00  0.00     0.212 A 
ATOM     20  C   UNL d   1      28.881 -15.202  -6.123  0.00  0.00     0.263 A 
ATOM     21  O   UNL d   1      27.691 -15.200  -5.791  0.00  0.00    -0.270 OA
ATOM     22  N   UNL d   1      29.388 -14.227  -6.928  0.00  0.00    -0.188 NA
ATOM     23  C   UNL d   1      30.620 -14.254  -7.300  0.00  0.00     0.171 A 
ATOM     24  N   UNL d   1      31.531 -15.220  -6.937  0.00  0.00    -0.300 N 
ATOM     25  C   UNL d   1      32.933 -15.244  -7.341  0.00  0.00     0.161 C 
ATOM     26  C   UNL d   1      31.166 -16.264  -6.117  0.00  0.00     0.243 A 
ATOM     27  O   UNL d   1      31.951 -17.139  -5.741  0.00  0.00    -0.272 OA
BRANCH  23  28
ATOM     28  S   UNL d   1      31.154 -12.951  -8.337  0.00  0.00    -0.105 SA
ATOM     29  H   UNL d   1      30.779 -13.461  -9.519  0.00  0.00     0.110 HD
ENDBRANCH  23  28
ENDBRANCH  18  19
ENDBRANCH  16  17
ENDBRANCH   7  16
BRANCH   1  30
ATOM     30  O   UNL d   1      27.180 -18.028  -0.194  0.00  0.00    -0.352 OA
ATOM     31  C   UNL d   1      26.854 -18.570   1.093  0.00  0.00     0.210 C 
ENDBRANCH   1  30
TORSDOF 5
ENDMDL
MODEL 5
REMARK VINA RESULT:    -6.399      4.170      6.245
REMARK INTER + INTRA:          -9.821
REMARK INTER:                  -7.891
REMARK INTRA:                  -1.930
REMARK CONF_INDEPENDENT:        1.492
REMARK UNBOUND:                -1.930
REMARK  5 active torsions:
REMARK  status: ('A' for Active; 'I' for Inactive)
REMARK    1  A    between atoms: O_2  and  C_3 
REMARK    2  A    between atoms: C_9  and  C_10 
REMARK    3  A    between atoms: C_10  and  N_11 
REMARK    4  A    between atoms: C_12  and  C_13 
REMARK    5  A    between atoms: C_17  and  S_18 
ROOT
ATOM      1  C   UNL d   1      30.537 -17.355  -5.812  0.00  0.00     0.113 A 
ATOM      2  C   UNL d   1      30.545 -18.547  -6.514  0.00  0.00     0.139 A 
ATOM      3  C   UNL d   1      30.736 -19.753  -5.890  0.00  0.00     0.108 A 
ATOM      4  C   UNL d   1      30.920 -19.844  -4.534  0.00  0.00     0.047 A 
ATOM      5  C   UNL d   1      30.930 -18.658  -3.783  0.00  0.00    -0.043 A 
ATOM      6  C   UNL d   1      30.713 -17.395  -4.405  0.00  0.00     0.017 A 
ATOM      7  C   UNL d   1      30.718 -16.114  -3.569  0.00  0.00     0.243 C 
ATOM      8  N   UNL d   1      30.617 -16.401  -2.029  0.00  0.00    -0.065 N 
ATOM      9  C   UNL d   1      30.893 -15.209  -1.145  0.00  0.00     0.270 C 
ATOM     10  C   UNL d   1      31.547 -17.506  -1.626  0.00  0.00     0.240 C 
ATOM     11  C   UNL d   1      31.156 -18.800  -2.304  0.00  0.00     0.067 C 
ATOM     12  O   UNL d   1      30.781 -20.791  -6.765  0.00  0.00    -0.323 OA
ATOM     13  C   UNL d   1      30.845 -20.068  -8.010  0.00  0.00     0.352 C 
ATOM     14  O   UNL d   1      30.446 -18.698  -7.863  0.00  0.00    -0.320 OA
ATOM     15  H   UNL d   1      29.646 -16.691  -1.858  0.00  0.00     0.280 HD
ENDROOT
BRANCH   7  16
ATOM     16  C   UNL d   1      29.538 -15.177  -3.966  0.00  0.00     0.186 C 
BRANCH  16  17
ATOM     17  N   UNL d   1      28.623 -15.036  -2.846  0.00  0.00    -0.302 NA
ATOM     18  C   UNL d   1      27.524 -15.688  -2.936  0.00  0.00     0.107 C 
BRANCH  18  19
ATOM     19  C   UNL d   1      26.509 -15.555  -1.842  0.00  0.00     0.212 A 
ATOM     20  C   UNL d   1      25.126 -15.638  -2.390  0.00  0.00     0.263 A 
ATOM     21  O   UNL d   1      24.769 -14.822  -3.247  0.00  0.00    -0.270 OA
ATOM     22  N   UNL d   1      24.284 -16.616  -1.958  0.00  0.00    -0.188 NA
ATOM     23  C   UNL d   1      24.648 -17.441  -1.039  0.00  0.00     0.171 A 
ATOM     24  N   UNL d   1      25.878 -17.437  -0.420  0.00  0.00    -0.300 N 
ATOM     25  C   UNL d   1      26.302 -18.382   0.607  0.00  0.00     0.161 C 
ATOM     26  C   UNL d   1      26.838 -16.512  -0.762  0.00  0.00     0.243 A 
ATOM     27  O   UNL d   1      27.964 -16.484  -0.258  0.00  0.00    -0.272 OA
BRANCH  23  28
ATOM     28  S   UNL d   1      23.478 -18.651  -0.563  0.00  0.00    -0.105 SA
ATOM     29  H   UNL d   1      23.760 -18.706   0.746  0.00  0.00     0.110 HD
ENDBRANCH  23  28
ENDBRANCH  18  19
ENDBRANCH  16  17
ENDBRANCH   7  16
BRANCH   1  30
ATOM     30  O   UNL d   1      30.521 -16.147  -6.454  0.00  0.00    -0.352 OA
ATOM     31  C   UNL d   1      31.672 -15.867  -7.261  0.00  0.00     0.210 C 
ENDBRANCH   1  30
TORSDOF 5
ENDMDL
MODEL 6
REMARK VINA RESULT:    -6.288      3.898      6.259
REMARK INTER + INTRA:          -9.603
REMARK INTER:                  -7.780
REMARK INTRA:                  -1.824
REMARK CONF_INDEPENDENT:        1.492
REMARK UNBOUND:                -1.824
REMARK  5 active torsions:
REMARK  status: ('A' for Active; 'I' for Inactive)
REMARK    1  A    between atoms: O_2  and  C_3 
REMARK    2  A    between atoms: C_9  and  C_10 
REMARK    3  A    between atoms: C_10  and  N_11 
REMARK    4  A    between atoms: C_12  and  C_13 
REMARK    5  A    between atoms: C_17  and  S_18 
ROOT
ATOM      1  C   UNL d   1      26.866 -16.206  -0.692  0.00  0.00     0.113 A 
ATOM      2  C   UNL d   1      25.849 -17.131  -0.547  0.00  0.00     0.139 A 
ATOM      3  C   UNL d   1      24.649 -16.995  -1.196  0.00  0.00     0.108 A 
ATOM      4  C   UNL d   1      24.394 -15.937  -2.031  0.00  0.00     0.047 A 
ATOM      5  C   UNL d   1      25.395 -14.967  -2.200  0.00  0.00    -0.043 A 
ATOM      6  C   UNL d   1      26.658 -15.098  -1.554  0.00  0.00     0.017 A 
ATOM      7  C   UNL d   1      27.740 -14.036  -1.757  0.00  0.00     0.243 C 
ATOM      8  N   UNL d   1      27.429 -13.084  -2.965  0.00  0.00    -0.065 N 
ATOM      9  C   UNL d   1      28.306 -11.858  -3.046  0.00  0.00     0.270 C 
ATOM     10  C   UNL d   1      25.998 -12.633  -2.939  0.00  0.00     0.240 C 
ATOM     11  C   UNL d   1      25.069 -13.814  -3.106  0.00  0.00     0.067 C 
ATOM     12  O   UNL d   1      23.763 -17.969  -0.862  0.00  0.00    -0.323 OA
ATOM     13  C   UNL d   1      24.459 -18.575   0.243  0.00  0.00     0.352 C 
ATOM     14  O   UNL d   1      25.849 -18.219   0.271  0.00  0.00    -0.320 OA
ATOM     15  H   UNL d   1      27.598 -13.638  -3.813  0.00  0.00     0.280 HD
ENDROOT
BRANCH   7  16
ATOM     16  C   UNL d   1      29.133 -14.690  -2.001  0.00  0.00     0.186 C 
BRANCH  16  17
ATOM     17  N   UNL d   1      29.374 -14.817  -3.428  0.00  0.00    -0.302 NA
ATOM     18  C   UNL d   1      29.079 -15.951  -3.946  0.00  0.00     0.107 C 
BRANCH  18  19
ATOM     19  C   UNL d   1      29.343 -16.174  -5.404  0.00  0.00     0.212 A 
ATOM     20  C   UNL d   1      28.580 -15.200  -6.235  0.00  0.00     0.263 A 
ATOM     21  O   UNL d   1      27.348 -15.166  -6.143  0.00  0.00    -0.270 OA
ATOM     22  N   UNL d   1      29.246 -14.352  -7.066  0.00  0.00    -0.188 NA
ATOM     23  C   UNL d   1      30.526 -14.417  -7.186  0.00  0.00     0.171 A 
ATOM     24  N   UNL d   1      31.337 -15.303  -6.511  0.00  0.00    -0.300 N 
ATOM     25  C   UNL d   1      32.790 -15.367  -6.629  0.00  0.00     0.161 C 
ATOM     26  C   UNL d   1      30.805 -16.215  -5.628  0.00  0.00     0.243 A 
ATOM     27  O   UNL d   1      31.490 -17.010  -4.979  0.00  0.00    -0.272 OA
BRANCH  23  28
ATOM     28  S   UNL d   1      31.269 -13.278  -8.286  0.00  0.00    -0.105 SA
ATOM     29  H   UNL d   1      30.780 -13.757  -9.439  0.00  0.00     0.110 HD
ENDBRANCH  23  28
ENDBRANCH  18  19
ENDBRANCH  16  17
ENDBRANCH   7  16
BRANCH   1  30
ATOM     30  O   UNL d   1      27.991 -16.251   0.085  0.00  0.00    -0.352 OA
ATOM     31  C   UNL d   1      28.860 -17.364  -0.161  0.00  0.00     0.210 C 
ENDBRANCH   1  30
TORSDOF 5
ENDMDL
MODEL 7
REMARK VINA RESULT:    -5.981      2.868      6.538
REMARK INTER + INTRA:          -9.427
REMARK INTER:                  -7.473
REMARK INTRA:                  -1.954
REMARK CONF_INDEPENDENT:        1.492
REMARK UNBOUND:                -1.954
REMARK  5 active torsions:
REMARK  status: ('A' for Active; 'I' for Inactive)
REMARK    1  A    between atoms: O_2  and  C_3 
REMARK    2  A    between atoms: C_9  and  C_10 
REMARK    3  A    between atoms: C_10  and  N_11 
REMARK    4  A    between atoms: C_12  and  C_13 
REMARK    5  A    between atoms: C_17  and  S_18 
ROOT
ATOM      1  C   UNL d   1      29.607 -14.389   3.144  0.00  0.00     0.113 A 
ATOM      2  C   UNL d   1      29.192 -14.345   4.461  0.00  0.00     0.139 A 
ATOM      3  C   UNL d   1      27.967 -13.844   4.818  0.00  0.00     0.108 A 
ATOM      4  C   UNL d   1      27.082 -13.366   3.886  0.00  0.00     0.047 A 
ATOM      5  C   UNL d   1      27.466 -13.381   2.536  0.00  0.00    -0.043 A 
ATOM      6  C   UNL d   1      28.725 -13.916   2.138  0.00  0.00     0.017 A 
ATOM      7  C   UNL d   1      29.122 -13.933   0.661  0.00  0.00     0.243 C 
ATOM      8  N   UNL d   1      27.905 -13.662  -0.292  0.00  0.00    -0.065 N 
ATOM      9  C   UNL d   1      28.276 -13.393  -1.730  0.00  0.00     0.270 C 
ATOM     10  C   UNL d   1      27.082 -12.508   0.202  0.00  0.00     0.240 C 
ATOM     11  C   UNL d   1      26.476 -12.829   1.549  0.00  0.00     0.067 C 
ATOM     12  O   UNL d   1      27.784 -13.825   6.165  0.00  0.00    -0.323 OA
ATOM     13  C   UNL d   1      29.120 -14.136   6.605  0.00  0.00     0.352 C 
ATOM     14  O   UNL d   1      29.919 -14.702   5.557  0.00  0.00    -0.320 OA
ATOM     15  H   UNL d   1      27.337 -14.518  -0.277  0.00  0.00     0.280 HD
ENDROOT
BRANCH   7  16
ATOM     16  C   UNL d   1      29.755 -15.300   0.263  0.00  0.00     0.186 C 
BRANCH  16  17
ATOM     17  N   UNL d   1      28.821 -16.054  -0.556  0.00  0.00    -0.302 NA
ATOM     18  C   UNL d   1      27.854 -16.615   0.070  0.00  0.00     0.107 C 
BRANCH  18  19
ATOM     19  C   UNL d   1      26.877 -17.450  -0.701  0.00  0.00     0.212 A 
ATOM     20  C   UNL d   1      26.329 -18.543   0.150  0.00  0.00     0.263 A 
ATOM     21  O   UNL d   1      27.106 -19.360   0.655  0.00  0.00    -0.270 OA
ATOM     22  N   UNL d   1      24.988 -18.617   0.376  0.00  0.00    -0.188 NA
ATOM     23  C   UNL d   1      24.179 -17.786  -0.182  0.00  0.00     0.171 A 
ATOM     24  N   UNL d   1      24.556 -16.765  -1.025  0.00  0.00    -0.300 N 
ATOM     25  C   UNL d   1      23.644 -15.808  -1.643  0.00  0.00     0.161 C 
ATOM     26  C   UNL d   1      25.881 -16.560  -1.337  0.00  0.00     0.243 A 
ATOM     27  O   UNL d   1      26.272 -15.643  -2.065  0.00  0.00    -0.272 OA
BRANCH  23  28
ATOM     28  S   UNL d   1      22.479 -17.984   0.180  0.00  0.00    -0.105 SA
ATOM     29  H   UNL d   1      22.313 -16.920   0.978  0.00  0.00     0.110 HD
ENDBRANCH  23  28
ENDBRANCH  18  19
ENDBRANCH  16  17
ENDBRANCH   7  16
BRANCH   1  30
ATOM     30  O   UNL d   1      30.890 -14.726   2.808  0.00  0.00    -0.352 OA
ATOM     31  C   UNL d   1      31.874 -13.714   3.056  0.00  0.00     0.210 C 
ENDBRANCH   1  30
TORSDOF 5
ENDMDL
MODEL 8
REMARK VINA RESULT:    -5.403      3.571      6.306
REMARK INTER + INTRA:          -9.254
REMARK INTER:                  -6.895
REMARK INTRA:                  -2.359
REMARK CONF_INDEPENDENT:        1.492
REMARK UNBOUND:                -2.359
REMARK  5 active torsions:
REMARK  status: ('A' for Active; 'I' for Inactive)
REMARK    1  A    between atoms: O_2  and  C_3 
REMARK    2  A    between atoms: C_9  and  C_10 
REMARK    3  A    between atoms: C_10  and  N_11 
REMARK    4  A    between atoms: C_12  and  C_13 
REMARK    5  A    between atoms: C_17  and  S_18 
ROOT
ATOM      1  C   UNL d   1      27.651 -13.507  -1.350  0.00  0.00     0.113 A 
ATOM      2  C   UNL d   1      28.455 -12.659  -2.089  0.00  0.00     0.139 A 
ATOM      3  C   UNL d   1      29.606 -13.096  -2.692  0.00  0.00     0.108 A 
ATOM      4  C   UNL d   1      30.019 -14.401  -2.602  0.00  0.00     0.047 A 
ATOM      5  C   UNL d   1      29.238 -15.295  -1.853  0.00  0.00    -0.043 A 
ATOM      6  C   UNL d   1      28.027 -14.870  -1.235  0.00  0.00     0.017 A 
ATOM      7  C   UNL d   1      27.185 -15.861  -0.430  0.00  0.00     0.243 C 
ATOM      8  N   UNL d   1      27.603 -17.352  -0.685  0.00  0.00    -0.065 N 
ATOM      9  C   UNL d   1      27.003 -18.349   0.277  0.00  0.00     0.270 C 
ATOM     10  C   UNL d   1      29.095 -17.505  -0.647  0.00  0.00     0.240 C 
ATOM     11  C   UNL d   1      29.736 -16.710  -1.762  0.00  0.00     0.067 C 
ATOM     12  O   UNL d   1      30.286 -12.093  -3.306  0.00  0.00    -0.323 OA
ATOM     13  C   UNL d   1      29.559 -10.954  -2.807  0.00  0.00     0.352 C 
ATOM     14  O   UNL d   1      28.283 -11.319  -2.263  0.00  0.00    -0.320 OA
ATOM     15  H   UNL d   1      27.258 -17.586  -1.624  0.00  0.00     0.280 HD
ENDROOT
BRANCH   7  16
ATOM     16  C   UNL d   1      25.670 -15.717  -0.767  0.00  0.00     0.186 C 
BRANCH  16  17
ATOM     17  N   UNL d   1      25.511 -15.000  -2.020  0.00  0.00    -0.302 NA
ATOM     18  C   UNL d   1      25.788 -15.660  -3.082  0.00  0.00     0.107 C 
BRANCH  18  19
ATOM     19  C   UNL d   1      25.694 -14.973  -4.410  0.00  0.00     0.212 A 
ATOM     20  C   UNL d   1      24.907 -13.712  -4.298  0.00  0.00     0.263 A 
ATOM     21  O   UNL d   1      23.742 -13.765  -3.891  0.00  0.00    -0.270 OA
ATOM     22  N   UNL d   1      25.484 -12.523  -4.626  0.00  0.00    -0.188 NA
ATOM     23  C   UNL d   1      26.686 -12.478  -5.086  0.00  0.00     0.171 A 
ATOM     24  N   UNL d   1      27.496 -13.574  -5.280  0.00  0.00    -0.300 N 
ATOM     25  C   UNL d   1      28.866 -13.526  -5.782  0.00  0.00     0.161 C 
ATOM     26  C   UNL d   1      27.052 -14.843  -4.983  0.00  0.00     0.243 A 
ATOM     27  O   UNL d   1      27.748 -15.854  -5.113  0.00  0.00    -0.272 OA
BRANCH  23  28
ATOM     28  S   UNL d   1      27.317 -10.894  -5.476  0.00  0.00    -0.105 SA
ATOM     29  H   UNL d   1      27.978 -10.649  -4.336  0.00  0.00     0.110 HD
ENDBRANCH  23  28
ENDBRANCH  18  19
ENDBRANCH  16  17
ENDBRANCH   7  16
BRANCH   1  30
ATOM     30  O   UNL d   1      26.602 -13.034  -0.610  0.00  0.00    -0.352 OA
ATOM     31  C   UNL d   1      26.960 -12.404   0.628  0.00  0.00     0.210 C 
ENDBRANCH   1  30
TORSDOF 5
ENDMDL
MODEL 9
REMARK VINA RESULT:    -5.277      2.823      5.129
REMARK INTER + INTRA:          -9.292
REMARK INTER:                  -6.768
REMARK INTRA:                  -2.524
REMARK CONF_INDEPENDENT:        1.492
REMARK UNBOUND:                -2.524
REMARK  5 active torsions:
REMARK  status: ('A' for Active; 'I' for Inactive)
REMARK    1  A    between atoms: O_2  and  C_3 
REMARK    2  A    between atoms: C_9  and  C_10 
REMARK    3  A    between atoms: C_10  and  N_11 
REMARK    4  A    between atoms: C_12  and  C_13 
REMARK    5  A    between atoms: C_17  and  S_18 
ROOT
ATOM      1  C   UNL d   1      29.990 -14.485  -2.036  0.00  0.00     0.113 A 
ATOM      2  C   UNL d   1      29.246 -14.652  -3.190  0.00  0.00     0.139 A 
ATOM      3  C   UNL d   1      28.898 -15.894  -3.653  0.00  0.00     0.108 A 
ATOM      4  C   UNL d   1      29.260 -17.040  -2.993  0.00  0.00     0.047 A 
ATOM      5  C   UNL d   1      30.025 -16.919  -1.822  0.00  0.00    -0.043 A 
ATOM      6  C   UNL d   1      30.381 -15.639  -1.309  0.00  0.00     0.017 A 
ATOM      7  C   UNL d   1      31.207 -15.526  -0.026  0.00  0.00     0.243 C 
ATOM      8  N   UNL d   1      31.265 -16.876   0.772  0.00  0.00    -0.065 N 
ATOM      9  C   UNL d   1      32.280 -16.906   1.889  0.00  0.00     0.270 C 
ATOM     10  C   UNL d   1      31.544 -18.031  -0.144  0.00  0.00     0.240 C 
ATOM     11  C   UNL d   1      30.419 -18.199  -1.141  0.00  0.00     0.067 C 
ATOM     12  O   UNL d   1      28.232 -15.841  -4.837  0.00  0.00    -0.323 OA
ATOM     13  C   UNL d   1      28.425 -14.453  -5.172  0.00  0.00     0.352 C 
ATOM     14  O   UNL d   1      28.831 -13.672  -4.039  0.00  0.00    -0.320 OA
ATOM     15  H   UNL d   1      30.338 -16.994   1.198  0.00  0.00     0.280 HD
ENDROOT
BRANCH   7  16
ATOM     16  C   UNL d   1      30.634 -14.428   0.919  0.00  0.00     0.186 C 
BRANCH  16  17
ATOM     17  N   UNL d   1      29.261 -14.128   0.549  0.00  0.00    -0.302 NA
ATOM     18  C   UNL d   1      28.379 -14.969   0.942  0.00  0.00     0.107 C 
BRANCH  18  19
ATOM     19  C   UNL d   1      26.947 -14.753   0.558  0.00  0.00     0.212 A 
ATOM     20  C   UNL d   1      26.787 -13.472  -0.187  0.00  0.00     0.263 A 
ATOM     21  O   UNL d   1      27.128 -12.415   0.355  0.00  0.00    -0.270 OA
ATOM     22  N   UNL d   1      26.288 -13.484  -1.453  0.00  0.00    -0.188 NA
ATOM     23  C   UNL d   1      25.900 -14.583  -1.999  0.00  0.00     0.171 A 
ATOM     24  N   UNL d   1      25.950 -15.821  -1.398  0.00  0.00    -0.300 N 
ATOM     25  C   UNL d   1      25.530 -17.073  -2.020  0.00  0.00     0.161 C 
ATOM     26  C   UNL d   1      26.441 -15.967  -0.120  0.00  0.00     0.243 A 
ATOM     27  O   UNL d   1      26.533 -17.057   0.451  0.00  0.00    -0.272 OA
BRANCH  23  28
ATOM     28  S   UNL d   1      25.273 -14.471  -3.628  0.00  0.00    -0.105 SA
ATOM     29  H   UNL d   1      26.393 -14.772  -4.300  0.00  0.00     0.110 HD
ENDBRANCH  23  28
ENDBRANCH  18  19
ENDBRANCH  16  17
ENDBRANCH   7  16
BRANCH   1  30
ATOM     30  O   UNL d   1      30.480 -13.261  -1.671  0.00  0.00    -0.352 OA
ATOM     31  C   UNL d   1      29.556 -12.172  -1.786  0.00  0.00     0.210 C 
ENDBRANCH   1  30
TORSDOF 5
ENDMDL
