MODEL 1
REMARK VINA RESULT:    -6.358      0.000      0.000
REMARK INTER + INTRA:         -13.730
REMARK INTER:                  -9.640
REMARK INTRA:                  -4.090
REMARK CONF_INDEPENDENT:        3.281
REMARK UNBOUND:                -4.090
REMARK  11 active torsions:
REMARK  status: ('A' for Active; 'I' for Inactive)
REMARK    1  A    between atoms: O_2  and  C_3 
REMARK    2  A    between atoms: C_3  and  C_5 
REMARK    3  A    between atoms: C_10  and  N_11 
REMARK    4  A    between atoms: N_11  and  C_12 
REMARK    5  A    between atoms: C_12  and  N_14 
REMARK    6  A    between atoms: N_14  and  C_15 
REMARK    7  A    between atoms: N_14  and  C_18 
REMARK    8  A    between atoms: C_15  and  C_16 
REMARK    9  A    between atoms: C_16  and  O_17 
REMARK   10  A    between atoms: C_18  and  C_19 
REMARK   11  A    between atoms: C_30  and  O_31 
ROOT
ATOM      1  N   UNL d   1      26.808 -13.195  -2.451  0.00  0.00    -0.352 N 
ENDROOT
BRANCH   1   2
ATOM      2  C   UNL d   1      26.721 -14.271  -1.506  0.00  0.00     0.174 C 
ATOM      3  S   UNL d   1      27.626 -14.333  -0.090  0.00  0.00    -0.041 SA
BRANCH   2   4
ATOM      4  N   UNL d   1      25.988 -15.364  -2.003  0.00  0.00    -0.332 N 
ATOM      5  H   UNL d   1      26.444 -15.906  -2.698  0.00  0.00     0.168 HD
BRANCH   4   6
ATOM      6  C   UNL d   1      25.138 -16.260  -1.342  0.00  0.00     0.050 A 
ATOM      7  C   UNL d   1      23.741 -15.978  -1.428  0.00  0.00     0.030 A 
ATOM      8  C   UNL d   1      22.813 -16.822  -0.832  0.00  0.00     0.002 A 
ATOM      9  C   UNL d   1      23.281 -17.945  -0.162  0.00  0.00     0.001 A 
ATOM     10  C   UNL d   1      24.662 -18.177  -0.021  0.00  0.00     0.020 A 
ATOM     11  C   UNL d   1      25.611 -17.331  -0.599  0.00  0.00     0.066 A 
BRANCH  11  12
ATOM     12  C   UNL d   1      27.054 -17.719  -0.520  0.00  0.00     0.295 C 
ATOM     13  O   UNL d   1      27.432 -18.562   0.259  0.00  0.00    -0.259 OA
BRANCH  12  14
ATOM     14  O   UNL d   1      27.844 -17.077  -1.439  0.00  0.00    -0.322 OA
ATOM     15  C   UNL d   1      29.249 -17.073  -1.122  0.00  0.00     0.213 C 
ENDBRANCH  12  14
ENDBRANCH  11  12
ENDBRANCH   4   6
ENDBRANCH   2   4
ENDBRANCH   1   2
BRANCH   1  16
ATOM     16  C   UNL d   1      25.528 -12.810  -3.000  0.00  0.00     0.151 C 
BRANCH  16  17
ATOM     17  C   UNL d   1      24.960 -13.426  -4.272  0.00  0.00     0.183 C 
BRANCH  17  18
ATOM     18  O   UNL d   1      25.130 -14.826  -4.300  0.00  0.00    -0.399 OA
ATOM     19  H   UNL d   1      25.159 -15.080  -5.236  0.00  0.00     0.209 HD
ENDBRANCH  17  18
ENDBRANCH  16  17
ENDBRANCH   1  16
BRANCH   1  20
ATOM     20  C   UNL d   1      28.033 -13.050  -3.378  0.00  0.00     0.164 C 
BRANCH  20  21
ATOM     21  C   UNL d   1      28.811 -14.207  -4.011  0.00  0.00    -0.004 C 
ATOM     22  C   UNL d   1      30.147 -14.517  -3.827  0.00  0.00     0.047 C 
ATOM     23  C   UNL d   1      30.658 -15.552  -4.724  0.00  0.00     0.040 C 
ATOM     24  C   UNL d   1      30.516 -15.638  -6.178  0.00  0.00    -0.070 C 
ATOM     25  C   UNL d   1      30.304 -16.764  -4.307  0.00  0.00     0.120 C 
ATOM     26  C   UNL d   1      29.754 -14.617  -6.959  0.00  0.00     0.044 C 
ATOM     27  C   UNL d   1      30.593 -16.874  -6.877  0.00  0.00     0.010 C 
ATOM     28  C   UNL d   1      31.175 -17.938  -6.257  0.00  0.00    -0.063 C 
ATOM     29  C   UNL d   1      31.862 -18.932  -7.142  0.00  0.00     0.048 C 
ATOM     30  C   UNL d   1      31.143 -17.809  -4.874  0.00  0.00     0.017 C 
ATOM     31  N   UNL d   1      28.905 -16.670  -4.326  0.00  0.00    -0.247 NA
ATOM     32  C   UNL d   1      28.224 -15.404  -4.365  0.00  0.00     0.163 C 
BRANCH  32  33
ATOM     33  O   UNL d   1      27.302 -15.285  -5.395  0.00  0.00    -0.345 OA
ATOM     34  H   UNL d   1      26.632 -14.648  -5.078  0.00  0.00     0.219 HD
ENDBRANCH  32  33
ENDBRANCH  20  21
ENDBRANCH   1  20
TORSDOF 11
ENDMDL
MODEL 2
REMARK VINA RESULT:    -5.895      1.966      6.136
REMARK INTER + INTRA:         -14.917
REMARK INTER:                  -9.176
REMARK INTRA:                  -5.740
REMARK CONF_INDEPENDENT:        3.281
REMARK UNBOUND:                -5.740
REMARK  11 active torsions:
REMARK  status: ('A' for Active; 'I' for Inactive)
REMARK    1  A    between atoms: O_2  and  C_3 
REMARK    2  A    between atoms: C_3  and  C_5 
REMARK    3  A    between atoms: C_10  and  N_11 
REMARK    4  A    between atoms: N_11  and  C_12 
REMARK    5  A    between atoms: C_12  and  N_14 
REMARK    6  A    between atoms: N_14  and  C_15 
REMARK    7  A    between atoms: N_14  and  C_18 
REMARK    8  A    between atoms: C_15  and  C_16 
REMARK    9  A    between atoms: C_16  and  O_17 
REMARK   10  A    between atoms: C_18  and  C_19 
REMARK   11  A    between atoms: C_30  and  O_31 
ROOT
ATOM      1  N   UNL d   1      30.438 -14.517  -1.775  0.00  0.00    -0.352 N 
ENDROOT
BRANCH   1   2
ATOM      2  C   UNL d   1      30.055 -13.568  -2.781  0.00  0.00     0.174 C 
ATOM      3  S   UNL d   1      30.714 -12.024  -2.895  0.00  0.00    -0.041 SA
BRANCH   2   4
ATOM      4  N   UNL d   1      28.917 -13.977  -3.499  0.00  0.00    -0.332 N 
ATOM      5  H   UNL d   1      28.791 -14.958  -3.579  0.00  0.00     0.168 HD
BRANCH   4   6
ATOM      6  C   UNL d   1      27.624 -13.440  -3.531  0.00  0.00     0.050 A 
ATOM      7  C   UNL d   1      27.427 -12.234  -2.791  0.00  0.00     0.030 A 
ATOM      8  C   UNL d   1      26.189 -11.606  -2.782  0.00  0.00     0.002 A 
ATOM      9  C   UNL d   1      25.157 -12.177  -3.516  0.00  0.00     0.001 A 
ATOM     10  C   UNL d   1      25.339 -13.402  -4.184  0.00  0.00     0.020 A 
ATOM     11  C   UNL d   1      26.572 -14.058  -4.191  0.00  0.00     0.066 A 
BRANCH  11  12
ATOM     12  C   UNL d   1      26.723 -15.285  -5.036  0.00  0.00     0.295 C 
ATOM     13  O   UNL d   1      25.757 -15.892  -5.431  0.00  0.00    -0.259 OA
BRANCH  12  14
ATOM     14  O   UNL d   1      28.027 -15.581  -5.341  0.00  0.00    -0.322 OA
ATOM     15  C   UNL d   1      28.567 -14.834  -6.447  0.00  0.00     0.213 C 
ENDBRANCH  12  14
ENDBRANCH  11  12
ENDBRANCH   4   6
ENDBRANCH   2   4
ENDBRANCH   1   2
BRANCH   1  16
ATOM     16  C   UNL d   1      31.201 -15.627  -2.297  0.00  0.00     0.151 C 
BRANCH  16  17
ATOM     17  C   UNL d   1      31.064 -16.119  -3.732  0.00  0.00     0.183 C 
BRANCH  17  18
ATOM     18  O   UNL d   1      29.874 -16.851  -3.925  0.00  0.00    -0.399 OA
ATOM     19  H   UNL d   1      29.149 -16.278  -3.634  0.00  0.00     0.209 HD
ENDBRANCH  17  18
ENDBRANCH  16  17
ENDBRANCH   1  16
BRANCH   1  20
ATOM     20  C   UNL d   1      29.520 -14.810  -0.571  0.00  0.00     0.164 C 
BRANCH  20  21
ATOM     21  C   UNL d   1      28.127 -15.441  -0.647  0.00  0.00    -0.004 C 
ATOM     22  C   UNL d   1      26.962 -14.970  -0.069  0.00  0.00     0.047 C 
ATOM     23  C   UNL d   1      25.831 -15.894  -0.141  0.00  0.00     0.040 C 
ATOM     24  C   UNL d   1      25.802 -17.314   0.213  0.00  0.00    -0.070 C 
ATOM     25  C   UNL d   1      25.265 -15.863  -1.343  0.00  0.00     0.120 C 
ATOM     26  C   UNL d   1      27.019 -18.033   0.696  0.00  0.00     0.044 C 
ATOM     27  C   UNL d   1      24.854 -18.216  -0.344  0.00  0.00     0.010 C 
ATOM     28  C   UNL d   1      23.728 -17.706  -0.916  0.00  0.00    -0.063 C 
ATOM     29  C   UNL d   1      22.500 -18.562  -0.852  0.00  0.00     0.048 C 
ATOM     30  C   UNL d   1      23.909 -16.391  -1.327  0.00  0.00     0.017 C 
ATOM     31  N   UNL d   1      26.333 -16.245  -2.167  0.00  0.00    -0.247 NA
ATOM     32  C   UNL d   1      27.699 -16.194  -1.721  0.00  0.00     0.163 C 
BRANCH  32  33
ATOM     33  O   UNL d   1      28.393 -17.386  -1.873  0.00  0.00    -0.345 OA
ATOM     34  H   UNL d   1      28.747 -17.371  -2.784  0.00  0.00     0.219 HD
ENDBRANCH  32  33
ENDBRANCH  20  21
ENDBRANCH   1  20
TORSDOF 11
ENDMDL
MODEL 3
REMARK VINA RESULT:    -5.624      2.212      6.024
REMARK INTER + INTRA:         -14.825
REMARK INTER:                  -8.906
REMARK INTRA:                  -5.919
REMARK CONF_INDEPENDENT:        3.281
REMARK UNBOUND:                -5.919
REMARK  11 active torsions:
REMARK  status: ('A' for Active; 'I' for Inactive)
REMARK    1  A    between atoms: O_2  and  C_3 
REMARK    2  A    between atoms: C_3  and  C_5 
REMARK    3  A    between atoms: C_10  and  N_11 
REMARK    4  A    between atoms: N_11  and  C_12 
REMARK    5  A    between atoms: C_12  and  N_14 
REMARK    6  A    between atoms: N_14  and  C_15 
REMARK    7  A    between atoms: N_14  and  C_18 
REMARK    8  A    between atoms: C_15  and  C_16 
REMARK    9  A    between atoms: C_16  and  O_17 
REMARK   10  A    between atoms: C_18  and  C_19 
REMARK   11  A    between atoms: C_30  and  O_31 
ROOT
ATOM      1  N   UNL d   1      30.083 -13.619  -1.019  0.00  0.00    -0.352 N 
ENDROOT
BRANCH   1   2
ATOM      2  C   UNL d   1      29.251 -12.745  -1.794  0.00  0.00     0.174 C 
ATOM      3  S   UNL d   1      28.670 -11.273  -1.222  0.00  0.00    -0.041 SA
BRANCH   2   4
ATOM      4  N   UNL d   1      28.786 -13.353  -2.974  0.00  0.00    -0.332 N 
ATOM      5  H   UNL d   1      29.281 -14.163  -3.262  0.00  0.00     0.168 HD
BRANCH   4   6
ATOM      6  C   UNL d   1      27.480 -13.539  -3.443  0.00  0.00     0.050 A 
ATOM      7  C   UNL d   1      26.477 -12.712  -2.852  0.00  0.00     0.030 A 
ATOM      8  C   UNL d   1      25.155 -12.798  -3.269  0.00  0.00     0.002 A 
ATOM      9  C   UNL d   1      24.841 -13.701  -4.276  0.00  0.00     0.001 A 
ATOM     10  C   UNL d   1      25.821 -14.563  -4.803  0.00  0.00     0.020 A 
ATOM     11  C   UNL d   1      27.152 -14.503  -4.385  0.00  0.00     0.066 A 
BRANCH  11  12
ATOM     12  C   UNL d   1      28.160 -15.357  -5.089  0.00  0.00     0.295 C 
ATOM     13  O   UNL d   1      28.854 -16.134  -4.479  0.00  0.00    -0.259 OA
BRANCH  12  14
ATOM     14  O   UNL d   1      28.153 -15.199  -6.452  0.00  0.00    -0.322 OA
ATOM     15  C   UNL d   1      29.352 -14.611  -6.992  0.00  0.00     0.213 C 
ENDBRANCH  12  14
ENDBRANCH  11  12
ENDBRANCH   4   6
ENDBRANCH   2   4
ENDBRANCH   1   2
BRANCH   1  16
ATOM     16  C   UNL d   1      31.339 -13.932  -1.660  0.00  0.00     0.151 C 
BRANCH  16  17
ATOM     17  C   UNL d   1      31.677 -15.326  -2.173  0.00  0.00     0.183 C 
BRANCH  17  18
ATOM     18  O   UNL d   1      30.625 -15.875  -2.935  0.00  0.00    -0.399 OA
ATOM     19  H   UNL d   1      29.801 -15.565  -2.528  0.00  0.00     0.209 HD
ENDBRANCH  17  18
ENDBRANCH  16  17
ENDBRANCH   1  16
BRANCH   1  20
ATOM     20  C   UNL d   1      29.468 -14.716  -0.126  0.00  0.00     0.164 C 
BRANCH  20  21
ATOM     21  C   UNL d   1      28.105 -15.379  -0.345  0.00  0.00    -0.004 C 
ATOM     22  C   UNL d   1      26.896 -15.013   0.220  0.00  0.00     0.047 C 
ATOM     23  C   UNL d   1      25.806 -15.959  -0.013  0.00  0.00     0.040 C 
ATOM     24  C   UNL d   1      25.813 -17.409   0.181  0.00  0.00    -0.070 C 
ATOM     25  C   UNL d   1      25.298 -15.812  -1.233  0.00  0.00     0.120 C 
ATOM     26  C   UNL d   1      27.031 -18.139   0.646  0.00  0.00     0.044 C 
ATOM     27  C   UNL d   1      24.928 -18.274  -0.520  0.00  0.00     0.010 C 
ATOM     28  C   UNL d   1      23.812 -17.740  -1.092  0.00  0.00    -0.063 C 
ATOM     29  C   UNL d   1      22.616 -18.637  -1.186  0.00  0.00     0.048 C 
ATOM     30  C   UNL d   1      23.963 -16.382  -1.345  0.00  0.00     0.017 C 
ATOM     31  N   UNL d   1      26.419 -16.066  -2.036  0.00  0.00    -0.247 NA
ATOM     32  C   UNL d   1      27.758 -16.021  -1.516  0.00  0.00     0.163 C 
BRANCH  32  33
ATOM     33  O   UNL d   1      28.503 -17.166  -1.761  0.00  0.00    -0.345 OA
ATOM     34  H   UNL d   1      28.897 -17.040  -2.646  0.00  0.00     0.219 HD
ENDBRANCH  32  33
ENDBRANCH  20  21
ENDBRANCH   1  20
TORSDOF 11
ENDMDL
MODEL 4
REMARK VINA RESULT:    -5.190      1.507      2.472
REMARK INTER + INTRA:         -14.299
REMARK INTER:                  -8.472
REMARK INTRA:                  -5.827
REMARK CONF_INDEPENDENT:        3.281
REMARK UNBOUND:                -5.827
REMARK  11 active torsions:
REMARK  status: ('A' for Active; 'I' for Inactive)
REMARK    1  A    between atoms: O_2  and  C_3 
REMARK    2  A    between atoms: C_3  and  C_5 
REMARK    3  A    between atoms: C_10  and  N_11 
REMARK    4  A    between atoms: N_11  and  C_12 
REMARK    5  A    between atoms: C_12  and  N_14 
REMARK    6  A    between atoms: N_14  and  C_15 
REMARK    7  A    between atoms: N_14  and  C_18 
REMARK    8  A    between atoms: C_15  and  C_16 
REMARK    9  A    between atoms: C_16  and  O_17 
REMARK   10  A    between atoms: C_18  and  C_19 
REMARK   11  A    between atoms: C_30  and  O_31 
ROOT
ATOM      1  N   UNL d   1      26.993 -12.138  -3.214  0.00  0.00    -0.352 N 
ENDROOT
BRANCH   1   2
ATOM      2  C   UNL d   1      26.877 -12.659  -1.882  0.00  0.00     0.174 C 
ATOM      3  S   UNL d   1      27.581 -11.930  -0.539  0.00  0.00    -0.041 SA
BRANCH   2   4
ATOM      4  N   UNL d   1      26.321 -13.951  -1.857  0.00  0.00    -0.332 N 
ATOM      5  H   UNL d   1      26.052 -14.318  -2.739  0.00  0.00     0.168 HD
BRANCH   4   6
ATOM      6  C   UNL d   1      26.662 -15.069  -1.086  0.00  0.00     0.050 A 
ATOM      7  C   UNL d   1      27.593 -14.840  -0.027  0.00  0.00     0.030 A 
ATOM      8  C   UNL d   1      27.974 -15.878   0.814  0.00  0.00     0.002 A 
ATOM      9  C   UNL d   1      27.420 -17.134   0.600  0.00  0.00     0.001 A 
ATOM     10  C   UNL d   1      26.560 -17.367  -0.489  0.00  0.00     0.020 A 
ATOM     11  C   UNL d   1      26.178 -16.340  -1.355  0.00  0.00     0.066 A 
BRANCH  11  12
ATOM     12  C   UNL d   1      25.154 -16.638  -2.406  0.00  0.00     0.295 C 
ATOM     13  O   UNL d   1      25.298 -16.253  -3.542  0.00  0.00    -0.259 OA
BRANCH  12  14
ATOM     14  O   UNL d   1      24.118 -17.415  -1.956  0.00  0.00    -0.322 OA
ATOM     15  C   UNL d   1      23.424 -16.881  -0.812  0.00  0.00     0.213 C 
ENDBRANCH  12  14
ENDBRANCH  11  12
ENDBRANCH   4   6
ENDBRANCH   2   4
ENDBRANCH   1   2
BRANCH   1  16
ATOM     16  C   UNL d   1      25.719 -11.955  -3.871  0.00  0.00     0.151 C 
BRANCH  16  17
ATOM     17  C   UNL d   1      25.217 -12.888  -4.965  0.00  0.00     0.183 C 
BRANCH  17  18
ATOM     18  O   UNL d   1      24.714 -14.095  -4.438  0.00  0.00    -0.399 OA
ATOM     19  H   UNL d   1      25.151 -14.810  -4.926  0.00  0.00     0.209 HD
ENDBRANCH  17  18
ENDBRANCH  16  17
ENDBRANCH   1  16
BRANCH   1  20
ATOM     20  C   UNL d   1      28.189 -12.516  -4.112  0.00  0.00     0.164 C 
BRANCH  20  21
ATOM     21  C   UNL d   1      28.810 -13.911  -4.224  0.00  0.00    -0.004 C 
ATOM     22  C   UNL d   1      30.064 -14.307  -3.793  0.00  0.00     0.047 C 
ATOM     23  C   UNL d   1      30.459 -15.647  -4.223  0.00  0.00     0.040 C 
ATOM     24  C   UNL d   1      30.400 -16.216  -5.570  0.00  0.00    -0.070 C 
ATOM     25  C   UNL d   1      29.887 -16.580  -3.468  0.00  0.00     0.120 C 
ATOM     26  C   UNL d   1      29.865 -15.444  -6.732  0.00  0.00     0.044 C 
ATOM     27  C   UNL d   1      30.322 -17.618  -5.800  0.00  0.00     0.010 C 
ATOM     28  C   UNL d   1      30.683 -18.464  -4.795  0.00  0.00    -0.063 C 
ATOM     29  C   UNL d   1      31.258 -19.784  -5.209  0.00  0.00     0.048 C 
ATOM     30  C   UNL d   1      30.582 -17.857  -3.550  0.00  0.00     0.017 C 
ATOM     31  N   UNL d   1      28.526 -16.320  -3.682  0.00  0.00    -0.247 NA
ATOM     32  C   UNL d   1      28.062 -15.071  -4.223  0.00  0.00     0.163 C 
BRANCH  32  33
ATOM     33  O   UNL d   1      27.241 -15.201  -5.333  0.00  0.00    -0.345 OA
ATOM     34  H   UNL d   1      26.355 -15.417  -4.982  0.00  0.00     0.219 HD
ENDBRANCH  32  33
ENDBRANCH  20  21
ENDBRANCH   1  20
TORSDOF 11
ENDMDL
MODEL 5
REMARK VINA RESULT:    -5.187      3.340      6.012
REMARK INTER + INTRA:         -14.652
REMARK INTER:                  -8.469
REMARK INTRA:                  -6.183
REMARK CONF_INDEPENDENT:        3.281
REMARK UNBOUND:                -6.183
REMARK  11 active torsions:
REMARK  status: ('A' for Active; 'I' for Inactive)
REMARK    1  A    between atoms: O_2  and  C_3 
REMARK    2  A    between atoms: C_3  and  C_5 
REMARK    3  A    between atoms: C_10  and  N_11 
REMARK    4  A    between atoms: N_11  and  C_12 
REMARK    5  A    between atoms: C_12  and  N_14 
REMARK    6  A    between atoms: N_14  and  C_15 
REMARK    7  A    between atoms: N_14  and  C_18 
REMARK    8  A    between atoms: C_15  and  C_16 
REMARK    9  A    between atoms: C_16  and  O_17 
REMARK   10  A    between atoms: C_18  and  C_19 
REMARK   11  A    between atoms: C_30  and  O_31 
ROOT
ATOM      1  N   UNL d   1      27.102 -13.410  -2.405  0.00  0.00    -0.352 N 
ENDROOT
BRANCH   1   2
ATOM      2  C   UNL d   1      26.446 -14.581  -2.911  0.00  0.00     0.174 C 
ATOM      3  S   UNL d   1      25.446 -14.569  -4.263  0.00  0.00    -0.041 SA
BRANCH   2   4
ATOM      4  N   UNL d   1      26.538 -15.672  -2.028  0.00  0.00    -0.332 N 
ATOM      5  H   UNL d   1      27.318 -15.661  -1.414  0.00  0.00     0.168 HD
BRANCH   4   6
ATOM      6  C   UNL d   1      25.537 -16.360  -1.331  0.00  0.00     0.050 A 
ATOM      7  C   UNL d   1      24.194 -15.950  -1.595  0.00  0.00     0.030 A 
ATOM      8  C   UNL d   1      23.127 -16.590  -0.977  0.00  0.00     0.002 A 
ATOM      9  C   UNL d   1      23.403 -17.638  -0.108  0.00  0.00     0.001 A 
ATOM     10  C   UNL d   1      24.730 -17.988   0.201  0.00  0.00     0.020 A 
ATOM     11  C   UNL d   1      25.817 -17.346  -0.397  0.00  0.00     0.066 A 
BRANCH  11  12
ATOM     12  C   UNL d   1      27.193 -17.866  -0.120  0.00  0.00     0.295 C 
ATOM     13  O   UNL d   1      27.365 -18.822   0.598  0.00  0.00    -0.259 OA
BRANCH  12  14
ATOM     14  O   UNL d   1      28.177 -17.195  -0.799  0.00  0.00    -0.322 OA
ATOM     15  C   UNL d   1      29.508 -17.699  -0.576  0.00  0.00     0.213 C 
ENDBRANCH  12  14
ENDBRANCH  11  12
ENDBRANCH   4   6
ENDBRANCH   2   4
ENDBRANCH   1   2
BRANCH   1  16
ATOM     16  C   UNL d   1      28.515 -13.371  -2.702  0.00  0.00     0.151 C 
BRANCH  16  17
ATOM     17  C   UNL d   1      29.255 -14.541  -3.338  0.00  0.00     0.183 C 
BRANCH  17  18
ATOM     18  O   UNL d   1      29.213 -15.693  -2.526  0.00  0.00    -0.399 OA
ATOM     19  H   UNL d   1      29.139 -15.382  -1.611  0.00  0.00     0.209 HD
ENDBRANCH  17  18
ENDBRANCH  16  17
ENDBRANCH   1  16
BRANCH   1  20
ATOM     20  C   UNL d   1      26.654 -12.759  -1.080  0.00  0.00     0.164 C 
BRANCH  20  21
ATOM     21  C   UNL d   1      27.208 -13.094   0.307  0.00  0.00    -0.004 C 
ATOM     22  C   UNL d   1      26.878 -12.493   1.509  0.00  0.00     0.047 C 
ATOM     23  C   UNL d   1      27.723 -12.883   2.636  0.00  0.00     0.040 C 
ATOM     24  C   UNL d   1      29.184 -12.919   2.698  0.00  0.00    -0.070 C 
ATOM     25  C   UNL d   1      27.364 -14.071   3.114  0.00  0.00     0.120 C 
ATOM     26  C   UNL d   1      30.035 -12.561   1.523  0.00  0.00     0.044 C 
ATOM     27  C   UNL d   1      29.885 -13.757   3.609  0.00  0.00     0.010 C 
ATOM     28  C   UNL d   1      29.216 -14.250   4.688  0.00  0.00    -0.063 C 
ATOM     29  C   UNL d   1      30.029 -14.498   5.921  0.00  0.00     0.048 C 
ATOM     30  C   UNL d   1      27.844 -14.287   4.471  0.00  0.00     0.017 C 
ATOM     31  N   UNL d   1      27.542 -14.891   1.991  0.00  0.00    -0.247 NA
ATOM     32  C   UNL d   1      27.642 -14.355   0.661  0.00  0.00     0.163 C 
BRANCH  32  33
ATOM     33  O   UNL d   1      28.769 -14.768  -0.036  0.00  0.00    -0.345 OA
ATOM     34  H   UNL d   1      28.542 -15.641  -0.411  0.00  0.00     0.219 HD
ENDBRANCH  32  33
ENDBRANCH  20  21
ENDBRANCH   1  20
TORSDOF 11
ENDMDL
MODEL 6
REMARK VINA RESULT:    -5.163      2.744      7.067
REMARK INTER + INTRA:         -14.256
REMARK INTER:                  -8.444
REMARK INTRA:                  -5.811
REMARK CONF_INDEPENDENT:        3.281
REMARK UNBOUND:                -5.811
REMARK  11 active torsions:
REMARK  status: ('A' for Active; 'I' for Inactive)
REMARK    1  A    between atoms: O_2  and  C_3 
REMARK    2  A    between atoms: C_3  and  C_5 
REMARK    3  A    between atoms: C_10  and  N_11 
REMARK    4  A    between atoms: N_11  and  C_12 
REMARK    5  A    between atoms: C_12  and  N_14 
REMARK    6  A    between atoms: N_14  and  C_15 
REMARK    7  A    between atoms: N_14  and  C_18 
REMARK    8  A    between atoms: C_15  and  C_16 
REMARK    9  A    between atoms: C_16  and  O_17 
REMARK   10  A    between atoms: C_18  and  C_19 
REMARK   11  A    between atoms: C_30  and  O_31 
ROOT
ATOM      1  N   UNL d   1      28.872 -12.118  -6.046  0.00  0.00    -0.352 N 
ENDROOT
BRANCH   1   2
ATOM      2  C   UNL d   1      29.228 -12.996  -7.123  0.00  0.00     0.174 C 
ATOM      3  S   UNL d   1      28.530 -12.914  -8.652  0.00  0.00    -0.041 SA
BRANCH   2   4
ATOM      4  N   UNL d   1      30.036 -14.066  -6.700  0.00  0.00    -0.332 N 
ATOM      5  H   UNL d   1      29.571 -14.774  -6.182  0.00  0.00     0.168 HD
BRANCH   4   6
ATOM      6  C   UNL d   1      31.085 -14.723  -7.353  0.00  0.00     0.050 A 
ATOM      7  C   UNL d   1      31.927 -13.905  -8.166  0.00  0.00     0.030 A 
ATOM      8  C   UNL d   1      33.014 -14.455  -8.833  0.00  0.00     0.002 A 
ATOM      9  C   UNL d   1      33.261 -15.814  -8.680  0.00  0.00     0.001 A 
ATOM     10  C   UNL d   1      32.386 -16.625  -7.935  0.00  0.00     0.020 A 
ATOM     11  C   UNL d   1      31.278 -16.094  -7.271  0.00  0.00     0.066 A 
BRANCH  11  12
ATOM     12  C   UNL d   1      30.474 -16.998  -6.389  0.00  0.00     0.295 C 
ATOM     13  O   UNL d   1      30.399 -18.182  -6.613  0.00  0.00    -0.259 OA
BRANCH  12  14
ATOM     14  O   UNL d   1      29.913 -16.356  -5.315  0.00  0.00    -0.322 OA
ATOM     15  C   UNL d   1      29.984 -17.088  -4.076  0.00  0.00     0.213 C 
ENDBRANCH  12  14
ENDBRANCH  11  12
ENDBRANCH   4   6
ENDBRANCH   2   4
ENDBRANCH   1   2
BRANCH   1  16
ATOM     16  C   UNL d   1      29.956 -11.877  -5.121  0.00  0.00     0.151 C 
BRANCH  16  17
ATOM     17  C   UNL d   1      30.182 -12.729  -3.879  0.00  0.00     0.183 C 
BRANCH  17  18
ATOM     18  O   UNL d   1      30.277 -14.101  -4.192  0.00  0.00    -0.399 OA
ATOM     19  H   UNL d   1      29.517 -14.306  -4.757  0.00  0.00     0.209 HD
ENDBRANCH  17  18
ENDBRANCH  16  17
ENDBRANCH   1  16
BRANCH   1  20
ATOM     20  C   UNL d   1      27.447 -12.120  -5.458  0.00  0.00     0.164 C 
BRANCH  20  21
ATOM     21  C   UNL d   1      26.886 -13.165  -4.490  0.00  0.00    -0.004 C 
ATOM     22  C   UNL d   1      26.132 -12.934  -3.353  0.00  0.00     0.047 C 
ATOM     23  C   UNL d   1      25.917 -14.114  -2.517  0.00  0.00     0.040 C 
ATOM     24  C   UNL d   1      26.912 -15.076  -2.040  0.00  0.00    -0.070 C 
ATOM     25  C   UNL d   1      24.955 -14.884  -3.016  0.00  0.00     0.120 C 
ATOM     26  C   UNL d   1      28.356 -14.966  -2.405  0.00  0.00     0.044 C 
ATOM     27  C   UNL d   1      26.568 -16.409  -1.683  0.00  0.00     0.010 C 
ATOM     28  C   UNL d   1      25.264 -16.696  -1.414  0.00  0.00    -0.063 C 
ATOM     29  C   UNL d   1      25.011 -17.791  -0.424  0.00  0.00     0.048 C 
ATOM     30  C   UNL d   1      24.402 -15.790  -2.019  0.00  0.00     0.017 C 
ATOM     31  N   UNL d   1      25.476 -15.200  -4.279  0.00  0.00    -0.247 NA
ATOM     32  C   UNL d   1      26.541 -14.443  -4.879  0.00  0.00     0.163 C 
BRANCH  32  33
ATOM     33  O   UNL d   1      27.624 -15.208  -5.288  0.00  0.00    -0.345 OA
ATOM     34  H   UNL d   1      28.345 -15.001  -4.662  0.00  0.00     0.219 HD
ENDBRANCH  32  33
ENDBRANCH  20  21
ENDBRANCH   1  20
TORSDOF 11
ENDMDL
MODEL 7
REMARK VINA RESULT:    -5.016      3.940      6.413
REMARK INTER + INTRA:         -14.625
REMARK INTER:                  -8.297
REMARK INTRA:                  -6.328
REMARK CONF_INDEPENDENT:        3.281
REMARK UNBOUND:                -6.328
REMARK  11 active torsions:
REMARK  status: ('A' for Active; 'I' for Inactive)
REMARK    1  A    between atoms: O_2  and  C_3 
REMARK    2  A    between atoms: C_3  and  C_5 
REMARK    3  A    between atoms: C_10  and  N_11 
REMARK    4  A    between atoms: N_11  and  C_12 
REMARK    5  A    between atoms: C_12  and  N_14 
REMARK    6  A    between atoms: N_14  and  C_15 
REMARK    7  A    between atoms: N_14  and  C_18 
REMARK    8  A    between atoms: C_15  and  C_16 
REMARK    9  A    between atoms: C_16  and  O_17 
REMARK   10  A    between atoms: C_18  and  C_19 
REMARK   11  A    between atoms: C_30  and  O_31 
ROOT
ATOM      1  N   UNL d   1      30.471 -13.668  -0.665  0.00  0.00    -0.352 N 
ENDROOT
BRANCH   1   2
ATOM      2  C   UNL d   1      30.548 -14.123   0.693  0.00  0.00     0.174 C 
ATOM      3  S   UNL d   1      31.352 -15.527   1.154  0.00  0.00    -0.041 SA
BRANCH   2   4
ATOM      4  N   UNL d   1      29.692 -13.407   1.549  0.00  0.00    -0.332 N 
ATOM      5  H   UNL d   1      29.013 -12.839   1.098  0.00  0.00     0.168 HD
BRANCH   4   6
ATOM      6  C   UNL d   1      29.105 -13.782   2.763  0.00  0.00     0.050 A 
ATOM      7  C   UNL d   1      29.965 -14.427   3.703  0.00  0.00     0.030 A 
ATOM      8  C   UNL d   1      29.486 -14.812   4.949  0.00  0.00     0.002 A 
ATOM      9  C   UNL d   1      28.158 -14.544   5.254  0.00  0.00     0.001 A 
ATOM     10  C   UNL d   1      27.299 -13.973   4.297  0.00  0.00     0.020 A 
ATOM     11  C   UNL d   1      27.757 -13.595   3.033  0.00  0.00     0.066 A 
BRANCH  11  12
ATOM     12  C   UNL d   1      26.816 -12.870   2.121  0.00  0.00     0.295 C 
ATOM     13  O   UNL d   1      25.729 -13.325   1.859  0.00  0.00    -0.259 OA
BRANCH  12  14
ATOM     14  O   UNL d   1      27.296 -11.659   1.693  0.00  0.00    -0.322 OA
ATOM     15  C   UNL d   1      27.013 -10.558   2.577  0.00  0.00     0.213 C 
ENDBRANCH  12  14
ENDBRANCH  11  12
ENDBRANCH   4   6
ENDBRANCH   2   4
ENDBRANCH   1   2
BRANCH   1  16
ATOM     16  C   UNL d   1      30.663 -12.243  -0.804  0.00  0.00     0.151 C 
BRANCH  16  17
ATOM     17  C   UNL d   1      29.559 -11.233  -0.519  0.00  0.00     0.183 C 
BRANCH  17  18
ATOM     18  O   UNL d   1      28.277 -11.784  -0.717  0.00  0.00    -0.399 OA
ATOM     19  H   UNL d   1      27.966 -12.075   0.154  0.00  0.00     0.209 HD
ENDBRANCH  17  18
ENDBRANCH  16  17
ENDBRANCH   1  16
BRANCH   1  20
ATOM     20  C   UNL d   1      29.518 -14.342  -1.674  0.00  0.00     0.164 C 
BRANCH  20  21
ATOM     21  C   UNL d   1      28.288 -15.179  -1.313  0.00  0.00    -0.004 C 
ATOM     22  C   UNL d   1      28.159 -16.555  -1.392  0.00  0.00     0.047 C 
ATOM     23  C   UNL d   1      26.800 -17.050  -1.178  0.00  0.00     0.040 C 
ATOM     24  C   UNL d   1      25.561 -16.585  -1.801  0.00  0.00    -0.070 C 
ATOM     25  C   UNL d   1      26.502 -17.082   0.117  0.00  0.00     0.120 C 
ATOM     26  C   UNL d   1      25.543 -15.452  -2.775  0.00  0.00     0.044 C 
ATOM     27  C   UNL d   1      24.290 -16.761  -1.188  0.00  0.00     0.010 C 
ATOM     28  C   UNL d   1      24.165 -17.694  -0.204  0.00  0.00    -0.063 C 
ATOM     29  C   UNL d   1      22.824 -18.350  -0.072  0.00  0.00     0.048 C 
ATOM     30  C   UNL d   1      25.384 -17.968   0.403  0.00  0.00     0.017 C 
ATOM     31  N   UNL d   1      26.652 -15.734   0.474  0.00  0.00    -0.247 NA
ATOM     32  C   UNL d   1      27.378 -14.803  -0.347  0.00  0.00     0.163 C 
BRANCH  32  33
ATOM     33  O   UNL d   1      26.667 -13.657  -0.673  0.00  0.00    -0.345 OA
ATOM     34  H   UNL d   1      26.873 -13.009   0.028  0.00  0.00     0.219 HD
ENDBRANCH  32  33
ENDBRANCH  20  21
ENDBRANCH   1  20
TORSDOF 11
ENDMDL
MODEL 8
REMARK VINA RESULT:    -4.969      2.410      6.888
REMARK INTER + INTRA:         -13.956
REMARK INTER:                  -8.251
REMARK INTRA:                  -5.705
REMARK CONF_INDEPENDENT:        3.281
REMARK UNBOUND:                -5.705
REMARK  11 active torsions:
REMARK  status: ('A' for Active; 'I' for Inactive)
REMARK    1  A    between atoms: O_2  and  C_3 
REMARK    2  A    between atoms: C_3  and  C_5 
REMARK    3  A    between atoms: C_10  and  N_11 
REMARK    4  A    between atoms: N_11  and  C_12 
REMARK    5  A    between atoms: C_12  and  N_14 
REMARK    6  A    between atoms: N_14  and  C_15 
REMARK    7  A    between atoms: N_14  and  C_18 
REMARK    8  A    between atoms: C_15  and  C_16 
REMARK    9  A    between atoms: C_16  and  O_17 
REMARK   10  A    between atoms: C_18  and  C_19 
REMARK   11  A    between atoms: C_30  and  O_31 
ROOT
ATOM      1  N   UNL d   1      30.255 -14.757  -1.384  0.00  0.00    -0.352 N 
ENDROOT
BRANCH   1   2
ATOM      2  C   UNL d   1      31.145 -14.402  -2.452  0.00  0.00     0.174 C 
ATOM      3  S   UNL d   1      32.567 -13.534  -2.221  0.00  0.00    -0.041 SA
BRANCH   2   4
ATOM      4  N   UNL d   1      30.587 -14.647  -3.720  0.00  0.00    -0.332 N 
ATOM      5  H   UNL d   1      30.020 -15.459  -3.788  0.00  0.00     0.168 HD
BRANCH   4   6
ATOM      6  C   UNL d   1      30.066 -13.758  -4.668  0.00  0.00     0.050 A 
ATOM      7  C   UNL d   1      30.784 -12.536  -4.843  0.00  0.00     0.030 A 
ATOM      8  C   UNL d   1      30.365 -11.600  -5.780  0.00  0.00     0.002 A 
ATOM      9  C   UNL d   1      29.240 -11.890  -6.541  0.00  0.00     0.001 A 
ATOM     10  C   UNL d   1      28.498 -13.062  -6.312  0.00  0.00     0.020 A 
ATOM     11  C   UNL d   1      28.893 -14.008  -5.364  0.00  0.00     0.066 A 
BRANCH  11  12
ATOM     12  C   UNL d   1      28.127 -15.292  -5.275  0.00  0.00     0.295 C 
ATOM     13  O   UNL d   1      28.616 -16.275  -4.770  0.00  0.00    -0.259 OA
BRANCH  12  14
ATOM     14  O   UNL d   1      26.847 -15.199  -5.756  0.00  0.00    -0.322 OA
ATOM     15  C   UNL d   1      25.904 -14.613  -4.839  0.00  0.00     0.213 C 
ENDBRANCH  12  14
ENDBRANCH  11  12
ENDBRANCH   4   6
ENDBRANCH   2   4
ENDBRANCH   1   2
BRANCH   1  16
ATOM     16  C   UNL d   1      30.462 -16.098  -0.888  0.00  0.00     0.151 C 
BRANCH  16  17
ATOM     17  C   UNL d   1      31.017 -17.220  -1.756  0.00  0.00     0.183 C 
BRANCH  17  18
ATOM     18  O   UNL d   1      30.428 -17.234  -3.037  0.00  0.00    -0.399 OA
ATOM     19  H   UNL d   1      29.507 -16.955  -2.919  0.00  0.00     0.209 HD
ENDBRANCH  17  18
ENDBRANCH  16  17
ENDBRANCH   1  16
BRANCH   1  20
ATOM     20  C   UNL d   1      28.811 -14.217  -1.342  0.00  0.00     0.164 C 
BRANCH  20  21
ATOM     21  C   UNL d   1      27.548 -15.067  -1.184  0.00  0.00    -0.004 C 
ATOM     22  C   UNL d   1      26.394 -14.733  -0.498  0.00  0.00     0.047 C 
ATOM     23  C   UNL d   1      25.439 -15.830  -0.346  0.00  0.00     0.040 C 
ATOM     24  C   UNL d   1      25.695 -17.192   0.123  0.00  0.00    -0.070 C 
ATOM     25  C   UNL d   1      24.740 -16.013  -1.462  0.00  0.00     0.120 C 
ATOM     26  C   UNL d   1      27.066 -17.654   0.499  0.00  0.00     0.044 C 
ATOM     27  C   UNL d   1      24.859 -18.287  -0.230  0.00  0.00     0.010 C 
ATOM     28  C   UNL d   1      23.603 -18.026  -0.689  0.00  0.00    -0.063 C 
ATOM     29  C   UNL d   1      22.557 -19.057  -0.396  0.00  0.00     0.048 C 
ATOM     30  C   UNL d   1      23.506 -16.748  -1.226  0.00  0.00     0.017 C 
ATOM     31  N   UNL d   1      25.756 -16.300  -2.386  0.00  0.00    -0.247 NA
ATOM     32  C   UNL d   1      27.135 -15.985  -2.128  0.00  0.00     0.163 C 
BRANCH  32  33
ATOM     33  O   UNL d   1      28.001 -17.059  -2.272  0.00  0.00    -0.345 OA
ATOM     34  H   UNL d   1      28.228 -17.090  -3.222  0.00  0.00     0.219 HD
ENDBRANCH  32  33
ENDBRANCH  20  21
ENDBRANCH   1  20
TORSDOF 11
ENDMDL
MODEL 9
REMARK VINA RESULT:    -4.798      2.054      3.300
REMARK INTER + INTRA:         -13.745
REMARK INTER:                  -8.079
REMARK INTRA:                  -5.665
REMARK CONF_INDEPENDENT:        3.281
REMARK UNBOUND:                -5.665
REMARK  11 active torsions:
REMARK  status: ('A' for Active; 'I' for Inactive)
REMARK    1  A    between atoms: O_2  and  C_3 
REMARK    2  A    between atoms: C_3  and  C_5 
REMARK    3  A    between atoms: C_10  and  N_11 
REMARK    4  A    between atoms: N_11  and  C_12 
REMARK    5  A    between atoms: C_12  and  N_14 
REMARK    6  A    between atoms: N_14  and  C_15 
REMARK    7  A    between atoms: N_14  and  C_18 
REMARK    8  A    between atoms: C_15  and  C_16 
REMARK    9  A    between atoms: C_16  and  O_17 
REMARK   10  A    between atoms: C_18  and  C_19 
REMARK   11  A    between atoms: C_30  and  O_31 
ROOT
ATOM      1  N   UNL d   1      30.294 -15.319  -1.475  0.00  0.00    -0.352 N 
ENDROOT
BRANCH   1   2
ATOM      2  C   UNL d   1      29.322 -16.346  -1.232  0.00  0.00     0.174 C 
ATOM      3  S   UNL d   1      29.719 -17.883  -0.677  0.00  0.00    -0.041 SA
BRANCH   2   4
ATOM      4  N   UNL d   1      28.050 -16.009  -1.729  0.00  0.00    -0.332 N 
ATOM      5  H   UNL d   1      28.010 -15.806  -2.700  0.00  0.00     0.168 HD
BRANCH   4   6
ATOM      6  C   UNL d   1      26.788 -16.525  -1.413  0.00  0.00     0.050 A 
ATOM      7  C   UNL d   1      26.719 -17.339  -0.241  0.00  0.00     0.030 A 
ATOM      8  C   UNL d   1      25.507 -17.875   0.175  0.00  0.00     0.002 A 
ATOM      9  C   UNL d   1      24.371 -17.591  -0.572  0.00  0.00     0.001 A 
ATOM     10  C   UNL d   1      24.459 -16.848  -1.763  0.00  0.00     0.020 A 
ATOM     11  C   UNL d   1      25.671 -16.315  -2.208  0.00  0.00     0.066 A 
BRANCH  11  12
ATOM     12  C   UNL d   1      25.660 -15.423  -3.410  0.00  0.00     0.295 C 
ATOM     13  O   UNL d   1      24.756 -14.645  -3.600  0.00  0.00    -0.259 OA
BRANCH  12  14
ATOM     14  O   UNL d   1      26.777 -15.549  -4.195  0.00  0.00    -0.322 OA
ATOM     15  C   UNL d   1      26.771 -14.731  -5.380  0.00  0.00     0.213 C 
ENDBRANCH  12  14
ENDBRANCH  11  12
ENDBRANCH   4   6
ENDBRANCH   2   4
ENDBRANCH   1   2
BRANCH   1  16
ATOM     16  C   UNL d   1      29.772 -13.983  -1.301  0.00  0.00     0.151 C 
BRANCH  16  17
ATOM     17  C   UNL d   1      29.112 -13.205  -2.432  0.00  0.00     0.183 C 
BRANCH  17  18
ATOM     18  O   UNL d   1      28.968 -13.988  -3.596  0.00  0.00    -0.399 OA
ATOM     19  H   UNL d   1      28.184 -14.541  -3.459  0.00  0.00     0.209 HD
ENDBRANCH  17  18
ENDBRANCH  16  17
ENDBRANCH   1  16
BRANCH   1  20
ATOM     20  C   UNL d   1      31.392 -15.502  -2.543  0.00  0.00     0.164 C 
BRANCH  20  21
ATOM     21  C   UNL d   1      31.319 -16.457  -3.737  0.00  0.00    -0.004 C 
ATOM     22  C   UNL d   1      32.334 -17.257  -4.234  0.00  0.00     0.047 C 
ATOM     23  C   UNL d   1      32.029 -17.903  -5.509  0.00  0.00     0.040 C 
ATOM     24  C   UNL d   1      31.492 -17.292  -6.725  0.00  0.00    -0.070 C 
ATOM     25  C   UNL d   1      31.255 -18.970  -5.331  0.00  0.00     0.120 C 
ATOM     26  C   UNL d   1      31.146 -15.840  -6.794  0.00  0.00     0.044 C 
ATOM     27  C   UNL d   1      30.777 -18.041  -7.700  0.00  0.00     0.010 C 
ATOM     28  C   UNL d   1      30.910 -19.397  -7.706  0.00  0.00    -0.063 C 
ATOM     29  C   UNL d   1      30.775 -20.076  -9.034  0.00  0.00     0.048 C 
ATOM     30  C   UNL d   1      31.304 -19.881  -6.464  0.00  0.00     0.017 C 
ATOM     31  N   UNL d   1      30.125 -18.399  -4.726  0.00  0.00    -0.247 NA
ATOM     32  C   UNL d   1      30.158 -17.095  -4.122  0.00  0.00     0.163 C 
BRANCH  32  33
ATOM     33  O   UNL d   1      29.178 -16.228  -4.585  0.00  0.00    -0.345 OA
ATOM     34  H   UNL d   1      28.950 -15.658  -3.825  0.00  0.00     0.219 HD
ENDBRANCH  32  33
ENDBRANCH  20  21
ENDBRANCH   1  20
TORSDOF 11
ENDMDL
