MODEL 1
REMARK VINA RESULT:    -7.061      0.000      0.000
REMARK INTER + INTRA:         -11.112
REMARK INTER:                  -9.447
REMARK INTRA:                  -1.665
REMARK CONF_INDEPENDENT:        2.386
REMARK UNBOUND:                -1.665
REMARK  8 active torsions:
REMARK  status: ('A' for Active; 'I' for Inactive)
REMARK    1  A    between atoms: O_2  and  C_3 
REMARK    2  A    between atoms: C_3  and  C_4 
REMARK    3  A    between atoms: C_4  and  C_5 
REMARK    4  A    between atoms: C_5  and  N_6 
REMARK       I    between atoms: N_6  and  C_7 
REMARK       I    between atoms: C_7  and  N_9 
REMARK    5  A    between atoms: N_9  and  N_10 
REMARK       I    between atoms: N_10  and  C_11 
REMARK    6  A    between atoms: C_11  and  C_13 
REMARK    7  A    between atoms: C_18  and  N_19 
REMARK    8  A    between atoms: N_19  and  C_20 
ROOT
ATOM      1  C   UNL d   1      27.195 -15.360  -1.856  0.00  0.00     0.079 A 
ATOM      2  C   UNL d   1      27.926 -15.164  -3.033  0.00  0.00     0.022 A 
ATOM      3  C   UNL d   1      27.278 -15.141  -4.264  0.00  0.00     0.020 A 
ATOM      4  C   UNL d   1      25.906 -15.308  -4.285  0.00  0.00     0.119 A 
ATOM      5  N   UNL d   1      25.156 -15.469  -3.170  0.00  0.00    -0.242 NA
ATOM      6  C   UNL d   1      25.786 -15.490  -1.957  0.00  0.00     0.143 A 
ENDROOT
BRANCH   1   7
ATOM      7  C   UNL d   1      27.996 -15.595  -0.608  0.00  0.00     0.274 C 
ATOM      8  N   UNL d   1      27.800 -14.734   0.471  0.00  0.00    -0.262 N 
ATOM      9  H   UNL d   1      27.139 -13.958   0.465  0.00  0.00     0.190 HD
ATOM     10  O   UNL d   1      28.818 -16.515  -0.567  0.00  0.00    -0.266 OA
BRANCH   8  11
ATOM     11  N   UNL d   1      28.374 -15.056   1.753  0.00  0.00    -0.249 N 
ATOM     12  C   UNL d   1      27.870 -14.455   2.893  0.00  0.00     0.334 C 
ATOM     13  N   UNL d   1      28.451 -14.859   4.083  0.00  0.00    -0.342 N 
ATOM     14  O   UNL d   1      26.985 -13.598   2.843  0.00  0.00    -0.246 OA
ATOM     15  H   UNL d   1      29.167 -15.571   4.080  0.00  0.00     0.164 HD
ATOM     16  H   UNL d   1      29.003 -15.856   1.763  0.00  0.00     0.192 HD
BRANCH  13  17
ATOM     17  C   UNL d   1      28.099 -14.209   5.350  0.00  0.00     0.126 C 
BRANCH  17  18
ATOM     18  C   UNL d   1      29.267 -13.528   6.076  0.00  0.00     0.046 C 
BRANCH  18  19
ATOM     19  C   UNL d   1      29.249 -13.842   7.577  0.00  0.00     0.168 C 
BRANCH  19  20
ATOM     20  O   UNL d   1      28.564 -12.803   8.283  0.00  0.00    -0.396 OA
ATOM     21  C   UNL d   1      28.526 -13.072   9.683  0.00  0.00     0.201 C 
ENDBRANCH  19  20
ENDBRANCH  18  19
ENDBRANCH  17  18
ENDBRANCH  13  17
ENDBRANCH   8  11
ENDBRANCH   1   7
BRANCH   6  22
ATOM     22  N   UNL d   1      24.912 -15.638  -0.871  0.00  0.00    -0.338 N 
ATOM     23  H   UNL d   1      24.934 -14.864  -0.220  0.00  0.00     0.167 HD
BRANCH  22  24
ATOM     24  C   UNL d   1      24.032 -16.698  -0.612  0.00  0.00     0.072 A 
ATOM     25  C   UNL d   1      22.658 -16.529  -0.815  0.00  0.00     0.033 A 
ATOM     26  C   UNL d   1      21.818 -17.648  -0.894  0.00  0.00     0.002 A 
ATOM     27  C   UNL d   1      22.338 -18.937  -0.740  0.00  0.00     0.003 A 
ATOM     28  C   UNL d   1      23.692 -19.109  -0.468  0.00  0.00     0.044 A 
ATOM     29  C   UNL d   1      24.520 -17.996  -0.387  0.00  0.00     0.143 A 
ATOM     30  F   UNL d   1      25.845 -18.196  -0.275  0.00  0.00    -0.204 F 
ENDBRANCH  22  24
ENDBRANCH   6  22
TORSDOF 8
ENDMDL
MODEL 2
REMARK VINA RESULT:    -6.661      3.836      7.946
REMARK INTER + INTRA:         -11.556
REMARK INTER:                  -9.048
REMARK INTRA:                  -2.509
REMARK CONF_INDEPENDENT:        2.386
REMARK UNBOUND:                -2.509
REMARK  8 active torsions:
REMARK  status: ('A' for Active; 'I' for Inactive)
REMARK    1  A    between atoms: O_2  and  C_3 
REMARK    2  A    between atoms: C_3  and  C_4 
REMARK    3  A    between atoms: C_4  and  C_5 
REMARK    4  A    between atoms: C_5  and  N_6 
REMARK       I    between atoms: N_6  and  C_7 
REMARK       I    between atoms: C_7  and  N_9 
REMARK    5  A    between atoms: N_9  and  N_10 
REMARK       I    between atoms: N_10  and  C_11 
REMARK    6  A    between atoms: C_11  and  C_13 
REMARK    7  A    between atoms: C_18  and  N_19 
REMARK    8  A    between atoms: N_19  and  C_20 
ROOT
ATOM      1  C   UNL d   1      25.634 -16.347  -0.981  0.00  0.00     0.079 A 
ATOM      2  C   UNL d   1      25.161 -16.029  -2.259  0.00  0.00     0.022 A 
ATOM      3  C   UNL d   1      25.735 -14.984  -2.977  0.00  0.00     0.020 A 
ATOM      4  C   UNL d   1      26.777 -14.286  -2.397  0.00  0.00     0.119 A 
ATOM      5  N   UNL d   1      27.286 -14.580  -1.178  0.00  0.00    -0.242 NA
ATOM      6  C   UNL d   1      26.730 -15.607  -0.468  0.00  0.00     0.143 A 
ENDROOT
BRANCH   1   7
ATOM      7  C   UNL d   1      24.815 -17.330  -0.196  0.00  0.00     0.274 C 
ATOM      8  N   UNL d   1      23.438 -17.363  -0.417  0.00  0.00    -0.262 N 
ATOM      9  H   UNL d   1      22.956 -16.763  -1.084  0.00  0.00     0.190 HD
ATOM     10  O   UNL d   1      25.359 -18.064   0.635  0.00  0.00    -0.266 OA
BRANCH   8  11
ATOM     11  N   UNL d   1      22.652 -18.434   0.142  0.00  0.00    -0.249 N 
ATOM     12  C   UNL d   1      21.398 -18.700  -0.379  0.00  0.00     0.334 C 
ATOM     13  N   UNL d   1      20.736 -19.775   0.188  0.00  0.00    -0.342 N 
ATOM     14  O   UNL d   1      20.900 -18.006  -1.268  0.00  0.00    -0.246 OA
ATOM     15  H   UNL d   1      21.185 -20.324   0.906  0.00  0.00     0.164 HD
ATOM     16  H   UNL d   1      23.149 -19.058   0.774  0.00  0.00     0.192 HD
BRANCH  13  17
ATOM     17  C   UNL d   1      19.351 -20.086  -0.184  0.00  0.00     0.126 C 
BRANCH  17  18
ATOM     18  C   UNL d   1      18.656 -21.119   0.711  0.00  0.00     0.046 C 
BRANCH  18  19
ATOM     19  C   UNL d   1      18.452 -20.578   2.132  0.00  0.00     0.168 C 
BRANCH  19  20
ATOM     20  O   UNL d   1      19.713 -20.209   2.698  0.00  0.00    -0.396 OA
ATOM     21  C   UNL d   1      19.904 -20.822   3.972  0.00  0.00     0.201 C 
ENDBRANCH  19  20
ENDBRANCH  18  19
ENDBRANCH  17  18
ENDBRANCH  13  17
ENDBRANCH   8  11
ENDBRANCH   1   7
BRANCH   6  22
ATOM     22  N   UNL d   1      27.349 -15.838   0.768  0.00  0.00    -0.338 N 
ATOM     23  H   UNL d   1      27.144 -16.745   1.165  0.00  0.00     0.167 HD
BRANCH  22  24
ATOM     24  C   UNL d   1      28.205 -14.983   1.476  0.00  0.00     0.072 A 
ATOM     25  C   UNL d   1      27.782 -14.415   2.683  0.00  0.00     0.033 A 
ATOM     26  C   UNL d   1      28.719 -13.851   3.560  0.00  0.00     0.002 A 
ATOM     27  C   UNL d   1      30.076 -13.823   3.224  0.00  0.00     0.003 A 
ATOM     28  C   UNL d   1      30.495 -14.323   1.995  0.00  0.00     0.044 A 
ATOM     29  C   UNL d   1      29.562 -14.878   1.128  0.00  0.00     0.143 A 
ATOM     30  F   UNL d   1      30.010 -15.489   0.018  0.00  0.00    -0.204 F 
ENDBRANCH  22  24
ENDBRANCH   6  22
TORSDOF 8
ENDMDL
MODEL 3
REMARK VINA RESULT:    -6.656      5.720      8.689
REMARK INTER + INTRA:         -10.868
REMARK INTER:                  -9.042
REMARK INTRA:                  -1.825
REMARK CONF_INDEPENDENT:        2.386
REMARK UNBOUND:                -1.825
REMARK  8 active torsions:
REMARK  status: ('A' for Active; 'I' for Inactive)
REMARK    1  A    between atoms: O_2  and  C_3 
REMARK    2  A    between atoms: C_3  and  C_4 
REMARK    3  A    between atoms: C_4  and  C_5 
REMARK    4  A    between atoms: C_5  and  N_6 
REMARK       I    between atoms: N_6  and  C_7 
REMARK       I    between atoms: C_7  and  N_9 
REMARK    5  A    between atoms: N_9  and  N_10 
REMARK       I    between atoms: N_10  and  C_11 
REMARK    6  A    between atoms: C_11  and  C_13 
REMARK    7  A    between atoms: C_18  and  N_19 
REMARK    8  A    between atoms: N_19  and  C_20 
ROOT
ATOM      1  C   UNL d   1      26.504 -13.848  -4.801  0.00  0.00     0.079 A 
ATOM      2  C   UNL d   1      27.509 -14.802  -4.996  0.00  0.00     0.022 A 
ATOM      3  C   UNL d   1      28.560 -14.542  -5.870  0.00  0.00     0.020 A 
ATOM      4  C   UNL d   1      28.582 -13.325  -6.525  0.00  0.00     0.119 A 
ATOM      5  N   UNL d   1      27.648 -12.362  -6.343  0.00  0.00    -0.242 NA
ATOM      6  C   UNL d   1      26.614 -12.609  -5.483  0.00  0.00     0.143 A 
ENDROOT
BRANCH   1   7
ATOM      7  C   UNL d   1      25.302 -14.300  -4.023  0.00  0.00     0.274 C 
ATOM      8  N   UNL d   1      25.482 -15.282  -3.048  0.00  0.00    -0.262 N 
ATOM      9  H   UNL d   1      26.382 -15.706  -2.829  0.00  0.00     0.190 HD
ATOM     10  O   UNL d   1      24.191 -13.822  -4.269  0.00  0.00    -0.266 OA
BRANCH   8  11
ATOM     11  N   UNL d   1      24.410 -15.580  -2.131  0.00  0.00    -0.249 N 
ATOM     12  C   UNL d   1      24.452 -16.751  -1.396  0.00  0.00     0.334 C 
ATOM     13  N   UNL d   1      23.406 -16.931  -0.508  0.00  0.00    -0.342 N 
ATOM     14  O   UNL d   1      25.347 -17.586  -1.547  0.00  0.00    -0.246 OA
ATOM     15  H   UNL d   1      22.699 -16.218  -0.407  0.00  0.00     0.164 HD
ATOM     16  H   UNL d   1      23.770 -14.812  -1.941  0.00  0.00     0.192 HD
BRANCH  13  17
ATOM     17  C   UNL d   1      23.262 -18.185   0.239  0.00  0.00     0.126 C 
BRANCH  17  18
ATOM     18  C   UNL d   1      22.553 -19.315  -0.520  0.00  0.00     0.046 C 
BRANCH  18  19
ATOM     19  C   UNL d   1      21.121 -18.917  -0.902  0.00  0.00     0.168 C 
BRANCH  19  20
ATOM     20  O   UNL d   1      20.280 -20.074  -0.904  0.00  0.00    -0.396 OA
ATOM     21  C   UNL d   1      18.944 -19.739  -0.534  0.00  0.00     0.201 C 
ENDBRANCH  19  20
ENDBRANCH  18  19
ENDBRANCH  17  18
ENDBRANCH  13  17
ENDBRANCH   8  11
ENDBRANCH   1   7
BRANCH   6  22
ATOM     22  N   UNL d   1      25.720 -11.538  -5.354  0.00  0.00    -0.338 N 
ATOM     23  H   UNL d   1      24.785 -11.815  -5.089  0.00  0.00     0.167 HD
BRANCH  22  24
ATOM     24  C   UNL d   1      25.982 -10.172  -5.528  0.00  0.00     0.072 A 
ATOM     25  C   UNL d   1      26.264  -9.673  -6.806  0.00  0.00     0.033 A 
ATOM     26  C   UNL d   1      26.187  -8.295  -7.053  0.00  0.00     0.002 A 
ATOM     27  C   UNL d   1      25.862  -7.408  -6.023  0.00  0.00     0.003 A 
ATOM     28  C   UNL d   1      25.649  -7.889  -4.735  0.00  0.00     0.044 A 
ATOM     29  C   UNL d   1      25.730  -9.255  -4.494  0.00  0.00     0.143 A 
ATOM     30  F   UNL d   1      25.372  -9.709  -3.280  0.00  0.00    -0.204 F 
ENDBRANCH  22  24
ENDBRANCH   6  22
TORSDOF 8
ENDMDL
MODEL 4
REMARK VINA RESULT:    -6.555      1.716      2.171
REMARK INTER + INTRA:         -11.216
REMARK INTER:                  -8.941
REMARK INTRA:                  -2.275
REMARK CONF_INDEPENDENT:        2.386
REMARK UNBOUND:                -2.275
REMARK  8 active torsions:
REMARK  status: ('A' for Active; 'I' for Inactive)
REMARK    1  A    between atoms: O_2  and  C_3 
REMARK    2  A    between atoms: C_3  and  C_4 
REMARK    3  A    between atoms: C_4  and  C_5 
REMARK    4  A    between atoms: C_5  and  N_6 
REMARK       I    between atoms: N_6  and  C_7 
REMARK       I    between atoms: C_7  and  N_9 
REMARK    5  A    between atoms: N_9  and  N_10 
REMARK       I    between atoms: N_10  and  C_11 
REMARK    6  A    between atoms: C_11  and  C_13 
REMARK    7  A    between atoms: C_18  and  N_19 
REMARK    8  A    between atoms: N_19  and  C_20 
ROOT
ATOM      1  C   UNL d   1      27.310 -15.335  -2.498  0.00  0.00     0.079 A 
ATOM      2  C   UNL d   1      28.251 -15.182  -3.523  0.00  0.00     0.022 A 
ATOM      3  C   UNL d   1      27.832 -15.053  -4.843  0.00  0.00     0.020 A 
ATOM      4  C   UNL d   1      26.475 -15.072  -5.105  0.00  0.00     0.119 A 
ATOM      5  N   UNL d   1      25.530 -15.186  -4.141  0.00  0.00    -0.242 NA
ATOM      6  C   UNL d   1      25.934 -15.311  -2.842  0.00  0.00     0.143 A 
ENDROOT
BRANCH   1   7
ATOM      7  C   UNL d   1      27.855 -15.692  -1.145  0.00  0.00     0.274 C 
ATOM      8  N   UNL d   1      27.817 -14.721  -0.144  0.00  0.00    -0.262 N 
ATOM      9  H   UNL d   1      27.436 -13.786  -0.275  0.00  0.00     0.190 HD
ATOM     10  O   UNL d   1      28.341 -16.810  -0.951  0.00  0.00    -0.266 OA
BRANCH   8  11
ATOM     11  N   UNL d   1      28.118 -15.089   1.217  0.00  0.00    -0.249 N 
ATOM     12  C   UNL d   1      27.551 -14.371   2.255  0.00  0.00     0.334 C 
ATOM     13  N   UNL d   1      27.858 -14.825   3.526  0.00  0.00    -0.342 N 
ATOM     14  O   UNL d   1      26.844 -13.381   2.055  0.00  0.00    -0.246 OA
ATOM     15  H   UNL d   1      28.432 -15.647   3.646  0.00  0.00     0.164 HD
ATOM     16  H   UNL d   1      28.590 -15.983   1.335  0.00  0.00     0.192 HD
BRANCH  13  17
ATOM     17  C   UNL d   1      27.426 -14.080   4.714  0.00  0.00     0.126 C 
BRANCH  17  18
ATOM     18  C   UNL d   1      28.555 -13.395   5.496  0.00  0.00     0.046 C 
BRANCH  18  19
ATOM     19  C   UNL d   1      29.581 -14.417   6.003  0.00  0.00     0.168 C 
BRANCH  19  20
ATOM     20  O   UNL d   1      30.069 -15.200   4.910  0.00  0.00    -0.396 OA
ATOM     21  C   UNL d   1      30.777 -14.391   3.973  0.00  0.00     0.201 C 
ENDBRANCH  19  20
ENDBRANCH  18  19
ENDBRANCH  17  18
ENDBRANCH  13  17
ENDBRANCH   8  11
ENDBRANCH   1   7
BRANCH   6  22
ATOM     22  N   UNL d   1      24.875 -15.398  -1.928  0.00  0.00    -0.338 N 
ATOM     23  H   UNL d   1      24.490 -14.502  -1.661  0.00  0.00     0.167 HD
BRANCH  22  24
ATOM     24  C   UNL d   1      24.304 -16.555  -1.380  0.00  0.00     0.072 A 
ATOM     25  C   UNL d   1      25.123 -17.622  -0.993  0.00  0.00     0.033 A 
ATOM     26  C   UNL d   1      24.622 -18.619  -0.145  0.00  0.00     0.002 A 
ATOM     27  C   UNL d   1      23.296 -18.575   0.295  0.00  0.00     0.003 A 
ATOM     28  C   UNL d   1      22.456 -17.555  -0.141  0.00  0.00     0.044 A 
ATOM     29  C   UNL d   1      22.956 -16.571  -0.985  0.00  0.00     0.143 A 
ATOM     30  F   UNL d   1      22.170 -15.517  -1.269  0.00  0.00    -0.204 F 
ENDBRANCH  22  24
ENDBRANCH   6  22
TORSDOF 8
ENDMDL
MODEL 5
REMARK VINA RESULT:    -6.479      1.940      4.073
REMARK INTER + INTRA:         -10.619
REMARK INTER:                  -8.866
REMARK INTRA:                  -1.754
REMARK CONF_INDEPENDENT:        2.386
REMARK UNBOUND:                -1.754
REMARK  8 active torsions:
REMARK  status: ('A' for Active; 'I' for Inactive)
REMARK    1  A    between atoms: O_2  and  C_3 
REMARK    2  A    between atoms: C_3  and  C_4 
REMARK    3  A    between atoms: C_4  and  C_5 
REMARK    4  A    between atoms: C_5  and  N_6 
REMARK       I    between atoms: N_6  and  C_7 
REMARK       I    between atoms: C_7  and  N_9 
REMARK    5  A    between atoms: N_9  and  N_10 
REMARK       I    between atoms: N_10  and  C_11 
REMARK    6  A    between atoms: C_11  and  C_13 
REMARK    7  A    between atoms: C_18  and  N_19 
REMARK    8  A    between atoms: N_19  and  C_20 
ROOT
ATOM      1  C   UNL d   1      25.131 -17.437  -0.375  0.00  0.00     0.079 A 
ATOM      2  C   UNL d   1      24.413 -18.586  -0.025  0.00  0.00     0.022 A 
ATOM      3  C   UNL d   1      23.047 -18.662  -0.278  0.00  0.00     0.020 A 
ATOM      4  C   UNL d   1      22.433 -17.583  -0.885  0.00  0.00     0.119 A 
ATOM      5  N   UNL d   1      23.094 -16.466  -1.270  0.00  0.00    -0.242 NA
ATOM      6  C   UNL d   1      24.437 -16.386  -1.027  0.00  0.00     0.143 A 
ENDROOT
BRANCH   1   7
ATOM      7  C   UNL d   1      26.540 -17.353   0.136  0.00  0.00     0.274 C 
ATOM      8  N   UNL d   1      27.112 -16.089   0.285  0.00  0.00    -0.262 N 
ATOM      9  H   UNL d   1      26.626 -15.219   0.072  0.00  0.00     0.190 HD
ATOM     10  O   UNL d   1      27.168 -18.386   0.390  0.00  0.00    -0.266 OA
BRANCH   8  11
ATOM     11  N   UNL d   1      28.367 -15.952   0.980  0.00  0.00    -0.249 N 
ATOM     12  C   UNL d   1      28.629 -14.790   1.684  0.00  0.00     0.334 C 
ATOM     13  N   UNL d   1      29.838 -14.766   2.358  0.00  0.00    -0.342 N 
ATOM     14  O   UNL d   1      27.849 -13.836   1.684  0.00  0.00    -0.246 OA
ATOM     15  H   UNL d   1      30.444 -15.574   2.341  0.00  0.00     0.164 HD
ATOM     16  H   UNL d   1      28.916 -16.804   1.064  0.00  0.00     0.192 HD
BRANCH  13  17
ATOM     17  C   UNL d   1      30.295 -13.549   3.038  0.00  0.00     0.126 C 
BRANCH  17  18
ATOM     18  C   UNL d   1      29.898 -13.444   4.516  0.00  0.00     0.046 C 
BRANCH  18  19
ATOM     19  C   UNL d   1      29.473 -14.807   5.077  0.00  0.00     0.168 C 
BRANCH  19  20
ATOM     20  O   UNL d   1      28.160 -14.715   5.638  0.00  0.00    -0.396 OA
ATOM     21  C   UNL d   1      27.259 -14.075   4.737  0.00  0.00     0.201 C 
ENDBRANCH  19  20
ENDBRANCH  18  19
ENDBRANCH  17  18
ENDBRANCH  13  17
ENDBRANCH   8  11
ENDBRANCH   1   7
BRANCH   6  22
ATOM     22  N   UNL d   1      25.023 -15.198  -1.486  0.00  0.00    -0.338 N 
ATOM     23  H   UNL d   1      25.155 -14.502  -0.765  0.00  0.00     0.167 HD
BRANCH  22  24
ATOM     24  C   UNL d   1      25.444 -14.893  -2.787  0.00  0.00     0.072 A 
ATOM     25  C   UNL d   1      24.805 -13.878  -3.508  0.00  0.00     0.033 A 
ATOM     26  C   UNL d   1      25.417 -13.333  -4.646  0.00  0.00     0.002 A 
ATOM     27  C   UNL d   1      26.650 -13.819  -5.087  0.00  0.00     0.003 A 
ATOM     28  C   UNL d   1      27.259 -14.875  -4.417  0.00  0.00     0.044 A 
ATOM     29  C   UNL d   1      26.647 -15.414  -3.292  0.00  0.00     0.143 A 
ATOM     30  F   UNL d   1      27.325 -16.328  -2.576  0.00  0.00    -0.204 F 
ENDBRANCH  22  24
ENDBRANCH   6  22
TORSDOF 8
ENDMDL
MODEL 6
REMARK VINA RESULT:    -6.199      4.916      7.465
REMARK INTER + INTRA:         -10.795
REMARK INTER:                  -8.585
REMARK INTRA:                  -2.210
REMARK CONF_INDEPENDENT:        2.386
REMARK UNBOUND:                -2.210
REMARK  8 active torsions:
REMARK  status: ('A' for Active; 'I' for Inactive)
REMARK    1  A    between atoms: O_2  and  C_3 
REMARK    2  A    between atoms: C_3  and  C_4 
REMARK    3  A    between atoms: C_4  and  C_5 
REMARK    4  A    between atoms: C_5  and  N_6 
REMARK       I    between atoms: N_6  and  C_7 
REMARK       I    between atoms: C_7  and  N_9 
REMARK    5  A    between atoms: N_9  and  N_10 
REMARK       I    between atoms: N_10  and  C_11 
REMARK    6  A    between atoms: C_11  and  C_13 
REMARK    7  A    between atoms: C_18  and  N_19 
REMARK    8  A    between atoms: N_19  and  C_20 
ROOT
ATOM      1  C   UNL d   1      26.921 -15.345  -2.789  0.00  0.00     0.079 A 
ATOM      2  C   UNL d   1      28.040 -15.635  -3.578  0.00  0.00     0.022 A 
ATOM      3  C   UNL d   1      29.059 -16.440  -3.077  0.00  0.00     0.020 A 
ATOM      4  C   UNL d   1      28.927 -16.942  -1.796  0.00  0.00     0.119 A 
ATOM      5  N   UNL d   1      27.848 -16.713  -1.011  0.00  0.00    -0.242 NA
ATOM      6  C   UNL d   1      26.842 -15.926  -1.498  0.00  0.00     0.143 A 
ENDROOT
BRANCH   1   7
ATOM      7  C   UNL d   1      25.989 -14.295  -3.321  0.00  0.00     0.274 C 
ATOM      8  N   UNL d   1      26.168 -12.979  -2.894  0.00  0.00    -0.262 N 
ATOM      9  H   UNL d   1      26.899 -12.688  -2.247  0.00  0.00     0.190 HD
ATOM     10  O   UNL d   1      25.080 -14.611  -4.095  0.00  0.00    -0.266 OA
BRANCH   8  11
ATOM     11  N   UNL d   1      25.449 -11.914  -3.546  0.00  0.00    -0.249 N 
ATOM     12  C   UNL d   1      25.879 -10.609  -3.388  0.00  0.00     0.334 C 
ATOM     13  N   UNL d   1      25.157  -9.657  -4.088  0.00  0.00    -0.342 N 
ATOM     14  O   UNL d   1      26.823 -10.316  -2.651  0.00  0.00    -0.246 OA
ATOM     15  H   UNL d   1      24.396  -9.940  -4.689  0.00  0.00     0.164 HD
ATOM     16  H   UNL d   1      24.768 -12.208  -4.243  0.00  0.00     0.192 HD
BRANCH  13  17
ATOM     17  C   UNL d   1      25.427  -8.227  -3.909  0.00  0.00     0.126 C 
BRANCH  17  18
ATOM     18  C   UNL d   1      25.612  -7.435  -5.210  0.00  0.00     0.046 C 
BRANCH  18  19
ATOM     19  C   UNL d   1      24.585  -7.855  -6.269  0.00  0.00     0.168 C 
BRANCH  19  20
ATOM     20  O   UNL d   1      23.377  -8.282  -5.633  0.00  0.00    -0.396 OA
ATOM     21  C   UNL d   1      22.521  -7.174  -5.359  0.00  0.00     0.201 C 
ENDBRANCH  19  20
ENDBRANCH  18  19
ENDBRANCH  17  18
ENDBRANCH  13  17
ENDBRANCH   8  11
ENDBRANCH   1   7
BRANCH   6  22
ATOM     22  N   UNL d   1      25.767 -15.775  -0.612  0.00  0.00    -0.338 N 
ATOM     23  H   UNL d   1      25.787 -14.910  -0.088  0.00  0.00     0.167 HD
BRANCH  22  24
ATOM     24  C   UNL d   1      24.697 -16.655  -0.398  0.00  0.00     0.072 A 
ATOM     25  C   UNL d   1      23.404 -16.291  -0.793  0.00  0.00     0.033 A 
ATOM     26  C   UNL d   1      22.405 -17.267  -0.904  0.00  0.00     0.002 A 
ATOM     27  C   UNL d   1      22.679 -18.601  -0.592  0.00  0.00     0.003 A 
ATOM     28  C   UNL d   1      23.943 -18.959  -0.132  0.00  0.00     0.044 A 
ATOM     29  C   UNL d   1      24.930 -17.988  -0.019  0.00  0.00     0.143 A 
ATOM     30  F   UNL d   1      26.180 -18.382   0.280  0.00  0.00    -0.204 F 
ENDBRANCH  22  24
ENDBRANCH   6  22
TORSDOF 8
ENDMDL
MODEL 7
REMARK VINA RESULT:    -5.935      4.494      7.041
REMARK INTER + INTRA:         -10.486
REMARK INTER:                  -8.322
REMARK INTRA:                  -2.164
REMARK CONF_INDEPENDENT:        2.386
REMARK UNBOUND:                -2.164
REMARK  8 active torsions:
REMARK  status: ('A' for Active; 'I' for Inactive)
REMARK    1  A    between atoms: O_2  and  C_3 
REMARK    2  A    between atoms: C_3  and  C_4 
REMARK    3  A    between atoms: C_4  and  C_5 
REMARK    4  A    between atoms: C_5  and  N_6 
REMARK       I    between atoms: N_6  and  C_7 
REMARK       I    between atoms: C_7  and  N_9 
REMARK    5  A    between atoms: N_9  and  N_10 
REMARK       I    between atoms: N_10  and  C_11 
REMARK    6  A    between atoms: C_11  and  C_13 
REMARK    7  A    between atoms: C_18  and  N_19 
REMARK    8  A    between atoms: N_19  and  C_20 
ROOT
ATOM      1  C   UNL d   1      27.082 -14.694  -4.352  0.00  0.00     0.079 A 
ATOM      2  C   UNL d   1      27.190 -14.831  -5.741  0.00  0.00     0.022 A 
ATOM      3  C   UNL d   1      28.368 -14.474  -6.390  0.00  0.00     0.020 A 
ATOM      4  C   UNL d   1      29.416 -13.994  -5.627  0.00  0.00     0.119 A 
ATOM      5  N   UNL d   1      29.366 -13.875  -4.280  0.00  0.00    -0.242 NA
ATOM      6  C   UNL d   1      28.213 -14.226  -3.635  0.00  0.00     0.143 A 
ENDROOT
BRANCH   1   7
ATOM      7  C   UNL d   1      25.712 -14.887  -3.771  0.00  0.00     0.274 C 
ATOM      8  N   UNL d   1      25.527 -15.917  -2.849  0.00  0.00    -0.262 N 
ATOM      9  H   UNL d   1      26.270 -16.542  -2.541  0.00  0.00     0.190 HD
ATOM     10  O   UNL d   1      24.781 -14.159  -4.130  0.00  0.00    -0.266 OA
BRANCH   8  11
ATOM     11  N   UNL d   1      24.296 -15.993  -2.103  0.00  0.00    -0.249 N 
ATOM     12  C   UNL d   1      24.098 -17.045  -1.226  0.00  0.00     0.334 C 
ATOM     13  N   UNL d   1      22.909 -17.012  -0.519  0.00  0.00    -0.342 N 
ATOM     14  O   UNL d   1      24.916 -17.960  -1.108  0.00  0.00    -0.246 OA
ATOM     15  H   UNL d   1      22.271 -16.238  -0.638  0.00  0.00     0.164 HD
ATOM     16  H   UNL d   1      23.715 -15.159  -2.130  0.00  0.00     0.192 HD
BRANCH  13  17
ATOM     17  C   UNL d   1      22.518 -18.129   0.347  0.00  0.00     0.126 C 
BRANCH  17  18
ATOM     18  C   UNL d   1      21.889 -19.325  -0.380  0.00  0.00     0.046 C 
BRANCH  18  19
ATOM     19  C   UNL d   1      20.721 -18.884  -1.270  0.00  0.00     0.168 C 
BRANCH  19  20
ATOM     20  O   UNL d   1      19.481 -19.288  -0.681  0.00  0.00    -0.396 OA
ATOM     21  C   UNL d   1      19.690 -20.264   0.338  0.00  0.00     0.201 C 
ENDBRANCH  19  20
ENDBRANCH  18  19
ENDBRANCH  17  18
ENDBRANCH  13  17
ENDBRANCH   8  11
ENDBRANCH   1   7
BRANCH   6  22
ATOM     22  N   UNL d   1      28.280 -14.085  -2.243  0.00  0.00    -0.338 N 
ATOM     23  H   UNL d   1      28.422 -13.132  -1.934  0.00  0.00     0.167 HD
BRANCH  22  24
ATOM     24  C   UNL d   1      28.159 -15.086  -1.269  0.00  0.00     0.072 A 
ATOM     25  C   UNL d   1      27.265 -14.919  -0.204  0.00  0.00     0.033 A 
ATOM     26  C   UNL d   1      26.882 -16.024   0.568  0.00  0.00     0.002 A 
ATOM     27  C   UNL d   1      27.411 -17.290   0.306  0.00  0.00     0.003 A 
ATOM     28  C   UNL d   1      28.353 -17.451  -0.705  0.00  0.00     0.044 A 
ATOM     29  C   UNL d   1      28.733 -16.353  -1.467  0.00  0.00     0.143 A 
ATOM     30  F   UNL d   1      29.527 -16.561  -2.532  0.00  0.00    -0.204 F 
ENDBRANCH  22  24
ENDBRANCH   6  22
TORSDOF 8
ENDMDL
MODEL 8
REMARK VINA RESULT:    -5.932      1.858      2.442
REMARK INTER + INTRA:         -10.631
REMARK INTER:                  -8.318
REMARK INTRA:                  -2.313
REMARK CONF_INDEPENDENT:        2.386
REMARK UNBOUND:                -2.313
REMARK  8 active torsions:
REMARK  status: ('A' for Active; 'I' for Inactive)
REMARK    1  A    between atoms: O_2  and  C_3 
REMARK    2  A    between atoms: C_3  and  C_4 
REMARK    3  A    between atoms: C_4  and  C_5 
REMARK    4  A    between atoms: C_5  and  N_6 
REMARK       I    between atoms: N_6  and  C_7 
REMARK       I    between atoms: C_7  and  N_9 
REMARK    5  A    between atoms: N_9  and  N_10 
REMARK       I    between atoms: N_10  and  C_11 
REMARK    6  A    between atoms: C_11  and  C_13 
REMARK    7  A    between atoms: C_18  and  N_19 
REMARK    8  A    between atoms: N_19  and  C_20 
ROOT
ATOM      1  C   UNL d   1      26.474 -13.903  -2.366  0.00  0.00     0.079 A 
ATOM      2  C   UNL d   1      26.580 -12.578  -2.805  0.00  0.00     0.022 A 
ATOM      3  C   UNL d   1      25.920 -12.168  -3.959  0.00  0.00     0.020 A 
ATOM      4  C   UNL d   1      25.161 -13.098  -4.645  0.00  0.00     0.119 A 
ATOM      5  N   UNL d   1      25.006 -14.381  -4.240  0.00  0.00    -0.242 NA
ATOM      6  C   UNL d   1      25.649 -14.789  -3.105  0.00  0.00     0.143 A 
ENDROOT
BRANCH   1   7
ATOM      7  C   UNL d   1      27.393 -14.308  -1.250  0.00  0.00     0.274 C 
ATOM      8  N   UNL d   1      27.078 -13.893   0.044  0.00  0.00    -0.262 N 
ATOM      9  H   UNL d   1      26.257 -13.337   0.278  0.00  0.00     0.190 HD
ATOM     10  O   UNL d   1      28.407 -14.969  -1.494  0.00  0.00    -0.266 OA
BRANCH   8  11
ATOM     11  N   UNL d   1      27.800 -14.443   1.164  0.00  0.00    -0.249 N 
ATOM     12  C   UNL d   1      27.406 -14.120   2.450  0.00  0.00     0.334 C 
ATOM     13  N   UNL d   1      28.127 -14.731   3.462  0.00  0.00    -0.342 N 
ATOM     14  O   UNL d   1      26.494 -13.322   2.673  0.00  0.00    -0.246 OA
ATOM     15  H   UNL d   1      28.860 -15.388   3.236  0.00  0.00     0.164 HD
ATOM     16  H   UNL d   1      28.451 -15.193   0.939  0.00  0.00     0.192 HD
BRANCH  13  17
ATOM     17  C   UNL d   1      27.896 -14.380   4.867  0.00  0.00     0.126 C 
BRANCH  17  18
ATOM     18  C   UNL d   1      28.989 -13.515   5.507  0.00  0.00     0.046 C 
BRANCH  18  19
ATOM     19  C   UNL d   1      30.387 -13.968   5.067  0.00  0.00     0.168 C 
BRANCH  19  20
ATOM     20  O   UNL d   1      30.474 -13.960   3.639  0.00  0.00    -0.396 OA
ATOM     21  C   UNL d   1      31.510 -14.828   3.182  0.00  0.00     0.201 C 
ENDBRANCH  19  20
ENDBRANCH  18  19
ENDBRANCH  17  18
ENDBRANCH  13  17
ENDBRANCH   8  11
ENDBRANCH   1   7
BRANCH   6  22
ATOM     22  N   UNL d   1      25.400 -16.126  -2.767  0.00  0.00    -0.338 N 
ATOM     23  H   UNL d   1      25.572 -16.778  -3.521  0.00  0.00     0.167 HD
BRANCH  22  24
ATOM     24  C   UNL d   1      24.971 -16.638  -1.534  0.00  0.00     0.072 A 
ATOM     25  C   UNL d   1      23.605 -16.680  -1.233  0.00  0.00     0.033 A 
ATOM     26  C   UNL d   1      23.143 -17.484  -0.182  0.00  0.00     0.002 A 
ATOM     27  C   UNL d   1      24.041 -18.223   0.592  0.00  0.00     0.003 A 
ATOM     28  C   UNL d   1      25.407 -18.132   0.344  0.00  0.00     0.044 A 
ATOM     29  C   UNL d   1      25.861 -17.331  -0.696  0.00  0.00     0.143 A 
ATOM     30  F   UNL d   1      27.167 -17.378  -1.012  0.00  0.00    -0.204 F 
ENDBRANCH  22  24
ENDBRANCH   6  22
TORSDOF 8
ENDMDL
MODEL 9
REMARK VINA RESULT:    -5.534      3.401     10.183
REMARK INTER + INTRA:         -10.566
REMARK INTER:                  -7.921
REMARK INTRA:                  -2.645
REMARK CONF_INDEPENDENT:        2.386
REMARK UNBOUND:                -2.645
REMARK  8 active torsions:
REMARK  status: ('A' for Active; 'I' for Inactive)
REMARK    1  A    between atoms: O_2  and  C_3 
REMARK    2  A    between atoms: C_3  and  C_4 
REMARK    3  A    between atoms: C_4  and  C_5 
REMARK    4  A    between atoms: C_5  and  N_6 
REMARK       I    between atoms: N_6  and  C_7 
REMARK       I    between atoms: C_7  and  N_9 
REMARK    5  A    between atoms: N_9  and  N_10 
REMARK       I    between atoms: N_10  and  C_11 
REMARK    6  A    between atoms: C_11  and  C_13 
REMARK    7  A    between atoms: C_18  and  N_19 
REMARK    8  A    between atoms: N_19  and  C_20 
ROOT
ATOM      1  C   UNL d   1      28.738 -13.077   6.353  0.00  0.00     0.079 A 
ATOM      2  C   UNL d   1      28.756 -11.772   5.848  0.00  0.00     0.022 A 
ATOM      3  C   UNL d   1      28.843 -10.687   6.715  0.00  0.00     0.020 A 
ATOM      4  C   UNL d   1      28.917 -10.938   8.072  0.00  0.00     0.119 A 
ATOM      5  N   UNL d   1      28.934 -12.184   8.601  0.00  0.00    -0.242 NA
ATOM      6  C   UNL d   1      28.853 -13.254   7.755  0.00  0.00     0.143 A 
ENDROOT
BRANCH   1   7
ATOM      7  C   UNL d   1      28.417 -14.165   5.369  0.00  0.00     0.274 C 
ATOM      8  N   UNL d   1      28.161 -13.801   4.047  0.00  0.00    -0.262 N 
ATOM      9  H   UNL d   1      28.186 -12.840   3.708  0.00  0.00     0.190 HD
ATOM     10  O   UNL d   1      28.362 -15.339   5.744  0.00  0.00    -0.266 OA
BRANCH   8  11
ATOM     11  N   UNL d   1      28.073 -14.820   3.032  0.00  0.00    -0.249 N 
ATOM     12  C   UNL d   1      27.780 -14.457   1.729  0.00  0.00     0.334 C 
ATOM     13  N   UNL d   1      27.762 -15.496   0.814  0.00  0.00    -0.342 N 
ATOM     14  O   UNL d   1      27.527 -13.292   1.416  0.00  0.00    -0.246 OA
ATOM     15  H   UNL d   1      27.986 -16.435   1.110  0.00  0.00     0.164 HD
ATOM     16  H   UNL d   1      28.417 -15.739   3.303  0.00  0.00     0.192 HD
BRANCH  13  17
ATOM     17  C   UNL d   1      27.343 -15.268  -0.573  0.00  0.00     0.126 C 
BRANCH  17  18
ATOM     18  C   UNL d   1      25.870 -15.583  -0.865  0.00  0.00     0.046 C 
BRANCH  18  19
ATOM     19  C   UNL d   1      25.559 -17.066  -0.627  0.00  0.00     0.168 C 
BRANCH  19  20
ATOM     20  O   UNL d   1      26.132 -17.490   0.614  0.00  0.00    -0.396 OA
ATOM     21  C   UNL d   1      27.024 -18.587   0.421  0.00  0.00     0.201 C 
ENDBRANCH  19  20
ENDBRANCH  18  19
ENDBRANCH  17  18
ENDBRANCH  13  17
ENDBRANCH   8  11
ENDBRANCH   1   7
BRANCH   6  22
ATOM     22  N   UNL d   1      28.903 -14.494   8.408  0.00  0.00    -0.338 N 
ATOM     23  H   UNL d   1      28.546 -15.262   7.855  0.00  0.00     0.167 HD
BRANCH  22  24
ATOM     24  C   UNL d   1      29.394 -14.773   9.690  0.00  0.00     0.072 A 
ATOM     25  C   UNL d   1      30.717 -15.201   9.853  0.00  0.00     0.033 A 
ATOM     26  C   UNL d   1      31.319 -15.152  11.118  0.00  0.00     0.002 A 
ATOM     27  C   UNL d   1      30.598 -14.708  12.230  0.00  0.00     0.003 A 
ATOM     28  C   UNL d   1      29.262 -14.346  12.089  0.00  0.00     0.044 A 
ATOM     29  C   UNL d   1      28.668 -14.400  10.834  0.00  0.00     0.143 A 
ATOM     30  F   UNL d   1      27.426 -13.903  10.696  0.00  0.00    -0.204 F 
ENDBRANCH  22  24
ENDBRANCH   6  22
TORSDOF 8
ENDMDL
