MODEL 1
REMARK VINA RESULT:   -11.122      0.000      0.000
REMARK INTER + INTRA:         -15.758
REMARK INTER:                 -13.508
REMARK INTRA:                  -2.250
REMARK CONF_INDEPENDENT:        2.386
REMARK UNBOUND:                -2.250
REMARK  8 active torsions:
REMARK  status: ('A' for Active; 'I' for Inactive)
REMARK    1  A    between atoms: O_2  and  C_3 
REMARK    2  A    between atoms: C_8  and  C_9 
REMARK       I    between atoms: C_9  and  N_11 
REMARK    3  A    between atoms: N_11  and  C_12 
REMARK    4  A    between atoms: C_12  and  C_13 
REMARK    5  A    between atoms: N_20  and  N_21 
REMARK       I    between atoms: N_21  and  C_22 
REMARK    6  A    between atoms: C_22  and  C_24 
REMARK    7  A    between atoms: C_29  and  N_30 
REMARK    8  A    between atoms: N_30  and  C_31 
ROOT
ATOM      1  C   UNL d   1      26.335  -8.215   2.080  0.00  0.00     0.070 C 
ATOM      2  C   UNL d   1      27.023  -7.905   3.254  0.00  0.00     0.038 C 
ATOM      3  C   UNL d   1      27.341  -8.914   4.167  0.00  0.00     0.017 C 
ATOM      4  C   UNL d   1      27.214 -10.248   3.790  0.00  0.00    -0.001 C 
ATOM      5  C   UNL d   1      27.784 -11.329   4.586  0.00  0.00     0.035 C 
ATOM      6  C   UNL d   1      27.810 -12.601   4.137  0.00  0.00     0.085 C 
ATOM      7  C   UNL d   1      27.204 -12.836   2.808  0.00  0.00     0.178 C 
ATOM      8  N   UNL d   1      27.252 -13.940   2.169  0.00  0.00    -0.276 N 
ATOM      9  O   UNL d   1      26.517 -11.864   2.120  0.00  0.00    -0.291 OA
ATOM     10  C   UNL d   1      26.590 -10.541   2.583  0.00  0.00     0.090 C 
ATOM     11  C   UNL d   1      26.062  -9.544   1.768  0.00  0.00     0.074 C 
ATOM     12  H   UNL d   1      27.790 -14.704   2.574  0.00  0.00     0.189 HD
ENDROOT
BRANCH   6  13
ATOM     13  C   UNL d   1      28.525 -13.614   5.027  0.00  0.00     0.256 C 
ATOM     14  O   UNL d   1      28.641 -14.781   4.665  0.00  0.00    -0.268 OA
ATOM     15  N   UNL d   1      29.033 -13.191   6.239  0.00  0.00    -0.352 N 
ATOM     16  H   UNL d   1      29.390 -12.276   6.389  0.00  0.00     0.163 HD
BRANCH  15  17
ATOM     17  C   UNL d   1      29.739 -14.075   7.188  0.00  0.00     0.161 C 
BRANCH  17  18
ATOM     18  C   UNL d   1      29.181 -13.948   8.609  0.00  0.00    -0.041 C 
ATOM     19  C   UNL d   1      29.398 -14.926   9.587  0.00  0.00     0.009 C 
ATOM     20  C   UNL d   1      28.830 -14.803  10.874  0.00  0.00     0.001 C 
ATOM     21  C   UNL d   1      28.183 -13.634  11.269  0.00  0.00     0.000 C 
ATOM     22  C   UNL d   1      28.081 -12.601  10.362  0.00  0.00     0.001 C 
ATOM     23  C   UNL d   1      28.484 -12.810   9.034  0.00  0.00     0.009 C 
ENDBRANCH  17  18
ENDBRANCH  15  17
ENDBRANCH   6  13
BRANCH   8  24
ATOM     24  N   UNL d   1      26.621 -14.283   0.980  0.00  0.00    -0.264 N 
ATOM     25  C   UNL d   1      27.100 -13.645  -0.148  0.00  0.00     0.272 C 
ATOM     26  O   UNL d   1      27.883 -12.693  -0.077  0.00  0.00    -0.266 OA
ATOM     27  H   UNL d   1      25.923 -15.023   0.967  0.00  0.00     0.190 HD
BRANCH  25  28
ATOM     28  C   UNL d   1      26.629 -14.104  -1.433  0.00  0.00     0.060 C 
ATOM     29  C   UNL d   1      26.890 -13.163  -2.429  0.00  0.00     0.019 C 
ATOM     30  C   UNL d   1      26.303 -13.317  -3.660  0.00  0.00     0.001 C 
ATOM     31  C   UNL d   1      25.624 -14.497  -3.940  0.00  0.00     0.002 C 
ATOM     32  C   UNL d   1      25.541 -15.532  -2.993  0.00  0.00     0.030 C 
ATOM     33  C   UNL d   1      25.981 -15.337  -1.678  0.00  0.00     0.048 C 
BRANCH  33  34
ATOM     34  N   UNL d   1      25.718 -16.344  -0.721  0.00  0.00    -0.355 N 
ATOM     35  H   UNL d   1      26.500 -16.650  -0.144  0.00  0.00     0.166 HD
BRANCH  34  36
ATOM     36  C   UNL d   1      24.560 -17.116  -0.518  0.00  0.00     0.032 C 
ATOM     37  C   UNL d   1      24.655 -18.508  -0.389  0.00  0.00     0.029 C 
ATOM     38  C   UNL d   1      23.534 -19.318  -0.516  0.00  0.00     0.002 C 
ATOM     39  C   UNL d   1      22.283 -18.733  -0.555  0.00  0.00     0.000 C 
ATOM     40  C   UNL d   1      22.158 -17.346  -0.522  0.00  0.00     0.002 C 
ATOM     41  C   UNL d   1      23.293 -16.535  -0.572  0.00  0.00     0.029 C 
ENDBRANCH  34  36
ENDBRANCH  33  34
ENDBRANCH  25  28
ENDBRANCH   8  24
BRANCH   1  42
ATOM     42  O   UNL d   1      25.815  -7.276   1.236  0.00  0.00    -0.356 OA
ATOM     43  C   UNL d   1      26.754  -6.309   0.772  0.00  0.00     0.210 C 
ENDBRANCH   1  42
TORSDOF 8
ENDMDL
MODEL 2
REMARK VINA RESULT:   -10.432      2.959      6.664
REMARK INTER + INTRA:         -16.753
REMARK INTER:                 -12.818
REMARK INTRA:                  -3.935
REMARK CONF_INDEPENDENT:        2.386
REMARK UNBOUND:                -3.935
REMARK  8 active torsions:
REMARK  status: ('A' for Active; 'I' for Inactive)
REMARK    1  A    between atoms: O_2  and  C_3 
REMARK    2  A    between atoms: C_8  and  C_9 
REMARK       I    between atoms: C_9  and  N_11 
REMARK    3  A    between atoms: N_11  and  C_12 
REMARK    4  A    between atoms: C_12  and  C_13 
REMARK    5  A    between atoms: N_20  and  N_21 
REMARK       I    between atoms: N_21  and  C_22 
REMARK    6  A    between atoms: C_22  and  C_24 
REMARK    7  A    between atoms: C_29  and  N_30 
REMARK    8  A    between atoms: N_30  and  C_31 
ROOT
ATOM      1  C   UNL d   1      23.862 -18.163  -1.287  0.00  0.00     0.070 C 
ATOM      2  C   UNL d   1      24.398 -18.662  -0.099  0.00  0.00     0.038 C 
ATOM      3  C   UNL d   1      25.548 -18.086   0.448  0.00  0.00     0.017 C 
ATOM      4  C   UNL d   1      26.001 -16.862  -0.036  0.00  0.00    -0.001 C 
ATOM      5  C   UNL d   1      27.017 -16.086   0.667  0.00  0.00     0.035 C 
ATOM      6  C   UNL d   1      27.330 -14.828   0.293  0.00  0.00     0.085 C 
ATOM      7  C   UNL d   1      26.606 -14.296  -0.882  0.00  0.00     0.178 C 
ATOM      8  N   UNL d   1      26.675 -13.092  -1.298  0.00  0.00    -0.276 N 
ATOM      9  O   UNL d   1      25.771 -15.069  -1.654  0.00  0.00    -0.291 OA
ATOM     10  C   UNL d   1      25.409 -16.339  -1.180  0.00  0.00     0.090 C 
ATOM     11  C   UNL d   1      24.410 -17.022  -1.867  0.00  0.00     0.074 C 
ATOM     12  H   UNL d   1      27.226 -12.429  -0.755  0.00  0.00     0.189 HD
ENDROOT
BRANCH   6  13
ATOM     13  C   UNL d   1      28.337 -14.096   1.177  0.00  0.00     0.256 C 
ATOM     14  O   UNL d   1      28.542 -12.897   1.015  0.00  0.00    -0.268 OA
ATOM     15  N   UNL d   1      29.007 -14.808   2.152  0.00  0.00    -0.352 N 
ATOM     16  H   UNL d   1      28.603 -15.575   2.637  0.00  0.00     0.163 HD
BRANCH  15  17
ATOM     17  C   UNL d   1      30.005 -14.214   3.063  0.00  0.00     0.161 C 
BRANCH  17  18
ATOM     18  C   UNL d   1      29.383 -13.804   4.402  0.00  0.00    -0.041 C 
ATOM     19  C   UNL d   1      29.777 -14.379   5.616  0.00  0.00     0.009 C 
ATOM     20  C   UNL d   1      29.151 -14.014   6.827  0.00  0.00     0.001 C 
ATOM     21  C   UNL d   1      28.246 -12.956   6.884  0.00  0.00     0.000 C 
ATOM     22  C   UNL d   1      27.949 -12.284   5.717  0.00  0.00     0.001 C 
ATOM     23  C   UNL d   1      28.435 -12.777   4.497  0.00  0.00     0.009 C 
ENDBRANCH  17  18
ENDBRANCH  15  17
ENDBRANCH   6  13
BRANCH   8  24
ATOM     24  N   UNL d   1      26.126 -12.538  -2.448  0.00  0.00    -0.264 N 
ATOM     25  C   UNL d   1      26.657 -11.320  -2.829  0.00  0.00     0.272 C 
ATOM     26  O   UNL d   1      27.411 -10.679  -2.092  0.00  0.00    -0.266 OA
ATOM     27  H   UNL d   1      25.447 -13.064  -2.994  0.00  0.00     0.190 HD
BRANCH  25  28
ATOM     28  C   UNL d   1      26.275 -10.793  -4.117  0.00  0.00     0.060 C 
ATOM     29  C   UNL d   1      26.312  -9.399  -4.119  0.00  0.00     0.019 C 
ATOM     30  C   UNL d   1      25.753  -8.720  -5.173  0.00  0.00     0.001 C 
ATOM     31  C   UNL d   1      25.340  -9.434  -6.292  0.00  0.00     0.002 C 
ATOM     32  C   UNL d   1      25.496 -10.829  -6.364  0.00  0.00     0.030 C 
ATOM     33  C   UNL d   1      25.904 -11.563  -5.244  0.00  0.00     0.048 C 
BRANCH  33  34
ATOM     34  N   UNL d   1      25.879 -12.975  -5.315  0.00  0.00    -0.355 N 
ATOM     35  H   UNL d   1      24.964 -13.423  -5.289  0.00  0.00     0.166 HD
BRANCH  34  36
ATOM     36  C   UNL d   1      26.937 -13.900  -5.275  0.00  0.00     0.032 C 
ATOM     37  C   UNL d   1      26.985 -14.872  -4.268  0.00  0.00     0.029 C 
ATOM     38  C   UNL d   1      28.153 -15.574  -4.004  0.00  0.00     0.002 C 
ATOM     39  C   UNL d   1      29.215 -15.467  -4.882  0.00  0.00     0.000 C 
ATOM     40  C   UNL d   1      29.127 -14.623  -5.986  0.00  0.00     0.002 C 
ATOM     41  C   UNL d   1      28.019 -13.789  -6.149  0.00  0.00     0.029 C 
ENDBRANCH  34  36
ENDBRANCH  33  34
ENDBRANCH  25  28
ENDBRANCH   8  24
BRANCH   1  42
ATOM     42  O   UNL d   1      22.869 -18.782  -1.989  0.00  0.00    -0.356 OA
ATOM     43  C   UNL d   1      21.649 -18.950  -1.270  0.00  0.00     0.210 C 
ENDBRANCH   1  42
TORSDOF 8
ENDMDL
MODEL 3
REMARK VINA RESULT:   -10.393      6.394      9.934
REMARK INTER + INTRA:         -15.749
REMARK INTER:                 -12.779
REMARK INTRA:                  -2.970
REMARK CONF_INDEPENDENT:        2.386
REMARK UNBOUND:                -2.970
REMARK  8 active torsions:
REMARK  status: ('A' for Active; 'I' for Inactive)
REMARK    1  A    between atoms: O_2  and  C_3 
REMARK    2  A    between atoms: C_8  and  C_9 
REMARK       I    between atoms: C_9  and  N_11 
REMARK    3  A    between atoms: N_11  and  C_12 
REMARK    4  A    between atoms: C_12  and  C_13 
REMARK    5  A    between atoms: N_20  and  N_21 
REMARK       I    between atoms: N_21  and  C_22 
REMARK    6  A    between atoms: C_22  and  C_24 
REMARK    7  A    between atoms: C_29  and  N_30 
REMARK    8  A    between atoms: N_30  and  C_31 
ROOT
ATOM      1  C   UNL d   1      31.168 -18.572  -7.747  0.00  0.00     0.070 C 
ATOM      2  C   UNL d   1      31.147 -19.676  -6.893  0.00  0.00     0.038 C 
ATOM      3  C   UNL d   1      30.968 -19.496  -5.519  0.00  0.00     0.017 C 
ATOM      4  C   UNL d   1      30.548 -18.260  -5.036  0.00  0.00    -0.001 C 
ATOM      5  C   UNL d   1      30.083 -18.089  -3.664  0.00  0.00     0.035 C 
ATOM      6  C   UNL d   1      29.518 -16.937  -3.247  0.00  0.00     0.085 C 
ATOM      7  C   UNL d   1      29.424 -15.855  -4.251  0.00  0.00     0.178 C 
ATOM      8  N   UNL d   1      28.809 -14.750  -4.079  0.00  0.00    -0.276 N 
ATOM      9  O   UNL d   1      30.006 -15.940  -5.495  0.00  0.00    -0.291 OA
ATOM     10  C   UNL d   1      30.505 -17.183  -5.914  0.00  0.00     0.090 C 
ATOM     11  C   UNL d   1      30.903 -17.302  -7.242  0.00  0.00     0.074 C 
ATOM     12  H   UNL d   1      28.297 -14.619  -3.208  0.00  0.00     0.189 HD
ENDROOT
BRANCH   6  13
ATOM     13  C   UNL d   1      28.985 -16.929  -1.817  0.00  0.00     0.256 C 
ATOM     14  O   UNL d   1      29.763 -16.917  -0.868  0.00  0.00    -0.268 OA
ATOM     15  N   UNL d   1      27.618 -16.938  -1.617  0.00  0.00    -0.352 N 
ATOM     16  H   UNL d   1      26.977 -16.500  -2.236  0.00  0.00     0.163 HD
BRANCH  15  17
ATOM     17  C   UNL d   1      26.983 -16.937  -0.285  0.00  0.00     0.161 C 
BRANCH  17  18
ATOM     18  C   UNL d   1      25.494 -17.294  -0.362  0.00  0.00    -0.041 C 
ATOM     19  C   UNL d   1      25.025 -18.594  -0.145  0.00  0.00     0.009 C 
ATOM     20  C   UNL d   1      23.653 -18.900  -0.272  0.00  0.00     0.001 C 
ATOM     21  C   UNL d   1      22.702 -17.897  -0.444  0.00  0.00     0.000 C 
ATOM     22  C   UNL d   1      23.134 -16.589  -0.520  0.00  0.00     0.001 C 
ATOM     23  C   UNL d   1      24.509 -16.322  -0.581  0.00  0.00     0.009 C 
ENDBRANCH  17  18
ENDBRANCH  15  17
ENDBRANCH   6  13
BRANCH   8  24
ATOM     24  N   UNL d   1      28.765 -13.641  -4.915  0.00  0.00    -0.264 N 
ATOM     25  C   UNL d   1      27.919 -13.754  -6.002  0.00  0.00     0.272 C 
ATOM     26  O   UNL d   1      27.405 -14.829  -6.320  0.00  0.00    -0.266 OA
ATOM     27  H   UNL d   1      29.263 -12.791  -4.661  0.00  0.00     0.190 HD
BRANCH  25  28
ATOM     28  C   UNL d   1      27.675 -12.570  -6.790  0.00  0.00     0.060 C 
ATOM     29  C   UNL d   1      28.588 -12.469  -7.840  0.00  0.00     0.019 C 
ATOM     30  C   UNL d   1      28.663 -11.294  -8.545  0.00  0.00     0.001 C 
ATOM     31  C   UNL d   1      27.705 -10.311  -8.323  0.00  0.00     0.002 C 
ATOM     32  C   UNL d   1      26.661 -10.507  -7.403  0.00  0.00     0.030 C 
ATOM     33  C   UNL d   1      26.656 -11.618  -6.551  0.00  0.00     0.048 C 
BRANCH  33  34
ATOM     34  N   UNL d   1      25.682 -11.681  -5.527  0.00  0.00    -0.355 N 
ATOM     35  H   UNL d   1      24.910 -11.018  -5.583  0.00  0.00     0.166 HD
BRANCH  34  36
ATOM     36  C   UNL d   1      25.670 -12.430  -4.338  0.00  0.00     0.032 C 
ATOM     37  C   UNL d   1      26.432 -12.016  -3.237  0.00  0.00     0.029 C 
ATOM     38  C   UNL d   1      26.702 -12.881  -2.185  0.00  0.00     0.002 C 
ATOM     39  C   UNL d   1      26.036 -14.089  -2.121  0.00  0.00     0.000 C 
ATOM     40  C   UNL d   1      25.146 -14.452  -3.130  0.00  0.00     0.002 C 
ATOM     41  C   UNL d   1      25.013 -13.658  -4.270  0.00  0.00     0.029 C 
ENDBRANCH  34  36
ENDBRANCH  33  34
ENDBRANCH  25  28
ENDBRANCH   8  24
BRANCH   1  42
ATOM     42  O   UNL d   1      31.531 -18.637  -9.061  0.00  0.00    -0.356 OA
ATOM     43  C   UNL d   1      31.027 -19.773  -9.761  0.00  0.00     0.210 C 
ENDBRANCH   1  42
TORSDOF 8
ENDMDL
MODEL 4
REMARK VINA RESULT:   -10.044      5.669      8.302
REMARK INTER + INTRA:         -16.548
REMARK INTER:                 -12.430
REMARK INTRA:                  -4.118
REMARK CONF_INDEPENDENT:        2.386
REMARK UNBOUND:                -4.118
REMARK  8 active torsions:
REMARK  status: ('A' for Active; 'I' for Inactive)
REMARK    1  A    between atoms: O_2  and  C_3 
REMARK    2  A    between atoms: C_8  and  C_9 
REMARK       I    between atoms: C_9  and  N_11 
REMARK    3  A    between atoms: N_11  and  C_12 
REMARK    4  A    between atoms: C_12  and  C_13 
REMARK    5  A    between atoms: N_20  and  N_21 
REMARK       I    between atoms: N_21  and  C_22 
REMARK    6  A    between atoms: C_22  and  C_24 
REMARK    7  A    between atoms: C_29  and  N_30 
REMARK    8  A    between atoms: N_30  and  C_31 
ROOT
ATOM      1  C   UNL d   1      22.743 -17.522  -0.700  0.00  0.00     0.070 C 
ATOM      2  C   UNL d   1      23.484 -18.548  -0.113  0.00  0.00     0.038 C 
ATOM      3  C   UNL d   1      24.880 -18.537  -0.191  0.00  0.00     0.017 C 
ATOM      4  C   UNL d   1      25.536 -17.384  -0.612  0.00  0.00    -0.001 C 
ATOM      5  C   UNL d   1      26.977 -17.218  -0.452  0.00  0.00     0.035 C 
ATOM      6  C   UNL d   1      27.585 -16.040  -0.701  0.00  0.00     0.085 C 
ATOM      7  C   UNL d   1      26.713 -14.941  -1.169  0.00  0.00     0.178 C 
ATOM      8  N   UNL d   1      27.085 -13.731  -1.329  0.00  0.00    -0.276 N 
ATOM      9  O   UNL d   1      25.387 -15.125  -1.484  0.00  0.00    -0.291 OA
ATOM     10  C   UNL d   1      24.779 -16.339  -1.129  0.00  0.00     0.090 C 
ATOM     11  C   UNL d   1      23.398 -16.432  -1.268  0.00  0.00     0.074 C 
ATOM     12  H   UNL d   1      28.039 -13.485  -1.066  0.00  0.00     0.189 HD
ENDROOT
BRANCH   6  13
ATOM     13  C   UNL d   1      29.080 -15.978  -0.396  0.00  0.00     0.256 C 
ATOM     14  O   UNL d   1      29.655 -14.895  -0.346  0.00  0.00    -0.268 OA
ATOM     15  N   UNL d   1      29.764 -17.159  -0.182  0.00  0.00    -0.352 N 
ATOM     16  H   UNL d   1      29.350 -17.956   0.240  0.00  0.00     0.163 HD
BRANCH  15  17
ATOM     17  C   UNL d   1      31.208 -17.228   0.114  0.00  0.00     0.161 C 
BRANCH  17  18
ATOM     18  C   UNL d   1      31.777 -18.627  -0.145  0.00  0.00    -0.041 C 
ATOM     19  C   UNL d   1      32.899 -19.116   0.535  0.00  0.00     0.009 C 
ATOM     20  C   UNL d   1      33.428 -20.390   0.238  0.00  0.00     0.001 C 
ATOM     21  C   UNL d   1      32.759 -21.271  -0.610  0.00  0.00     0.000 C 
ATOM     22  C   UNL d   1      31.574 -20.859  -1.182  0.00  0.00     0.001 C 
ATOM     23  C   UNL d   1      31.162 -19.527  -1.026  0.00  0.00     0.009 C 
ENDBRANCH  17  18
ENDBRANCH  15  17
ENDBRANCH   6  13
BRANCH   8  24
ATOM     24  N   UNL d   1      26.373 -12.667  -1.867  0.00  0.00    -0.264 N 
ATOM     25  C   UNL d   1      27.127 -11.554  -2.190  0.00  0.00     0.272 C 
ATOM     26  O   UNL d   1      28.302 -11.438  -1.835  0.00  0.00    -0.266 OA
ATOM     27  H   UNL d   1      25.383 -12.770  -2.080  0.00  0.00     0.190 HD
BRANCH  25  28
ATOM     28  C   UNL d   1      26.484 -10.499  -2.936  0.00  0.00     0.060 C 
ATOM     29  C   UNL d   1      26.664  -9.264  -2.314  0.00  0.00     0.019 C 
ATOM     30  C   UNL d   1      25.927  -8.189  -2.745  0.00  0.00     0.001 C 
ATOM     31  C   UNL d   1      25.168  -8.312  -3.903  0.00  0.00     0.002 C 
ATOM     32  C   UNL d   1      25.155  -9.508  -4.641  0.00  0.00     0.030 C 
ATOM     33  C   UNL d   1      25.757 -10.667  -4.139  0.00  0.00     0.048 C 
BRANCH  33  34
ATOM     34  N   UNL d   1      25.568 -11.884  -4.834  0.00  0.00    -0.355 N 
ATOM     35  H   UNL d   1      24.748 -11.949  -5.436  0.00  0.00     0.166 HD
BRANCH  34  36
ATOM     36  C   UNL d   1      26.260 -13.103  -4.725  0.00  0.00     0.032 C 
ATOM     37  C   UNL d   1      27.632 -13.160  -5.001  0.00  0.00     0.029 C 
ATOM     38  C   UNL d   1      28.269 -14.374  -5.222  0.00  0.00     0.002 C 
ATOM     39  C   UNL d   1      27.590 -15.548  -4.956  0.00  0.00     0.000 C 
ATOM     40  C   UNL d   1      26.267 -15.507  -4.523  0.00  0.00     0.002 C 
ATOM     41  C   UNL d   1      25.579 -14.294  -4.472  0.00  0.00     0.029 C 
ENDBRANCH  34  36
ENDBRANCH  33  34
ENDBRANCH  25  28
ENDBRANCH   8  24
BRANCH   1  42
ATOM     42  O   UNL d   1      21.385 -17.554  -0.844  0.00  0.00    -0.356 OA
ATOM     43  C   UNL d   1      20.825 -18.864  -0.896  0.00  0.00     0.210 C 
ENDBRANCH   1  42
TORSDOF 8
ENDMDL
MODEL 5
REMARK VINA RESULT:    -9.930      2.986      7.594
REMARK INTER + INTRA:         -15.490
REMARK INTER:                 -12.316
REMARK INTRA:                  -3.174
REMARK CONF_INDEPENDENT:        2.386
REMARK UNBOUND:                -3.174
REMARK  8 active torsions:
REMARK  status: ('A' for Active; 'I' for Inactive)
REMARK    1  A    between atoms: O_2  and  C_3 
REMARK    2  A    between atoms: C_8  and  C_9 
REMARK       I    between atoms: C_9  and  N_11 
REMARK    3  A    between atoms: N_11  and  C_12 
REMARK    4  A    between atoms: C_12  and  C_13 
REMARK    5  A    between atoms: N_20  and  N_21 
REMARK       I    between atoms: N_21  and  C_22 
REMARK    6  A    between atoms: C_22  and  C_24 
REMARK    7  A    between atoms: C_29  and  N_30 
REMARK    8  A    between atoms: N_30  and  C_31 
ROOT
ATOM      1  C   UNL d   1      23.793 -18.211  -1.273  0.00  0.00     0.070 C 
ATOM      2  C   UNL d   1      24.329 -18.681  -0.074  0.00  0.00     0.038 C 
ATOM      3  C   UNL d   1      25.487 -18.102   0.451  0.00  0.00     0.017 C 
ATOM      4  C   UNL d   1      25.950 -16.897  -0.069  0.00  0.00    -0.001 C 
ATOM      5  C   UNL d   1      26.977 -16.112   0.607  0.00  0.00     0.035 C 
ATOM      6  C   UNL d   1      27.302 -14.869   0.196  0.00  0.00     0.085 C 
ATOM      7  C   UNL d   1      26.578 -14.363  -0.991  0.00  0.00     0.178 C 
ATOM      8  N   UNL d   1      26.658 -13.172  -1.442  0.00  0.00    -0.276 N 
ATOM      9  O   UNL d   1      25.732 -15.149  -1.737  0.00  0.00    -0.291 OA
ATOM     10  C   UNL d   1      25.359 -16.401  -1.226  0.00  0.00     0.090 C 
ATOM     11  C   UNL d   1      24.350 -17.093  -1.889  0.00  0.00     0.074 C 
ATOM     12  H   UNL d   1      27.218 -12.500  -0.920  0.00  0.00     0.189 HD
ENDROOT
BRANCH   6  13
ATOM     13  C   UNL d   1      28.320 -14.122   1.054  0.00  0.00     0.256 C 
ATOM     14  O   UNL d   1      28.528 -12.927   0.866  0.00  0.00    -0.268 OA
ATOM     15  N   UNL d   1      28.997 -14.817   2.037  0.00  0.00    -0.352 N 
ATOM     16  H   UNL d   1      28.596 -15.572   2.542  0.00  0.00     0.163 HD
BRANCH  15  17
ATOM     17  C   UNL d   1      30.007 -14.208   2.926  0.00  0.00     0.161 C 
BRANCH  17  18
ATOM     18  C   UNL d   1      29.394 -13.740   4.250  0.00  0.00    -0.041 C 
ATOM     19  C   UNL d   1      28.567 -12.614   4.334  0.00  0.00     0.009 C 
ATOM     20  C   UNL d   1      28.058 -12.180   5.577  0.00  0.00     0.001 C 
ATOM     21  C   UNL d   1      28.214 -12.947   6.730  0.00  0.00     0.000 C 
ATOM     22  C   UNL d   1      28.908 -14.135   6.638  0.00  0.00     0.001 C 
ATOM     23  C   UNL d   1      29.566 -14.456   5.442  0.00  0.00     0.009 C 
ENDBRANCH  17  18
ENDBRANCH  15  17
ENDBRANCH   6  13
BRANCH   8  24
ATOM     24  N   UNL d   1      26.109 -12.645  -2.604  0.00  0.00    -0.264 N 
ATOM     25  C   UNL d   1      26.613 -11.419  -2.993  0.00  0.00     0.272 C 
ATOM     26  O   UNL d   1      27.340 -10.749  -2.254  0.00  0.00    -0.266 OA
ATOM     27  H   UNL d   1      25.452 -13.195  -3.153  0.00  0.00     0.190 HD
BRANCH  25  28
ATOM     28  C   UNL d   1      26.235 -10.916  -4.291  0.00  0.00     0.060 C 
ATOM     29  C   UNL d   1      26.713 -11.741  -5.308  0.00  0.00     0.019 C 
ATOM     30  C   UNL d   1      26.658 -11.298  -6.606  0.00  0.00     0.001 C 
ATOM     31  C   UNL d   1      25.960 -10.130  -6.891  0.00  0.00     0.002 C 
ATOM     32  C   UNL d   1      25.304  -9.409  -5.879  0.00  0.00     0.030 C 
ATOM     33  C   UNL d   1      25.483  -9.741  -4.530  0.00  0.00     0.048 C 
BRANCH  33  34
ATOM     34  N   UNL d   1      24.944  -8.882  -3.545  0.00  0.00    -0.355 N 
ATOM     35  H   UNL d   1      23.930  -8.780  -3.526  0.00  0.00     0.166 HD
BRANCH  34  36
ATOM     36  C   UNL d   1      25.594  -8.013  -2.651  0.00  0.00     0.032 C 
ATOM     37  C   UNL d   1      25.853  -8.420  -1.336  0.00  0.00     0.029 C 
ATOM     38  C   UNL d   1      26.186  -7.498  -0.353  0.00  0.00     0.002 C 
ATOM     39  C   UNL d   1      26.475  -6.198  -0.721  0.00  0.00     0.000 C 
ATOM     40  C   UNL d   1      26.379  -5.811  -2.055  0.00  0.00     0.002 C 
ATOM     41  C   UNL d   1      25.875  -6.694  -3.011  0.00  0.00     0.029 C 
ENDBRANCH  34  36
ENDBRANCH  33  34
ENDBRANCH  25  28
ENDBRANCH   8  24
BRANCH   1  42
ATOM     42  O   UNL d   1      22.790 -18.840  -1.954  0.00  0.00    -0.356 OA
ATOM     43  C   UNL d   1      21.563 -18.949  -1.236  0.00  0.00     0.210 C 
ENDBRANCH   1  42
TORSDOF 8
ENDMDL
MODEL 6
REMARK VINA RESULT:    -9.638      5.672      8.577
REMARK INTER + INTRA:         -16.470
REMARK INTER:                 -12.024
REMARK INTRA:                  -4.446
REMARK CONF_INDEPENDENT:        2.386
REMARK UNBOUND:                -4.446
REMARK  8 active torsions:
REMARK  status: ('A' for Active; 'I' for Inactive)
REMARK    1  A    between atoms: O_2  and  C_3 
REMARK    2  A    between atoms: C_8  and  C_9 
REMARK       I    between atoms: C_9  and  N_11 
REMARK    3  A    between atoms: N_11  and  C_12 
REMARK    4  A    between atoms: C_12  and  C_13 
REMARK    5  A    between atoms: N_20  and  N_21 
REMARK       I    between atoms: N_21  and  C_22 
REMARK    6  A    between atoms: C_22  and  C_24 
REMARK    7  A    between atoms: C_29  and  N_30 
REMARK    8  A    between atoms: N_30  and  C_31 
ROOT
ATOM      1  C   UNL d   1      22.608 -17.541  -0.690  0.00  0.00     0.070 C 
ATOM      2  C   UNL d   1      23.333 -18.568  -0.084  0.00  0.00     0.038 C 
ATOM      3  C   UNL d   1      24.729 -18.576  -0.154  0.00  0.00     0.017 C 
ATOM      4  C   UNL d   1      25.403 -17.439  -0.587  0.00  0.00    -0.001 C 
ATOM      5  C   UNL d   1      26.844 -17.289  -0.421  0.00  0.00     0.035 C 
ATOM      6  C   UNL d   1      27.469 -16.123  -0.684  0.00  0.00     0.085 C 
ATOM      7  C   UNL d   1      26.615 -15.019  -1.173  0.00  0.00     0.178 C 
ATOM      8  N   UNL d   1      27.004 -13.817  -1.347  0.00  0.00    -0.276 N 
ATOM      9  O   UNL d   1      25.288 -15.190  -1.492  0.00  0.00    -0.291 OA
ATOM     10  C   UNL d   1      24.663 -16.391  -1.123  0.00  0.00     0.090 C 
ATOM     11  C   UNL d   1      23.281 -16.468  -1.269  0.00  0.00     0.074 C 
ATOM     12  H   UNL d   1      27.959 -13.580  -1.082  0.00  0.00     0.189 HD
ENDROOT
BRANCH   6  13
ATOM     13  C   UNL d   1      28.963 -16.076  -0.371  0.00  0.00     0.256 C 
ATOM     14  O   UNL d   1      29.545 -14.998  -0.298  0.00  0.00    -0.268 OA
ATOM     15  N   UNL d   1      29.639 -17.265  -0.176  0.00  0.00    -0.352 N 
ATOM     16  H   UNL d   1      29.218 -18.067   0.230  0.00  0.00     0.163 HD
BRANCH  15  17
ATOM     17  C   UNL d   1      31.081 -17.349   0.126  0.00  0.00     0.161 C 
BRANCH  17  18
ATOM     18  C   UNL d   1      31.925 -17.466  -1.148  0.00  0.00    -0.041 C 
ATOM     19  C   UNL d   1      33.321 -17.374  -1.130  0.00  0.00     0.009 C 
ATOM     20  C   UNL d   1      34.067 -17.437  -2.327  0.00  0.00     0.001 C 
ATOM     21  C   UNL d   1      33.462 -17.763  -3.539  0.00  0.00     0.000 C 
ATOM     22  C   UNL d   1      32.103 -17.997  -3.552  0.00  0.00     0.001 C 
ATOM     23  C   UNL d   1      31.351 -17.746  -2.395  0.00  0.00     0.009 C 
ENDBRANCH  17  18
ENDBRANCH  15  17
ENDBRANCH   6  13
BRANCH   8  24
ATOM     24  N   UNL d   1      26.309 -12.751  -1.905  0.00  0.00    -0.264 N 
ATOM     25  C   UNL d   1      27.070 -11.635  -2.193  0.00  0.00     0.272 C 
ATOM     26  O   UNL d   1      28.232 -11.517  -1.793  0.00  0.00    -0.266 OA
ATOM     27  H   UNL d   1      25.328 -12.856  -2.155  0.00  0.00     0.190 HD
BRANCH  25  28
ATOM     28  C   UNL d   1      26.452 -10.577  -2.956  0.00  0.00     0.060 C 
ATOM     29  C   UNL d   1      26.648  -9.338  -2.345  0.00  0.00     0.019 C 
ATOM     30  C   UNL d   1      25.933  -8.255  -2.794  0.00  0.00     0.001 C 
ATOM     31  C   UNL d   1      25.183  -8.377  -3.958  0.00  0.00     0.002 C 
ATOM     32  C   UNL d   1      25.156  -9.581  -4.683  0.00  0.00     0.030 C 
ATOM     33  C   UNL d   1      25.734 -10.745  -4.164  0.00  0.00     0.048 C 
BRANCH  33  34
ATOM     34  N   UNL d   1      25.530 -11.965  -4.848  0.00  0.00    -0.355 N 
ATOM     35  H   UNL d   1      24.616 -12.109  -5.274  0.00  0.00     0.166 HD
BRANCH  34  36
ATOM     36  C   UNL d   1      26.350 -13.105  -4.924  0.00  0.00     0.032 C 
ATOM     37  C   UNL d   1      25.829 -14.370  -4.623  0.00  0.00     0.029 C 
ATOM     38  C   UNL d   1      26.665 -15.449  -4.371  0.00  0.00     0.002 C 
ATOM     39  C   UNL d   1      28.016 -15.327  -4.630  0.00  0.00     0.000 C 
ATOM     40  C   UNL d   1      28.535 -14.117  -5.087  0.00  0.00     0.002 C 
ATOM     41  C   UNL d   1      27.719 -12.988  -5.170  0.00  0.00     0.029 C 
ENDBRANCH  34  36
ENDBRANCH  33  34
ENDBRANCH  25  28
ENDBRANCH   8  24
BRANCH   1  42
ATOM     42  O   UNL d   1      21.251 -17.558  -0.841  0.00  0.00    -0.356 OA
ATOM     43  C   UNL d   1      20.676 -18.861  -0.893  0.00  0.00     0.210 C 
ENDBRANCH   1  42
TORSDOF 8
ENDMDL
MODEL 7
REMARK VINA RESULT:    -9.558      4.791      7.641
REMARK INTER + INTRA:         -16.283
REMARK INTER:                 -11.944
REMARK INTRA:                  -4.338
REMARK CONF_INDEPENDENT:        2.386
REMARK UNBOUND:                -4.338
REMARK  8 active torsions:
REMARK  status: ('A' for Active; 'I' for Inactive)
REMARK    1  A    between atoms: O_2  and  C_3 
REMARK    2  A    between atoms: C_8  and  C_9 
REMARK       I    between atoms: C_9  and  N_11 
REMARK    3  A    between atoms: N_11  and  C_12 
REMARK    4  A    between atoms: C_12  and  C_13 
REMARK    5  A    between atoms: N_20  and  N_21 
REMARK       I    between atoms: N_21  and  C_22 
REMARK    6  A    between atoms: C_22  and  C_24 
REMARK    7  A    between atoms: C_29  and  N_30 
REMARK    8  A    between atoms: N_30  and  C_31 
ROOT
ATOM      1  C   UNL d   1      22.921 -17.486  -0.588  0.00  0.00     0.070 C 
ATOM      2  C   UNL d   1      23.691 -18.502  -0.020  0.00  0.00     0.038 C 
ATOM      3  C   UNL d   1      25.081 -18.492  -0.163  0.00  0.00     0.017 C 
ATOM      4  C   UNL d   1      25.716 -17.347  -0.633  0.00  0.00    -0.001 C 
ATOM      5  C   UNL d   1      27.162 -17.177  -0.545  0.00  0.00     0.035 C 
ATOM      6  C   UNL d   1      27.756 -16.004  -0.842  0.00  0.00     0.085 C 
ATOM      7  C   UNL d   1      26.862 -14.912  -1.287  0.00  0.00     0.178 C 
ATOM      8  N   UNL d   1      27.225 -13.705  -1.484  0.00  0.00    -0.276 N 
ATOM      9  O   UNL d   1      25.523 -15.102  -1.536  0.00  0.00    -0.291 OA
ATOM     10  C   UNL d   1      24.934 -16.310  -1.132  0.00  0.00     0.090 C 
ATOM     11  C   UNL d   1      23.548 -16.406  -1.204  0.00  0.00     0.074 C 
ATOM     12  H   UNL d   1      28.190 -13.455  -1.271  0.00  0.00     0.189 HD
ENDROOT
BRANCH   6  13
ATOM     13  C   UNL d   1      29.264 -15.936  -0.609  0.00  0.00     0.256 C 
ATOM     14  O   UNL d   1      29.890 -14.925  -0.913  0.00  0.00    -0.268 OA
ATOM     15  N   UNL d   1      29.900 -17.029  -0.056  0.00  0.00    -0.352 N 
ATOM     16  H   UNL d   1      29.468 -17.632   0.604  0.00  0.00     0.163 HD
BRANCH  15  17
ATOM     17  C   UNL d   1      31.351 -17.086   0.212  0.00  0.00     0.161 C 
BRANCH  17  18
ATOM     18  C   UNL d   1      31.861 -15.798   0.867  0.00  0.00    -0.041 C 
ATOM     19  C   UNL d   1      32.957 -15.088   0.364  0.00  0.00     0.009 C 
ATOM     20  C   UNL d   1      33.433 -13.932   1.020  0.00  0.00     0.001 C 
ATOM     21  C   UNL d   1      32.733 -13.361   2.080  0.00  0.00     0.000 C 
ATOM     22  C   UNL d   1      31.569 -13.971   2.501  0.00  0.00     0.001 C 
ATOM     23  C   UNL d   1      31.213 -15.217   1.965  0.00  0.00     0.009 C 
ENDBRANCH  17  18
ENDBRANCH  15  17
ENDBRANCH   6  13
BRANCH   8  24
ATOM     24  N   UNL d   1      26.487 -12.651  -2.007  0.00  0.00    -0.264 N 
ATOM     25  C   UNL d   1      27.217 -11.524  -2.335  0.00  0.00     0.272 C 
ATOM     26  O   UNL d   1      28.396 -11.389  -1.996  0.00  0.00    -0.266 OA
ATOM     27  H   UNL d   1      25.496 -12.770  -2.205  0.00  0.00     0.190 HD
BRANCH  25  28
ATOM     28  C   UNL d   1      26.546 -10.476  -3.066  0.00  0.00     0.060 C 
ATOM     29  C   UNL d   1      26.761  -9.233  -2.472  0.00  0.00     0.019 C 
ATOM     30  C   UNL d   1      26.010  -8.160  -2.883  0.00  0.00     0.001 C 
ATOM     31  C   UNL d   1      25.198  -8.295  -4.003  0.00  0.00     0.002 C 
ATOM     32  C   UNL d   1      25.143  -9.502  -4.722  0.00  0.00     0.030 C 
ATOM     33  C   UNL d   1      25.763 -10.658  -4.231  0.00  0.00     0.048 C 
BRANCH  33  34
ATOM     34  N   UNL d   1      25.535 -11.883  -4.898  0.00  0.00    -0.355 N 
ATOM     35  H   UNL d   1      24.597 -12.042  -5.264  0.00  0.00     0.166 HD
BRANCH  34  36
ATOM     36  C   UNL d   1      26.365 -13.010  -5.024  0.00  0.00     0.032 C 
ATOM     37  C   UNL d   1      25.890 -14.279  -4.670  0.00  0.00     0.029 C 
ATOM     38  C   UNL d   1      26.762 -15.342  -4.471  0.00  0.00     0.002 C 
ATOM     39  C   UNL d   1      28.087 -15.201  -4.835  0.00  0.00     0.000 C 
ATOM     40  C   UNL d   1      28.548 -13.989  -5.344  0.00  0.00     0.002 C 
ATOM     41  C   UNL d   1      27.709 -12.874  -5.376  0.00  0.00     0.029 C 
ENDBRANCH  34  36
ENDBRANCH  33  34
ENDBRANCH  25  28
ENDBRANCH   8  24
BRANCH   1  42
ATOM     42  O   UNL d   1      21.558 -17.521  -0.667  0.00  0.00    -0.356 OA
ATOM     43  C   UNL d   1      21.010 -18.820  -0.878  0.00  0.00     0.210 C 
ENDBRANCH   1  42
TORSDOF 8
ENDMDL
MODEL 8
REMARK VINA RESULT:    -8.983      2.250      8.587
REMARK INTER + INTRA:         -15.578
REMARK INTER:                 -11.369
REMARK INTRA:                  -4.209
REMARK CONF_INDEPENDENT:        2.386
REMARK UNBOUND:                -4.209
REMARK  8 active torsions:
REMARK  status: ('A' for Active; 'I' for Inactive)
REMARK    1  A    between atoms: O_2  and  C_3 
REMARK    2  A    between atoms: C_8  and  C_9 
REMARK       I    between atoms: C_9  and  N_11 
REMARK    3  A    between atoms: N_11  and  C_12 
REMARK    4  A    between atoms: C_12  and  C_13 
REMARK    5  A    between atoms: N_20  and  N_21 
REMARK       I    between atoms: N_21  and  C_22 
REMARK    6  A    between atoms: C_22  and  C_24 
REMARK    7  A    between atoms: C_29  and  N_30 
REMARK    8  A    between atoms: N_30  and  C_31 
ROOT
ATOM      1  C   UNL d   1      28.935 -12.753   7.453  0.00  0.00     0.070 C 
ATOM      2  C   UNL d   1      29.306 -14.074   7.200  0.00  0.00     0.038 C 
ATOM      3  C   UNL d   1      28.840 -14.726   6.055  0.00  0.00     0.017 C 
ATOM      4  C   UNL d   1      28.234 -13.989   5.042  0.00  0.00    -0.001 C 
ATOM      5  C   UNL d   1      27.981 -14.559   3.723  0.00  0.00     0.035 C 
ATOM      6  C   UNL d   1      27.553 -13.798   2.695  0.00  0.00     0.085 C 
ATOM      7  C   UNL d   1      27.332 -12.365   2.989  0.00  0.00     0.178 C 
ATOM      8  N   UNL d   1      27.056 -11.475   2.118  0.00  0.00    -0.276 N 
ATOM      9  O   UNL d   1      27.405 -11.847   4.261  0.00  0.00    -0.291 OA
ATOM     10  C   UNL d   1      27.934 -12.653   5.280  0.00  0.00     0.090 C 
ATOM     11  C   UNL d   1      28.190 -12.051   6.509  0.00  0.00     0.074 C 
ATOM     12  H   UNL d   1      27.037 -11.754   1.139  0.00  0.00     0.189 HD
ENDROOT
BRANCH   6  13
ATOM     13  C   UNL d   1      27.425 -14.502   1.346  0.00  0.00     0.256 C 
ATOM     14  O   UNL d   1      27.013 -13.888   0.366  0.00  0.00    -0.268 OA
ATOM     15  N   UNL d   1      27.779 -15.834   1.256  0.00  0.00    -0.352 N 
ATOM     16  H   UNL d   1      28.504 -16.241   1.799  0.00  0.00     0.163 HD
BRANCH  15  17
ATOM     17  C   UNL d   1      27.694 -16.623   0.011  0.00  0.00     0.161 C 
BRANCH  17  18
ATOM     18  C   UNL d   1      26.253 -17.033  -0.308  0.00  0.00    -0.041 C 
ATOM     19  C   UNL d   1      25.677 -18.200   0.207  0.00  0.00     0.009 C 
ATOM     20  C   UNL d   1      24.362 -18.575  -0.145  0.00  0.00     0.001 C 
ATOM     21  C   UNL d   1      23.536 -17.721  -0.872  0.00  0.00     0.000 C 
ATOM     22  C   UNL d   1      24.042 -16.501  -1.270  0.00  0.00     0.001 C 
ATOM     23  C   UNL d   1      25.403 -16.225  -1.075  0.00  0.00     0.009 C 
ENDBRANCH  17  18
ENDBRANCH  15  17
ENDBRANCH   6  13
BRANCH   8  24
ATOM     24  N   UNL d   1      26.722 -10.141   2.316  0.00  0.00    -0.264 N 
ATOM     25  C   UNL d   1      26.683  -9.366   1.172  0.00  0.00     0.272 C 
ATOM     26  O   UNL d   1      27.114  -9.777   0.091  0.00  0.00    -0.266 OA
ATOM     27  H   UNL d   1      26.443  -9.816   3.239  0.00  0.00     0.190 HD
BRANCH  25  28
ATOM     28  C   UNL d   1      26.149  -8.030   1.282  0.00  0.00     0.060 C 
ATOM     29  C   UNL d   1      25.389  -7.700   0.161  0.00  0.00     0.019 C 
ATOM     30  C   UNL d   1      25.004  -6.394  -0.021  0.00  0.00     0.001 C 
ATOM     31  C   UNL d   1      25.217  -5.479   1.003  0.00  0.00     0.002 C 
ATOM     32  C   UNL d   1      25.804  -5.871   2.219  0.00  0.00     0.030 C 
ATOM     33  C   UNL d   1      26.357  -7.148   2.369  0.00  0.00     0.048 C 
BRANCH  33  34
ATOM     34  N   UNL d   1      27.088  -7.434   3.545  0.00  0.00    -0.355 N 
ATOM     35  H   UNL d   1      26.759  -7.007   4.410  0.00  0.00     0.166 HD
BRANCH  34  36
ATOM     36  C   UNL d   1      28.308  -8.115   3.707  0.00  0.00     0.032 C 
ATOM     37  C   UNL d   1      29.251  -8.126   2.671  0.00  0.00     0.029 C 
ATOM     38  C   UNL d   1      30.298  -9.038   2.664  0.00  0.00     0.002 C 
ATOM     39  C   UNL d   1      30.535  -9.797   3.793  0.00  0.00     0.000 C 
ATOM     40  C   UNL d   1      29.699  -9.683   4.901  0.00  0.00     0.002 C 
ATOM     41  C   UNL d   1      28.548  -8.896   4.838  0.00  0.00     0.029 C 
ENDBRANCH  34  36
ENDBRANCH  33  34
ENDBRANCH  25  28
ENDBRANCH   8  24
BRANCH   1  42
ATOM     42  O   UNL d   1      29.179 -12.110   8.632  0.00  0.00    -0.356 OA
ATOM     43  C   UNL d   1      28.433 -12.604   9.743  0.00  0.00     0.210 C 
ENDBRANCH   1  42
TORSDOF 8
ENDMDL
MODEL 9
REMARK VINA RESULT:    -8.748      6.964     11.222
REMARK INTER + INTRA:         -15.483
REMARK INTER:                 -11.134
REMARK INTRA:                  -4.349
REMARK CONF_INDEPENDENT:        2.386
REMARK UNBOUND:                -4.349
REMARK  8 active torsions:
REMARK  status: ('A' for Active; 'I' for Inactive)
REMARK    1  A    between atoms: O_2  and  C_3 
REMARK    2  A    between atoms: C_8  and  C_9 
REMARK       I    between atoms: C_9  and  N_11 
REMARK    3  A    between atoms: N_11  and  C_12 
REMARK    4  A    between atoms: C_12  and  C_13 
REMARK    5  A    between atoms: N_20  and  N_21 
REMARK       I    between atoms: N_21  and  C_22 
REMARK    6  A    between atoms: C_22  and  C_24 
REMARK    7  A    between atoms: C_29  and  N_30 
REMARK    8  A    between atoms: N_30  and  C_31 
ROOT
ATOM      1  C   UNL d   1      31.587 -19.473  -7.966  0.00  0.00     0.070 C 
ATOM      2  C   UNL d   1      31.555 -20.230  -6.794  0.00  0.00     0.038 C 
ATOM      3  C   UNL d   1      31.224 -19.626  -5.578  0.00  0.00     0.017 C 
ATOM      4  C   UNL d   1      30.671 -18.349  -5.572  0.00  0.00    -0.001 C 
ATOM      5  C   UNL d   1      30.057 -17.783  -4.376  0.00  0.00     0.035 C 
ATOM      6  C   UNL d   1      29.373 -16.621  -4.415  0.00  0.00     0.085 C 
ATOM      7  C   UNL d   1      29.306 -15.946  -5.729  0.00  0.00     0.178 C 
ATOM      8  N   UNL d   1      28.600 -14.914  -5.985  0.00  0.00    -0.276 N 
ATOM      9  O   UNL d   1      30.017 -16.377  -6.825  0.00  0.00    -0.291 OA
ATOM     10  C   UNL d   1      30.642 -17.632  -6.762  0.00  0.00     0.090 C 
ATOM     11  C   UNL d   1      31.182 -18.141  -7.939  0.00  0.00     0.074 C 
ATOM     12  H   UNL d   1      27.994 -14.555  -5.249  0.00  0.00     0.189 HD
ENDROOT
BRANCH   6  13
ATOM     13  C   UNL d   1      28.696 -16.196  -3.114  0.00  0.00     0.256 C 
ATOM     14  O   UNL d   1      28.003 -15.184  -3.081  0.00  0.00    -0.268 OA
ATOM     15  N   UNL d   1      28.882 -16.969  -1.985  0.00  0.00    -0.352 N 
ATOM     16  H   UNL d   1      29.001 -17.955  -2.016  0.00  0.00     0.163 HD
BRANCH  15  17
ATOM     17  C   UNL d   1      28.286 -16.659  -0.670  0.00  0.00     0.161 C 
BRANCH  17  18
ATOM     18  C   UNL d   1      26.790 -16.987  -0.630  0.00  0.00    -0.041 C 
ATOM     19  C   UNL d   1      26.283 -18.081   0.081  0.00  0.00     0.009 C 
ATOM     20  C   UNL d   1      24.905 -18.384   0.058  0.00  0.00     0.001 C 
ATOM     21  C   UNL d   1      23.983 -17.517  -0.525  0.00  0.00     0.000 C 
ATOM     22  C   UNL d   1      24.451 -16.359  -1.111  0.00  0.00     0.001 C 
ATOM     23  C   UNL d   1      25.834 -16.167  -1.244  0.00  0.00     0.009 C 
ENDBRANCH  17  18
ENDBRANCH  15  17
ENDBRANCH   6  13
BRANCH   8  24
ATOM     24  N   UNL d   1      28.564 -14.153  -7.147  0.00  0.00    -0.264 N 
ATOM     25  C   UNL d   1      28.137 -12.849  -6.985  0.00  0.00     0.272 C 
ATOM     26  O   UNL d   1      27.629 -12.455  -5.932  0.00  0.00    -0.266 OA
ATOM     27  H   UNL d   1      28.922 -14.535  -8.019  0.00  0.00     0.190 HD
BRANCH  25  28
ATOM     28  C   UNL d   1      28.270 -11.953  -8.109  0.00  0.00     0.060 C 
ATOM     29  C   UNL d   1      27.223 -11.032  -8.143  0.00  0.00     0.019 C 
ATOM     30  C   UNL d   1      27.050 -10.261  -9.266  0.00  0.00     0.001 C 
ATOM     31  C   UNL d   1      28.028 -10.282 -10.254  0.00  0.00     0.002 C 
ATOM     32  C   UNL d   1      29.187 -11.064 -10.115  0.00  0.00     0.030 C 
ATOM     33  C   UNL d   1      29.311 -11.984  -9.067  0.00  0.00     0.048 C 
BRANCH  33  34
ATOM     34  N   UNL d   1      30.414 -12.868  -9.069  0.00  0.00    -0.355 N 
ATOM     35  H   UNL d   1      30.559 -13.424  -9.911  0.00  0.00     0.166 HD
BRANCH  34  36
ATOM     36  C   UNL d   1      31.288 -13.223  -8.027  0.00  0.00     0.032 C 
ATOM     37  C   UNL d   1      32.038 -14.403  -8.107  0.00  0.00     0.029 C 
ATOM     38  C   UNL d   1      32.647 -14.944  -6.982  0.00  0.00     0.002 C 
ATOM     39  C   UNL d   1      32.693 -14.200  -5.820  0.00  0.00     0.000 C 
ATOM     40  C   UNL d   1      32.089 -12.946  -5.767  0.00  0.00     0.002 C 
ATOM     41  C   UNL d   1      31.329 -12.484  -6.843  0.00  0.00     0.029 C 
ENDBRANCH  34  36
ENDBRANCH  33  34
ENDBRANCH  25  28
ENDBRANCH   8  24
BRANCH   1  42
ATOM     42  O   UNL d   1      32.086 -19.931  -9.151  0.00  0.00    -0.356 OA
ATOM     43  C   UNL d   1      31.128 -20.024 -10.203  0.00  0.00     0.210 C 
ENDBRANCH   1  42
TORSDOF 8
ENDMDL
