MODEL 1
REMARK VINA RESULT:    -9.669      0.000      0.000
REMARK INTER + INTRA:         -15.364
REMARK INTER:                 -13.249
REMARK INTRA:                  -2.115
REMARK CONF_INDEPENDENT:        3.580
REMARK UNBOUND:                -2.115
REMARK  12 active torsions:
REMARK  status: ('A' for Active; 'I' for Inactive)
REMARK    1  A    between atoms: C_2  and  C_3 
REMARK    2  A    between atoms: C_3  and  C_4 
REMARK    3  A    between atoms: C_4  and  C_5 
REMARK    4  A    between atoms: C_5  and  C_6 
REMARK       I    between atoms: C_6  and  N_8 
REMARK    5  A    between atoms: N_8  and  C_9 
REMARK    6  A    between atoms: C_16  and  C_18 
REMARK    7  A    between atoms: C_18  and  O_19 
REMARK    8  A    between atoms: C_20  and  O_21 
REMARK    9  A    between atoms: C_26  and  C_27 
REMARK   10  A    between atoms: C_27  and  C_28 
REMARK       I    between atoms: C_28  and  N_30 
REMARK   11  A    between atoms: N_30  and  C_31 
REMARK   12  A    between atoms: C_31  and  C_32 
ROOT
ATOM      1  C   UNL d   1      23.299 -17.217  -0.707  0.00  0.00     0.173 C 
ATOM      2  N   UNL d   1      24.127 -16.573  -1.484  0.00  0.00    -0.227 NA
ATOM      3  C   UNL d   1      25.410 -16.727  -1.071  0.00  0.00     0.056 C 
ATOM      4  C   UNL d   1      25.709 -17.720  -0.214  0.00  0.00     0.012 C 
ATOM      5  S   UNL d   1      24.165 -18.141   0.549  0.00  0.00    -0.054 SA
ATOM      6  C   UNL d   1      27.341 -17.953  -0.138  0.00  0.00     0.054 C 
ATOM      7  C   UNL d   1      28.498 -16.972  -1.416  0.00  0.00     0.012 C 
ATOM      8  C   UNL d   1      29.358 -15.940  -3.294  0.00  0.00     0.008 C 
ATOM      9  C   UNL d   1      30.843 -14.934  -4.100  0.00  0.00     0.020 C 
ATOM     10  C   UNL d   1      30.453 -16.911  -3.625  0.00  0.00     0.128 C 
ATOM     11  C   UNL d   1      29.345 -17.389  -2.962  0.00  0.00     0.033 C 
ATOM     12  C   UNL d   1      29.222 -15.978  -1.397  0.00  0.00     0.013 C 
ATOM     13  C   UNL d   1      27.816 -15.960  -0.781  0.00  0.00    -0.030 C 
ATOM     14  C   UNL d   1      27.628 -15.499   0.721  0.00  0.00     0.016 C 
ATOM     15  C   UNL d   1      26.562 -16.015  -1.647  0.00  0.00     0.056 C 
ENDROOT
BRANCH  15  16
ATOM     16  C   UNL d   1      26.313 -14.576  -1.829  0.00  0.00     0.114 C 
BRANCH  16  17
ATOM     17  C   UNL d   1      25.876 -14.144  -3.281  0.00  0.00     0.218 C 
ATOM     18  O   UNL d   1      25.294 -14.743  -4.197  0.00  0.00    -0.274 OA
ATOM     19  N   UNL d   1      26.212 -12.955  -3.725  0.00  0.00    -0.357 N 
ATOM     20  H   UNL d   1      26.503 -12.288  -3.037  0.00  0.00     0.162 HD
BRANCH  19  21
ATOM     21  C   UNL d   1      25.611 -12.712  -5.017  0.00  0.00     0.162 C 
BRANCH  21  22
ATOM     22  C   UNL d   1      25.893 -11.358  -5.424  0.00  0.00    -0.023 A 
ATOM     23  C   UNL d   1      26.459 -11.141  -6.662  0.00  0.00     0.012 A 
ATOM     24  C   UNL d   1      26.630  -9.838  -7.047  0.00  0.00     0.020 A 
ATOM     25  C   UNL d   1      26.232  -8.836  -6.172  0.00  0.00     0.116 A 
ATOM     26  N   UNL d   1      25.704  -9.033  -4.946  0.00  0.00    -0.273 NA
ATOM     27  C   UNL d   1      25.530 -10.307  -4.597  0.00  0.00     0.124 A 
ENDBRANCH  21  22
ENDBRANCH  19  21
ENDBRANCH  16  17
ENDBRANCH  15  16
BRANCH   8  28
ATOM     28  C   UNL d   1      28.821 -14.437  -4.236  0.00  0.00     0.176 C 
BRANCH  28  29
ATOM     29  O   UNL d   1      28.119 -14.932  -5.345  0.00  0.00    -0.400 OA
ATOM     30  H   UNL d   1      27.206 -14.578  -5.197  0.00  0.00     0.209 HD
ENDBRANCH  28  29
ENDBRANCH   8  28
BRANCH   1  31
ATOM     31  N   UNL d   1      21.915 -17.136  -0.897  0.00  0.00    -0.306 N 
ATOM     32  C   UNL d   1      21.087 -18.266  -0.879  0.00  0.00     0.223 C 
ATOM     33  O   UNL d   1      19.905 -18.193  -1.234  0.00  0.00    -0.273 OA
ATOM     34  H   UNL d   1      21.474 -16.301  -1.268  0.00  0.00     0.171 HD
BRANCH  32  35
ATOM     35  C   UNL d   1      21.633 -19.572  -0.300  0.00  0.00     0.103 C 
BRANCH  35  36
ATOM     36  C   UNL d   1      20.576 -20.450   0.373  0.00  0.00     0.009 C 
BRANCH  36  37
ATOM     37  C   UNL d   1      19.952 -19.724   1.564  0.00  0.00     0.000 C 
BRANCH  37  38
ATOM     38  C   UNL d   1      18.600 -20.331   1.921  0.00  0.00    -0.005 C 
ATOM     39  C   UNL d   1      18.089 -21.191   0.782  0.00  0.00     0.005 C 
ENDBRANCH  37  38
ENDBRANCH  36  37
ENDBRANCH  35  36
ENDBRANCH  32  35
ENDBRANCH   1  31
BRANCH  10  40
ATOM     40  O   UNL d   1      30.548 -17.416  -4.908  0.00  0.00    -0.395 OA
ATOM     41  H   UNL d   1      29.878 -16.967  -5.447  0.00  0.00     0.210 HD
ENDBRANCH  10  40
TORSDOF 12
ENDMDL
MODEL 2
REMARK VINA RESULT:    -9.529      1.690      2.102
REMARK INTER + INTRA:         -16.141
REMARK INTER:                 -13.108
REMARK INTRA:                  -3.032
REMARK CONF_INDEPENDENT:        3.580
REMARK UNBOUND:                -3.032
REMARK  12 active torsions:
REMARK  status: ('A' for Active; 'I' for Inactive)
REMARK    1  A    between atoms: C_2  and  C_3 
REMARK    2  A    between atoms: C_3  and  C_4 
REMARK    3  A    between atoms: C_4  and  C_5 
REMARK    4  A    between atoms: C_5  and  C_6 
REMARK       I    between atoms: C_6  and  N_8 
REMARK    5  A    between atoms: N_8  and  C_9 
REMARK    6  A    between atoms: C_16  and  C_18 
REMARK    7  A    between atoms: C_18  and  O_19 
REMARK    8  A    between atoms: C_20  and  O_21 
REMARK    9  A    between atoms: C_26  and  C_27 
REMARK   10  A    between atoms: C_27  and  C_28 
REMARK       I    between atoms: C_28  and  N_30 
REMARK   11  A    between atoms: N_30  and  C_31 
REMARK   12  A    between atoms: C_31  and  C_32 
ROOT
ATOM      1  C   UNL d   1      23.529 -17.019  -0.569  0.00  0.00     0.173 C 
ATOM      2  N   UNL d   1      24.401 -16.237  -1.146  0.00  0.00    -0.227 NA
ATOM      3  C   UNL d   1      25.658 -16.494  -0.709  0.00  0.00     0.056 C 
ATOM      4  C   UNL d   1      25.907 -17.650  -0.068  0.00  0.00     0.012 C 
ATOM      5  S   UNL d   1      24.322 -18.200   0.506  0.00  0.00    -0.054 SA
ATOM      6  C   UNL d   1      27.531 -17.920   0.041  0.00  0.00     0.054 C 
ATOM      7  C   UNL d   1      28.759 -16.709  -0.937  0.00  0.00     0.012 C 
ATOM      8  C   UNL d   1      29.724 -15.315  -2.506  0.00  0.00     0.008 C 
ATOM      9  C   UNL d   1      31.254 -14.184  -3.001  0.00  0.00     0.020 C 
ATOM     10  C   UNL d   1      30.832 -16.211  -2.978  0.00  0.00     0.128 C 
ATOM     11  C   UNL d   1      29.688 -16.802  -2.490  0.00  0.00     0.033 C 
ATOM     12  C   UNL d   1      29.485 -15.751  -0.670  0.00  0.00     0.013 C 
ATOM     13  C   UNL d   1      28.048 -15.843  -0.139  0.00  0.00    -0.030 C 
ATOM     14  C   UNL d   1      27.781 -15.708   1.416  0.00  0.00     0.016 C 
ATOM     15  C   UNL d   1      26.843 -15.694  -1.061  0.00  0.00     0.056 C 
ENDROOT
BRANCH  15  16
ATOM     16  C   UNL d   1      26.610 -14.246  -0.945  0.00  0.00     0.114 C 
BRANCH  16  17
ATOM     17  C   UNL d   1      26.191 -13.521  -2.282  0.00  0.00     0.218 C 
ATOM     18  O   UNL d   1      26.487 -12.421  -2.770  0.00  0.00    -0.274 OA
ATOM     19  N   UNL d   1      25.302 -14.085  -3.065  0.00  0.00    -0.357 N 
ATOM     20  H   UNL d   1      25.123 -15.059  -2.910  0.00  0.00     0.162 HD
BRANCH  19  21
ATOM     21  C   UNL d   1      25.154 -13.327  -4.287  0.00  0.00     0.162 C 
BRANCH  21  22
ATOM     22  C   UNL d   1      26.280 -13.590  -5.148  0.00  0.00    -0.023 A 
ATOM     23  C   UNL d   1      26.961 -12.524  -5.696  0.00  0.00     0.012 A 
ATOM     24  C   UNL d   1      28.076 -12.814  -6.435  0.00  0.00     0.020 A 
ATOM     25  C   UNL d   1      28.437 -14.146  -6.588  0.00  0.00     0.116 A 
ATOM     26  N   UNL d   1      27.764 -15.200  -6.081  0.00  0.00    -0.273 NA
ATOM     27  C   UNL d   1      26.693 -14.897  -5.351  0.00  0.00     0.124 A 
ENDBRANCH  21  22
ENDBRANCH  19  21
ENDBRANCH  16  17
ENDBRANCH  15  16
BRANCH   8  28
ATOM     28  C   UNL d   1      29.245 -13.638  -3.134  0.00  0.00     0.176 C 
BRANCH  28  29
ATOM     29  O   UNL d   1      29.035 -12.864  -1.983  0.00  0.00    -0.400 OA
ATOM     30  H   UNL d   1      28.311 -12.250  -2.266  0.00  0.00     0.209 HD
ENDBRANCH  28  29
ENDBRANCH   8  28
BRANCH   1  31
ATOM     31  N   UNL d   1      22.158 -16.877  -0.809  0.00  0.00    -0.306 N 
ATOM     32  C   UNL d   1      21.290 -17.976  -0.873  0.00  0.00     0.223 C 
ATOM     33  O   UNL d   1      20.126 -17.843  -1.270  0.00  0.00    -0.273 OA
ATOM     34  H   UNL d   1      21.762 -16.012  -1.160  0.00  0.00     0.171 HD
BRANCH  32  35
ATOM     35  C   UNL d   1      21.766 -19.325  -0.331  0.00  0.00     0.103 C 
BRANCH  35  36
ATOM     36  C   UNL d   1      20.644 -20.213   0.213  0.00  0.00     0.009 C 
BRANCH  36  37
ATOM     37  C   UNL d   1      20.211 -19.742   1.601  0.00  0.00     0.000 C 
BRANCH  37  38
ATOM     38  C   UNL d   1      18.739 -20.055   1.845  0.00  0.00    -0.005 C 
ATOM     39  C   UNL d   1      18.295 -21.214   0.975  0.00  0.00     0.005 C 
ENDBRANCH  37  38
ENDBRANCH  36  37
ENDBRANCH  35  36
ENDBRANCH  32  35
ENDBRANCH   1  31
BRANCH  10  40
ATOM     40  O   UNL d   1      30.994 -16.434  -4.332  0.00  0.00    -0.395 OA
ATOM     41  H   UNL d   1      31.864 -16.844  -4.457  0.00  0.00     0.210 HD
ENDBRANCH  10  40
TORSDOF 12
ENDMDL
MODEL 3
REMARK VINA RESULT:    -8.262      3.540      6.783
REMARK INTER + INTRA:         -14.426
REMARK INTER:                 -11.842
REMARK INTRA:                  -2.584
REMARK CONF_INDEPENDENT:        3.580
REMARK UNBOUND:                -2.584
REMARK  12 active torsions:
REMARK  status: ('A' for Active; 'I' for Inactive)
REMARK    1  A    between atoms: C_2  and  C_3 
REMARK    2  A    between atoms: C_3  and  C_4 
REMARK    3  A    between atoms: C_4  and  C_5 
REMARK    4  A    between atoms: C_5  and  C_6 
REMARK       I    between atoms: C_6  and  N_8 
REMARK    5  A    between atoms: N_8  and  C_9 
REMARK    6  A    between atoms: C_16  and  C_18 
REMARK    7  A    between atoms: C_18  and  O_19 
REMARK    8  A    between atoms: C_20  and  O_21 
REMARK    9  A    between atoms: C_26  and  C_27 
REMARK   10  A    between atoms: C_27  and  C_28 
REMARK       I    between atoms: C_28  and  N_30 
REMARK   11  A    between atoms: N_30  and  C_31 
REMARK   12  A    between atoms: C_31  and  C_32 
ROOT
ATOM      1  C   UNL d   1      25.422 -16.216  -1.072  0.00  0.00     0.173 C 
ATOM      2  N   UNL d   1      25.913 -15.042  -0.781  0.00  0.00    -0.227 NA
ATOM      3  C   UNL d   1      26.151 -14.318  -1.903  0.00  0.00     0.056 C 
ATOM      4  C   UNL d   1      25.580 -14.693  -3.061  0.00  0.00     0.012 C 
ATOM      5  S   UNL d   1      25.155 -16.398  -2.825  0.00  0.00    -0.054 SA
ATOM      6  C   UNL d   1      25.698 -13.492  -4.187  0.00  0.00     0.054 C 
ATOM      7  C   UNL d   1      26.393 -11.725  -3.615  0.00  0.00     0.012 C 
ATOM      8  C   UNL d   1      26.877  -9.807  -2.424  0.00  0.00     0.008 C 
ATOM      9  C   UNL d   1      27.817  -8.080  -2.372  0.00  0.00     0.020 C 
ATOM     10  C   UNL d   1      26.077  -8.818  -3.220  0.00  0.00     0.128 C 
ATOM     11  C   UNL d   1      25.649 -10.126  -3.199  0.00  0.00     0.033 C 
ATOM     12  C   UNL d   1      27.454 -11.106  -3.688  0.00  0.00     0.013 C 
ATOM     13  C   UNL d   1      27.412 -12.582  -3.266  0.00  0.00    -0.030 C 
ATOM     14  C   UNL d   1      28.306 -13.639  -4.033  0.00  0.00     0.016 C 
ATOM     15  C   UNL d   1      26.833 -13.013  -1.923  0.00  0.00     0.056 C 
ENDROOT
BRANCH  15  16
ATOM     16  C   UNL d   1      28.053 -12.992  -1.100  0.00  0.00     0.114 C 
BRANCH  16  17
ATOM     17  C   UNL d   1      27.833 -12.648   0.424  0.00  0.00     0.218 C 
ATOM     18  O   UNL d   1      28.168 -11.683   1.124  0.00  0.00    -0.274 OA
ATOM     19  N   UNL d   1      27.251 -13.531   1.202  0.00  0.00    -0.357 N 
ATOM     20  H   UNL d   1      26.748 -14.266   0.745  0.00  0.00     0.162 HD
BRANCH  19  21
ATOM     21  C   UNL d   1      27.035 -12.974   2.519  0.00  0.00     0.162 C 
BRANCH  21  22
ATOM     22  C   UNL d   1      27.864 -13.672   3.470  0.00  0.00    -0.023 A 
ATOM     23  C   UNL d   1      29.196 -13.868   3.172  0.00  0.00     0.012 A 
ATOM     24  C   UNL d   1      29.967 -14.455   4.138  0.00  0.00     0.020 A 
ATOM     25  C   UNL d   1      29.363 -14.817   5.335  0.00  0.00     0.116 A 
ATOM     26  N   UNL d   1      28.056 -14.658   5.628  0.00  0.00    -0.273 NA
ATOM     27  C   UNL d   1      27.325 -14.069   4.683  0.00  0.00     0.124 A 
ENDBRANCH  21  22
ENDBRANCH  19  21
ENDBRANCH  16  17
ENDBRANCH  15  16
BRANCH   8  28
ATOM     28  C   UNL d   1      27.847  -9.527  -0.869  0.00  0.00     0.176 C 
BRANCH  28  29
ATOM     29  O   UNL d   1      26.890  -9.481   0.155  0.00  0.00    -0.400 OA
ATOM     30  H   UNL d   1      27.420  -9.725   0.956  0.00  0.00     0.209 HD
ENDBRANCH  28  29
ENDBRANCH   8  28
BRANCH   1  31
ATOM     31  N   UNL d   1      25.172 -17.164  -0.073  0.00  0.00    -0.306 N 
ATOM     32  C   UNL d   1      23.972 -17.886  -0.007  0.00  0.00     0.223 C 
ATOM     33  O   UNL d   1      23.700 -18.575   0.983  0.00  0.00    -0.273 OA
ATOM     34  H   UNL d   1      25.740 -17.222   0.765  0.00  0.00     0.171 HD
BRANCH  32  35
ATOM     35  C   UNL d   1      23.055 -17.907  -1.231  0.00  0.00     0.103 C 
BRANCH  35  36
ATOM     36  C   UNL d   1      21.563 -17.951  -0.895  0.00  0.00     0.009 C 
BRANCH  36  37
ATOM     37  C   UNL d   1      21.154 -19.352  -0.441  0.00  0.00     0.000 C 
BRANCH  37  38
ATOM     38  C   UNL d   1      19.659 -19.413  -0.148  0.00  0.00    -0.005 C 
ATOM     39  C   UNL d   1      19.404 -20.192   1.128  0.00  0.00     0.005 C 
ENDBRANCH  37  38
ENDBRANCH  36  37
ENDBRANCH  35  36
ENDBRANCH  32  35
ENDBRANCH   1  31
BRANCH  10  40
ATOM     40  O   UNL d   1      25.199  -7.974  -2.568  0.00  0.00    -0.395 OA
ATOM     41  H   UNL d   1      24.406  -7.897  -3.120  0.00  0.00     0.210 HD
ENDBRANCH  10  40
TORSDOF 12
ENDMDL
MODEL 4
REMARK VINA RESULT:    -7.694      3.243      6.303
REMARK INTER + INTRA:         -14.447
REMARK INTER:                 -11.273
REMARK INTRA:                  -3.174
REMARK CONF_INDEPENDENT:        3.580
REMARK UNBOUND:                -3.174
REMARK  12 active torsions:
REMARK  status: ('A' for Active; 'I' for Inactive)
REMARK    1  A    between atoms: C_2  and  C_3 
REMARK    2  A    between atoms: C_3  and  C_4 
REMARK    3  A    between atoms: C_4  and  C_5 
REMARK    4  A    between atoms: C_5  and  C_6 
REMARK       I    between atoms: C_6  and  N_8 
REMARK    5  A    between atoms: N_8  and  C_9 
REMARK    6  A    between atoms: C_16  and  C_18 
REMARK    7  A    between atoms: C_18  and  O_19 
REMARK    8  A    between atoms: C_20  and  O_21 
REMARK    9  A    between atoms: C_26  and  C_27 
REMARK   10  A    between atoms: C_27  and  C_28 
REMARK       I    between atoms: C_28  and  N_30 
REMARK   11  A    between atoms: N_30  and  C_31 
REMARK   12  A    between atoms: C_31  and  C_32 
ROOT
ATOM      1  C   UNL d   1      26.411 -16.461  -1.407  0.00  0.00     0.173 C 
ATOM      2  N   UNL d   1      27.015 -15.307  -1.496  0.00  0.00    -0.227 NA
ATOM      3  C   UNL d   1      26.569 -14.599  -2.562  0.00  0.00     0.056 C 
ATOM      4  C   UNL d   1      25.412 -14.954  -3.150  0.00  0.00     0.012 C 
ATOM      5  S   UNL d   1      25.155 -16.640  -2.661  0.00  0.00    -0.054 SA
ATOM      6  C   UNL d   1      24.881 -13.765  -4.163  0.00  0.00     0.054 C 
ATOM      7  C   UNL d   1      25.834 -12.026  -4.161  0.00  0.00     0.012 C 
ATOM      8  C   UNL d   1      26.988 -10.125  -3.539  0.00  0.00     0.008 C 
ATOM      9  C   UNL d   1      27.831  -8.438  -4.100  0.00  0.00     0.020 C 
ATOM     10  C   UNL d   1      25.904  -9.106  -3.739  0.00  0.00     0.128 C 
ATOM     11  C   UNL d   1      25.530 -10.395  -3.432  0.00  0.00     0.033 C 
ATOM     12  C   UNL d   1      26.667 -11.453  -4.863  0.00  0.00     0.013 C 
ATOM     13  C   UNL d   1      26.835 -12.923  -4.455  0.00  0.00    -0.030 C 
ATOM     14  C   UNL d   1      27.071 -14.020  -5.571  0.00  0.00     0.016 C 
ATOM     15  C   UNL d   1      27.148 -13.324  -3.018  0.00  0.00     0.056 C 
ENDROOT
BRANCH  15  16
ATOM     16  C   UNL d   1      28.618 -13.350  -3.073  0.00  0.00     0.114 C 
BRANCH  16  17
ATOM     17  C   UNL d   1      29.348 -13.237  -1.679  0.00  0.00     0.218 C 
ATOM     18  O   UNL d   1      30.026 -12.342  -1.156  0.00  0.00    -0.274 OA
ATOM     19  N   UNL d   1      29.352 -14.272  -0.872  0.00  0.00    -0.357 N 
ATOM     20  H   UNL d   1      28.681 -14.991  -1.064  0.00  0.00     0.162 HD
BRANCH  19  21
ATOM     21  C   UNL d   1      29.959 -13.921   0.393  0.00  0.00     0.162 C 
BRANCH  21  22
ATOM     22  C   UNL d   1      28.932 -13.816   1.399  0.00  0.00    -0.023 A 
ATOM     23  C   UNL d   1      29.260 -14.077   2.713  0.00  0.00     0.012 A 
ATOM     24  C   UNL d   1      28.280 -13.881   3.647  0.00  0.00     0.020 A 
ATOM     25  C   UNL d   1      27.035 -13.444   3.215  0.00  0.00     0.116 A 
ATOM     26  N   UNL d   1      26.692 -13.213   1.930  0.00  0.00    -0.273 NA
ATOM     27  C   UNL d   1      27.663 -13.393   1.038  0.00  0.00     0.124 A 
ENDBRANCH  21  22
ENDBRANCH  19  21
ENDBRANCH  16  17
ENDBRANCH  15  16
BRANCH   8  28
ATOM     28  C   UNL d   1      28.697  -9.879  -2.864  0.00  0.00     0.176 C 
BRANCH  28  29
ATOM     29  O   UNL d   1      28.608 -10.232  -1.509  0.00  0.00    -0.400 OA
ATOM     30  H   UNL d   1      29.558 -10.243  -1.227  0.00  0.00     0.209 HD
ENDBRANCH  28  29
ENDBRANCH   8  28
BRANCH   1  31
ATOM     31  N   UNL d   1      26.768 -17.393  -0.427  0.00  0.00    -0.306 N 
ATOM     32  C   UNL d   1      25.846 -17.902   0.498  0.00  0.00     0.223 C 
ATOM     33  O   UNL d   1      26.221 -18.575   1.465  0.00  0.00    -0.273 OA
ATOM     34  H   UNL d   1      27.738 -17.581  -0.195  0.00  0.00     0.171 HD
BRANCH  32  35
ATOM     35  C   UNL d   1      24.352 -17.716   0.227  0.00  0.00     0.103 C 
BRANCH  35  36
ATOM     36  C   UNL d   1      23.688 -18.906  -0.470  0.00  0.00     0.009 C 
BRANCH  36  37
ATOM     37  C   UNL d   1      22.309 -18.516  -1.002  0.00  0.00     0.000 C 
BRANCH  37  38
ATOM     38  C   UNL d   1      21.214 -19.324  -0.315  0.00  0.00    -0.005 C 
ATOM     39  C   UNL d   1      19.857 -18.968  -0.888  0.00  0.00     0.005 C 
ENDBRANCH  37  38
ENDBRANCH  36  37
ENDBRANCH  35  36
ENDBRANCH  32  35
ENDBRANCH   1  31
BRANCH  10  40
ATOM     40  O   UNL d   1      25.607  -8.223  -2.719  0.00  0.00    -0.395 OA
ATOM     41  H   UNL d   1      24.685  -8.378  -2.460  0.00  0.00     0.210 HD
ENDBRANCH  10  40
TORSDOF 12
ENDMDL
MODEL 5
REMARK VINA RESULT:    -7.687      3.164      5.552
REMARK INTER + INTRA:         -14.450
REMARK INTER:                 -11.267
REMARK INTRA:                  -3.183
REMARK CONF_INDEPENDENT:        3.580
REMARK UNBOUND:                -3.183
REMARK  12 active torsions:
REMARK  status: ('A' for Active; 'I' for Inactive)
REMARK    1  A    between atoms: C_2  and  C_3 
REMARK    2  A    between atoms: C_3  and  C_4 
REMARK    3  A    between atoms: C_4  and  C_5 
REMARK    4  A    between atoms: C_5  and  C_6 
REMARK       I    between atoms: C_6  and  N_8 
REMARK    5  A    between atoms: N_8  and  C_9 
REMARK    6  A    between atoms: C_16  and  C_18 
REMARK    7  A    between atoms: C_18  and  O_19 
REMARK    8  A    between atoms: C_20  and  O_21 
REMARK    9  A    between atoms: C_26  and  C_27 
REMARK   10  A    between atoms: C_27  and  C_28 
REMARK       I    between atoms: C_28  and  N_30 
REMARK   11  A    between atoms: N_30  and  C_31 
REMARK   12  A    between atoms: C_31  and  C_32 
ROOT
ATOM      1  C   UNL d   1      27.388 -14.989  -4.401  0.00  0.00     0.173 C 
ATOM      2  N   UNL d   1      27.971 -15.577  -5.410  0.00  0.00    -0.227 NA
ATOM      3  C   UNL d   1      29.100 -16.219  -5.020  0.00  0.00     0.056 C 
ATOM      4  C   UNL d   1      29.294 -16.471  -3.713  0.00  0.00     0.012 C 
ATOM      5  S   UNL d   1      28.234 -15.327  -2.869  0.00  0.00    -0.054 SA
ATOM      6  C   UNL d   1      30.516 -17.560  -3.503  0.00  0.00     0.054 C 
ATOM      7  C   UNL d   1      31.279 -18.445  -5.104  0.00  0.00     0.012 C 
ATOM      8  C   UNL d   1      31.564 -19.458  -7.161  0.00  0.00     0.008 C 
ATOM      9  C   UNL d   1      32.807 -20.266  -8.453  0.00  0.00     0.020 C 
ATOM     10  C   UNL d   1      31.869 -20.855  -6.703  0.00  0.00     0.128 C 
ATOM     11  C   UNL d   1      31.085 -20.066  -5.891  0.00  0.00     0.033 C 
ATOM     12  C   UNL d   1      32.282 -18.329  -5.808  0.00  0.00     0.013 C 
ATOM     13  C   UNL d   1      31.453 -17.109  -5.382  0.00  0.00    -0.030 C 
ATOM     14  C   UNL d   1      32.167 -15.894  -4.661  0.00  0.00     0.016 C 
ATOM     15  C   UNL d   1      30.057 -16.856  -5.940  0.00  0.00     0.056 C 
ENDROOT
BRANCH  15  16
ATOM     16  C   UNL d   1      30.392 -16.008  -7.094  0.00  0.00     0.114 C 
BRANCH  16  17
ATOM     17  C   UNL d   1      30.213 -14.458  -6.868  0.00  0.00     0.218 C 
ATOM     18  O   UNL d   1      30.785 -13.645  -6.128  0.00  0.00    -0.274 OA
ATOM     19  N   UNL d   1      29.246 -13.826  -7.492  0.00  0.00    -0.357 N 
ATOM     20  H   UNL d   1      28.833 -14.301  -8.271  0.00  0.00     0.162 HD
BRANCH  19  21
ATOM     21  C   UNL d   1      29.334 -12.404  -7.248  0.00  0.00     0.162 C 
BRANCH  21  22
ATOM     22  C   UNL d   1      28.365 -12.034  -6.246  0.00  0.00    -0.023 A 
ATOM     23  C   UNL d   1      28.804 -11.744  -4.972  0.00  0.00     0.012 A 
ATOM     24  C   UNL d   1      27.865 -11.313  -4.075  0.00  0.00     0.020 A 
ATOM     25  C   UNL d   1      26.548 -11.204  -4.502  0.00  0.00     0.116 A 
ATOM     26  N   UNL d   1      26.099 -11.512  -5.736  0.00  0.00    -0.273 NA
ATOM     27  C   UNL d   1      27.031 -11.913  -6.599  0.00  0.00     0.124 A 
ENDBRANCH  21  22
ENDBRANCH  19  21
ENDBRANCH  16  17
ENDBRANCH  15  16
BRANCH   8  28
ATOM     28  C   UNL d   1      31.363 -18.825  -8.891  0.00  0.00     0.176 C 
BRANCH  28  29
ATOM     29  O   UNL d   1      30.397 -19.658  -9.475  0.00  0.00    -0.400 OA
ATOM     30  H   UNL d   1      30.465 -20.482  -8.928  0.00  0.00     0.209 HD
ENDBRANCH  28  29
ENDBRANCH   8  28
BRANCH   1  31
ATOM     31  N   UNL d   1      26.246 -14.200  -4.583  0.00  0.00    -0.306 N 
ATOM     32  C   UNL d   1      25.135 -14.280  -3.733  0.00  0.00     0.223 C 
ATOM     33  O   UNL d   1      24.073 -13.715  -4.021  0.00  0.00    -0.273 OA
ATOM     34  H   UNL d   1      26.074 -13.698  -5.448  0.00  0.00     0.171 HD
BRANCH  32  35
ATOM     35  C   UNL d   1      25.289 -14.977  -2.381  0.00  0.00     0.103 C 
BRANCH  35  36
ATOM     36  C   UNL d   1      25.117 -16.497  -2.436  0.00  0.00     0.009 C 
BRANCH  36  37
ATOM     37  C   UNL d   1      25.129 -17.092  -1.028  0.00  0.00     0.000 C 
BRANCH  37  38
ATOM     38  C   UNL d   1      24.026 -18.132  -0.869  0.00  0.00    -0.005 C 
ATOM     39  C   UNL d   1      22.712 -17.459  -0.520  0.00  0.00     0.005 C 
ENDBRANCH  37  38
ENDBRANCH  36  37
ENDBRANCH  35  36
ENDBRANCH  32  35
ENDBRANCH   1  31
BRANCH  10  40
ATOM     40  O   UNL d   1      31.160 -21.913  -7.239  0.00  0.00    -0.395 OA
ATOM     41  H   UNL d   1      30.984 -22.538  -6.519  0.00  0.00     0.210 HD
ENDBRANCH  10  40
TORSDOF 12
ENDMDL
MODEL 6
REMARK VINA RESULT:    -7.271      3.919      9.107
REMARK INTER + INTRA:         -14.599
REMARK INTER:                 -10.850
REMARK INTRA:                  -3.748
REMARK CONF_INDEPENDENT:        3.580
REMARK UNBOUND:                -3.748
REMARK  12 active torsions:
REMARK  status: ('A' for Active; 'I' for Inactive)
REMARK    1  A    between atoms: C_2  and  C_3 
REMARK    2  A    between atoms: C_3  and  C_4 
REMARK    3  A    between atoms: C_4  and  C_5 
REMARK    4  A    between atoms: C_5  and  C_6 
REMARK       I    between atoms: C_6  and  N_8 
REMARK    5  A    between atoms: N_8  and  C_9 
REMARK    6  A    between atoms: C_16  and  C_18 
REMARK    7  A    between atoms: C_18  and  O_19 
REMARK    8  A    between atoms: C_20  and  O_21 
REMARK    9  A    between atoms: C_26  and  C_27 
REMARK   10  A    between atoms: C_27  and  C_28 
REMARK       I    between atoms: C_28  and  N_30 
REMARK   11  A    between atoms: N_30  and  C_31 
REMARK   12  A    between atoms: C_31  and  C_32 
ROOT
ATOM      1  C   UNL d   1      28.776 -14.823  -5.956  0.00  0.00     0.173 C 
ATOM      2  N   UNL d   1      28.663 -15.557  -4.882  0.00  0.00    -0.227 NA
ATOM      3  C   UNL d   1      27.574 -15.200  -4.156  0.00  0.00     0.056 C 
ATOM      4  C   UNL d   1      26.614 -14.456  -4.734  0.00  0.00     0.012 C 
ATOM      5  S   UNL d   1      27.409 -13.692  -6.124  0.00  0.00    -0.054 SA
ATOM      6  C   UNL d   1      25.244 -14.453  -3.815  0.00  0.00     0.054 C 
ATOM      7  C   UNL d   1      25.156 -15.661  -2.245  0.00  0.00     0.012 C 
ATOM      8  C   UNL d   1      25.374 -17.454  -0.805  0.00  0.00     0.008 C 
ATOM      9  C   UNL d   1      25.018 -18.200   0.979  0.00  0.00     0.020 C 
ATOM     10  C   UNL d   1      23.946 -17.912  -0.769  0.00  0.00     0.128 C 
ATOM     11  C   UNL d   1      24.388 -17.266  -1.901  0.00  0.00     0.033 C 
ATOM     12  C   UNL d   1      25.281 -15.566  -1.025  0.00  0.00     0.013 C 
ATOM     13  C   UNL d   1      26.279 -14.909  -1.989  0.00  0.00    -0.030 C 
ATOM     14  C   UNL d   1      26.591 -13.363  -1.855  0.00  0.00     0.016 C 
ATOM     15  C   UNL d   1      27.247 -15.738  -2.825  0.00  0.00     0.056 C 
ENDROOT
BRANCH  15  16
ATOM     16  C   UNL d   1      28.407 -15.768  -1.920  0.00  0.00     0.114 C 
BRANCH  16  17
ATOM     17  C   UNL d   1      29.460 -16.905  -2.210  0.00  0.00     0.218 C 
ATOM     18  O   UNL d   1      29.767 -17.942  -1.605  0.00  0.00    -0.274 OA
ATOM     19  N   UNL d   1      30.268 -16.783  -3.238  0.00  0.00    -0.357 N 
ATOM     20  H   UNL d   1      30.009 -16.109  -3.932  0.00  0.00     0.162 HD
BRANCH  19  21
ATOM     21  C   UNL d   1      31.062 -17.981  -3.399  0.00  0.00     0.162 C 
BRANCH  21  22
ATOM     22  C   UNL d   1      31.009 -18.404  -4.777  0.00  0.00    -0.023 A 
ATOM     23  C   UNL d   1      30.627 -19.698  -5.060  0.00  0.00     0.012 A 
ATOM     24  C   UNL d   1      30.504 -20.033  -6.381  0.00  0.00     0.020 A 
ATOM     25  C   UNL d   1      30.776 -19.061  -7.336  0.00  0.00     0.116 A 
ATOM     26  N   UNL d   1      31.178 -17.801  -7.073  0.00  0.00    -0.273 NA
ATOM     27  C   UNL d   1      31.275 -17.489  -5.782  0.00  0.00     0.124 A 
ENDBRANCH  21  22
ENDBRANCH  19  21
ENDBRANCH  16  17
ENDBRANCH  15  16
BRANCH   8  28
ATOM     28  C   UNL d   1      26.858 -18.225  -0.004  0.00  0.00     0.176 C 
BRANCH  28  29
ATOM     29  O   UNL d   1      27.674 -17.146   0.368  0.00  0.00    -0.400 OA
ATOM     30  H   UNL d   1      28.582 -17.480   0.154  0.00  0.00     0.209 HD
ENDBRANCH  28  29
ENDBRANCH   8  28
BRANCH   1  31
ATOM     31  N   UNL d   1      29.872 -14.962  -6.816  0.00  0.00    -0.306 N 
ATOM     32  C   UNL d   1      30.435 -13.874  -7.497  0.00  0.00     0.223 C 
ATOM     33  O   UNL d   1      31.274 -14.048  -8.388  0.00  0.00    -0.273 OA
ATOM     34  H   UNL d   1      30.174 -15.868  -7.156  0.00  0.00     0.171 HD
BRANCH  32  35
ATOM     35  C   UNL d   1      30.084 -12.457  -7.040  0.00  0.00     0.103 C 
BRANCH  35  36
ATOM     36  C   UNL d   1      29.050 -11.752  -7.921  0.00  0.00     0.009 C 
BRANCH  36  37
ATOM     37  C   UNL d   1      29.340 -12.007  -9.400  0.00  0.00     0.000 C 
BRANCH  37  38
ATOM     38  C   UNL d   1      28.112 -12.574 -10.104  0.00  0.00    -0.005 C 
ATOM     39  C   UNL d   1      27.003 -11.540 -10.145  0.00  0.00     0.005 C 
ENDBRANCH  37  38
ENDBRANCH  36  37
ENDBRANCH  35  36
ENDBRANCH  32  35
ENDBRANCH   1  31
BRANCH  10  40
ATOM     40  O   UNL d   1      23.653 -19.241  -1.010  0.00  0.00    -0.395 OA
ATOM     41  H   UNL d   1      23.282 -19.609  -0.193  0.00  0.00     0.210 HD
ENDBRANCH  10  40
TORSDOF 12
ENDMDL
MODEL 7
REMARK VINA RESULT:    -7.220      3.026      5.356
REMARK INTER + INTRA:         -14.283
REMARK INTER:                 -10.799
REMARK INTRA:                  -3.484
REMARK CONF_INDEPENDENT:        3.580
REMARK UNBOUND:                -3.484
REMARK  12 active torsions:
REMARK  status: ('A' for Active; 'I' for Inactive)
REMARK    1  A    between atoms: C_2  and  C_3 
REMARK    2  A    between atoms: C_3  and  C_4 
REMARK    3  A    between atoms: C_4  and  C_5 
REMARK    4  A    between atoms: C_5  and  C_6 
REMARK       I    between atoms: C_6  and  N_8 
REMARK    5  A    between atoms: N_8  and  C_9 
REMARK    6  A    between atoms: C_16  and  C_18 
REMARK    7  A    between atoms: C_18  and  O_19 
REMARK    8  A    between atoms: C_20  and  O_21 
REMARK    9  A    between atoms: C_26  and  C_27 
REMARK   10  A    between atoms: C_27  and  C_28 
REMARK       I    between atoms: C_28  and  N_30 
REMARK   11  A    between atoms: N_30  and  C_31 
REMARK   12  A    between atoms: C_31  and  C_32 
ROOT
ATOM      1  C   UNL d   1      28.588 -16.346  -1.772  0.00  0.00     0.173 C 
ATOM      2  N   UNL d   1      28.954 -16.514  -3.014  0.00  0.00    -0.227 NA
ATOM      3  C   UNL d   1      30.053 -17.303  -3.101  0.00  0.00     0.056 C 
ATOM      4  C   UNL d   1      30.405 -18.057  -2.044  0.00  0.00     0.012 C 
ATOM      5  S   UNL d   1      29.606 -17.294  -0.657  0.00  0.00    -0.054 SA
ATOM      6  C   UNL d   1      31.521 -19.191  -2.480  0.00  0.00     0.054 C 
ATOM      7  C   UNL d   1      31.948 -19.406  -4.405  0.00  0.00     0.012 C 
ATOM      8  C   UNL d   1      31.824 -19.539  -6.707  0.00  0.00     0.008 C 
ATOM      9  C   UNL d   1      32.775 -19.824  -8.405  0.00  0.00     0.020 C 
ATOM     10  C   UNL d   1      32.042 -21.015  -6.877  0.00  0.00     0.128 C 
ATOM     11  C   UNL d   1      31.471 -20.577  -5.703  0.00  0.00     0.033 C 
ATOM     12  C   UNL d   1      32.846 -19.064  -5.174  0.00  0.00     0.013 C 
ATOM     13  C   UNL d   1      32.221 -18.077  -4.178  0.00  0.00    -0.030 C 
ATOM     14  C   UNL d   1      33.156 -17.274  -3.185  0.00  0.00     0.016 C 
ATOM     15  C   UNL d   1      30.794 -17.567  -4.345  0.00  0.00     0.056 C 
ENDROOT
BRANCH  15  16
ATOM     16  C   UNL d   1      31.048 -16.348  -5.129  0.00  0.00     0.114 C 
BRANCH  16  17
ATOM     17  C   UNL d   1      29.773 -15.689  -5.783  0.00  0.00     0.218 C 
ATOM     18  O   UNL d   1      29.240 -15.810  -6.895  0.00  0.00    -0.274 OA
ATOM     19  N   UNL d   1      29.119 -14.763  -5.120  0.00  0.00    -0.357 N 
ATOM     20  H   UNL d   1      29.304 -14.702  -4.138  0.00  0.00     0.162 HD
BRANCH  19  21
ATOM     21  C   UNL d   1      27.921 -14.383  -5.836  0.00  0.00     0.162 C 
BRANCH  21  22
ATOM     22  C   UNL d   1      26.854 -14.163  -4.891  0.00  0.00    -0.023 A 
ATOM     23  C   UNL d   1      26.477 -12.868  -4.606  0.00  0.00     0.012 A 
ATOM     24  C   UNL d   1      25.404 -12.704  -3.773  0.00  0.00     0.020 A 
ATOM     25  C   UNL d   1      24.779 -13.839  -3.272  0.00  0.00     0.116 A 
ATOM     26  N   UNL d   1      25.155 -15.110  -3.520  0.00  0.00    -0.273 NA
ATOM     27  C   UNL d   1      26.190 -15.249  -4.346  0.00  0.00     0.124 A 
ENDBRANCH  21  22
ENDBRANCH  19  21
ENDBRANCH  16  17
ENDBRANCH  15  16
BRANCH   8  28
ATOM     28  C   UNL d   1      31.445 -18.269  -8.002  0.00  0.00     0.176 C 
BRANCH  28  29
ATOM     29  O   UNL d   1      32.027 -17.082  -7.532  0.00  0.00    -0.400 OA
ATOM     30  H   UNL d   1      31.247 -16.475  -7.457  0.00  0.00     0.209 HD
ENDBRANCH  28  29
ENDBRANCH   8  28
BRANCH   1  31
ATOM     31  N   UNL d   1      27.522 -15.503  -1.439  0.00  0.00    -0.306 N 
ATOM     32  C   UNL d   1      26.488 -15.902  -0.581  0.00  0.00     0.223 C 
ATOM     33  O   UNL d   1      25.469 -15.214  -0.451  0.00  0.00    -0.273 OA
ATOM     34  H   UNL d   1      27.327 -14.654  -1.959  0.00  0.00     0.171 HD
BRANCH  32  35
ATOM     35  C   UNL d   1      26.689 -17.145   0.287  0.00  0.00     0.103 C 
BRANCH  35  36
ATOM     36  C   UNL d   1      25.854 -18.353  -0.145  0.00  0.00     0.009 C 
BRANCH  36  37
ATOM     37  C   UNL d   1      24.381 -18.141   0.204  0.00  0.00     0.000 C 
BRANCH  37  38
ATOM     38  C   UNL d   1      23.543 -17.976  -1.059  0.00  0.00    -0.005 C 
ATOM     39  C   UNL d   1      22.140 -18.505  -0.834  0.00  0.00     0.005 C 
ENDBRANCH  37  38
ENDBRANCH  36  37
ENDBRANCH  35  36
ENDBRANCH  32  35
ENDBRANCH   1  31
BRANCH  10  40
ATOM     40  O   UNL d   1      31.155 -21.747  -7.643  0.00  0.00    -0.395 OA
ATOM     41  H   UNL d   1      31.006 -22.590  -7.188  0.00  0.00     0.210 HD
ENDBRANCH  10  40
TORSDOF 12
ENDMDL
MODEL 8
REMARK VINA RESULT:    -6.833      4.053      8.742
REMARK INTER + INTRA:         -14.725
REMARK INTER:                 -10.412
REMARK INTRA:                  -4.313
REMARK CONF_INDEPENDENT:        3.580
REMARK UNBOUND:                -4.313
REMARK  12 active torsions:
REMARK  status: ('A' for Active; 'I' for Inactive)
REMARK    1  A    between atoms: C_2  and  C_3 
REMARK    2  A    between atoms: C_3  and  C_4 
REMARK    3  A    between atoms: C_4  and  C_5 
REMARK    4  A    between atoms: C_5  and  C_6 
REMARK       I    between atoms: C_6  and  N_8 
REMARK    5  A    between atoms: N_8  and  C_9 
REMARK    6  A    between atoms: C_16  and  C_18 
REMARK    7  A    between atoms: C_18  and  O_19 
REMARK    8  A    between atoms: C_20  and  O_21 
REMARK    9  A    between atoms: C_26  and  C_27 
REMARK   10  A    between atoms: C_27  and  C_28 
REMARK       I    between atoms: C_28  and  N_30 
REMARK   11  A    between atoms: N_30  and  C_31 
REMARK   12  A    between atoms: C_31  and  C_32 
ROOT
ATOM      1  C   UNL d   1      28.735 -14.790  -6.094  0.00  0.00     0.173 C 
ATOM      2  N   UNL d   1      28.656 -15.548  -5.034  0.00  0.00    -0.227 NA
ATOM      3  C   UNL d   1      27.632 -15.167  -4.231  0.00  0.00     0.056 C 
ATOM      4  C   UNL d   1      26.672 -14.366  -4.726  0.00  0.00     0.012 C 
ATOM      5  S   UNL d   1      27.411 -13.597  -6.144  0.00  0.00    -0.054 SA
ATOM      6  C   UNL d   1      25.364 -14.331  -3.721  0.00  0.00     0.054 C 
ATOM      7  C   UNL d   1      25.321 -15.578  -2.181  0.00  0.00     0.012 C 
ATOM      8  C   UNL d   1      25.551 -17.419  -0.804  0.00  0.00     0.008 C 
ATOM      9  C   UNL d   1      25.275 -18.200   0.979  0.00  0.00     0.020 C 
ATOM     10  C   UNL d   1      24.108 -17.817  -0.688  0.00  0.00     0.128 C 
ATOM     11  C   UNL d   1      24.506 -17.159  -1.830  0.00  0.00     0.033 C 
ATOM     12  C   UNL d   1      25.528 -15.524  -0.969  0.00  0.00     0.013 C 
ATOM     13  C   UNL d   1      26.491 -14.883  -1.978  0.00  0.00    -0.030 C 
ATOM     14  C   UNL d   1      26.879 -13.356  -1.824  0.00  0.00     0.016 C 
ATOM     15  C   UNL d   1      27.367 -15.728  -2.896  0.00  0.00     0.056 C 
ENDROOT
BRANCH  15  16
ATOM     16  C   UNL d   1      28.578 -15.833  -2.068  0.00  0.00     0.114 C 
BRANCH  16  17
ATOM     17  C   UNL d   1      29.497 -17.079  -2.372  0.00  0.00     0.218 C 
ATOM     18  O   UNL d   1      29.857 -18.045  -1.685  0.00  0.00    -0.274 OA
ATOM     19  N   UNL d   1      30.102 -17.160  -3.534  0.00  0.00    -0.357 N 
ATOM     20  H   UNL d   1      29.753 -16.567  -4.262  0.00  0.00     0.162 HD
BRANCH  19  21
ATOM     21  C   UNL d   1      30.787 -18.428  -3.656  0.00  0.00     0.162 C 
BRANCH  21  22
ATOM     22  C   UNL d   1      30.745 -18.859  -5.032  0.00  0.00    -0.023 A 
ATOM     23  C   UNL d   1      30.821 -17.908  -6.028  0.00  0.00     0.012 A 
ATOM     24  C   UNL d   1      30.866 -18.364  -7.318  0.00  0.00     0.020 A 
ATOM     25  C   UNL d   1      30.826 -19.735  -7.534  0.00  0.00     0.116 A 
ATOM     26  N   UNL d   1      30.723 -20.675  -6.571  0.00  0.00    -0.273 NA
ATOM     27  C   UNL d   1      30.697 -20.213  -5.322  0.00  0.00     0.124 A 
ENDBRANCH  21  22
ENDBRANCH  19  21
ENDBRANCH  16  17
ENDBRANCH  15  16
BRANCH   8  28
ATOM     28  C   UNL d   1      27.046 -18.275  -0.121  0.00  0.00     0.176 C 
BRANCH  28  29
ATOM     29  O   UNL d   1      27.934 -17.244   0.217  0.00  0.00    -0.400 OA
ATOM     30  H   UNL d   1      28.811 -17.706   0.215  0.00  0.00     0.209 HD
ENDBRANCH  28  29
ENDBRANCH   8  28
BRANCH   1  31
ATOM     31  N   UNL d   1      29.767 -14.951  -7.025  0.00  0.00    -0.306 N 
ATOM     32  C   UNL d   1      31.104 -14.661  -6.721  0.00  0.00     0.223 C 
ATOM     33  O   UNL d   1      31.965 -14.631  -7.608  0.00  0.00    -0.273 OA
ATOM     34  H   UNL d   1      29.581 -15.071  -8.015  0.00  0.00     0.171 HD
BRANCH  32  35
ATOM     35  C   UNL d   1      31.509 -14.502  -5.255  0.00  0.00     0.103 C 
BRANCH  35  36
ATOM     36  C   UNL d   1      31.158 -13.139  -4.653  0.00  0.00     0.009 C 
BRANCH  36  37
ATOM     37  C   UNL d   1      30.286 -13.309  -3.410  0.00  0.00     0.000 C 
BRANCH  37  38
ATOM     38  C   UNL d   1      31.145 -13.407  -2.154  0.00  0.00    -0.005 C 
ATOM     39  C   UNL d   1      30.302 -13.163  -0.918  0.00  0.00     0.005 C 
ENDBRANCH  37  38
ENDBRANCH  36  37
ENDBRANCH  35  36
ENDBRANCH  32  35
ENDBRANCH   1  31
BRANCH  10  40
ATOM     40  O   UNL d   1      23.743 -19.124  -0.944  0.00  0.00    -0.395 OA
ATOM     41  H   UNL d   1      23.680 -19.581  -0.091  0.00  0.00     0.210 HD
ENDBRANCH  10  40
TORSDOF 12
ENDMDL
