MODEL 1
REMARK VINA RESULT:    -8.411      0.000      0.000
REMARK INTER + INTRA:         -11.578
REMARK INTER:                 -10.499
REMARK INTRA:                  -1.079
REMARK CONF_INDEPENDENT:        2.088
REMARK UNBOUND:                -1.079
REMARK  7 active torsions:
REMARK  status: ('A' for Active; 'I' for Inactive)
REMARK       I    between atoms: N_1  and  C_2 
REMARK    1  A    between atoms: C_2  and  C_4 
REMARK    2  A    between atoms: C_4  and  S_5 
REMARK    3  A    between atoms: S_5  and  C_6 
REMARK    4  A    between atoms: C_11  and  N_12 
REMARK    5  A    between atoms: N_12  and  C_13 
REMARK    6  A    between atoms: C_13  and  C_14 
REMARK       I    between atoms: C_14  and  N_16 
REMARK    7  A    between atoms: N_16  and  C_17 
ROOT
ATOM      1  N   UNL d   1      24.439 -15.547  -2.096  0.00  0.00    -0.380 N 
ATOM      2  H   UNL d   1      23.419 -15.521  -2.104  0.00  0.00     0.160 HD
ENDROOT
BRANCH   1   3
ATOM      3  C   UNL d   1      25.100 -16.424  -1.244  0.00  0.00     0.045 A 
ATOM      4  C   UNL d   1      26.284 -15.950  -0.630  0.00  0.00     0.030 A 
ATOM      5  C   UNL d   1      27.019 -16.736   0.267  0.00  0.00     0.002 A 
ATOM      6  C   UNL d   1      26.588 -18.018   0.574  0.00  0.00     0.002 A 
ATOM      7  C   UNL d   1      25.448 -18.524  -0.038  0.00  0.00     0.021 A 
ATOM      8  C   UNL d   1      24.670 -17.737  -0.901  0.00  0.00     0.027 A 
BRANCH   8   9
ATOM      9  S   UNL d   1      23.252 -18.603  -1.592  0.00  0.00    -0.118 SA
BRANCH   9  10
ATOM     10  C   UNL d   1      21.994 -18.472  -0.265  0.00  0.00     0.182 C 
BRANCH  10  11
ATOM     11  C   UNL d   1      20.918 -19.537  -0.488  0.00  0.00     0.225 C 
ATOM     12  N   UNL d   1      20.643 -20.352   0.570  0.00  0.00    -0.369 N 
ATOM     13  H   UNL d   1      19.945 -21.071   0.422  0.00  0.00     0.159 HD
ATOM     14  H   UNL d   1      21.065 -20.271   1.485  0.00  0.00     0.159 HD
ATOM     15  O   UNL d   1      20.279 -19.698  -1.534  0.00  0.00    -0.273 OA
ENDBRANCH  10  11
ENDBRANCH   9  10
ENDBRANCH   8   9
ENDBRANCH   1   3
BRANCH   1  16
ATOM     16  C   UNL d   1      25.086 -14.436  -2.789  0.00  0.00     0.223 C 
BRANCH  16  17
ATOM     17  C   UNL d   1      25.990 -14.914  -3.912  0.00  0.00     0.239 C 
ATOM     18  O   UNL d   1      25.530 -15.201  -5.019  0.00  0.00    -0.271 OA
ATOM     19  N   UNL d   1      27.337 -15.017  -3.558  0.00  0.00    -0.326 N 
ATOM     20  H   UNL d   1      27.607 -14.948  -2.580  0.00  0.00     0.169 HD
BRANCH  19  21
ATOM     21  C   UNL d   1      28.333 -15.317  -4.507  0.00  0.00     0.036 A 
ATOM     22  C   UNL d   1      28.421 -14.617  -5.713  0.00  0.00     0.031 A 
ATOM     23  C   UNL d   1      29.394 -14.983  -6.655  0.00  0.00     0.028 A 
ATOM     24  C   UNL d   1      30.289 -16.026  -6.387  0.00  0.00     0.055 A 
ATOM     25 CL   UNL d   1      31.514 -16.376  -7.551  0.00  0.00    -0.083 Cl
ATOM     26  C   UNL d   1      30.184 -16.735  -5.191  0.00  0.00     0.058 A 
ATOM     27 CL   UNL d   1      31.176 -18.096  -4.810  0.00  0.00    -0.082 Cl
ATOM     28  C   UNL d   1      29.214 -16.373  -4.261  0.00  0.00     0.055 A 
ENDBRANCH  19  21
ENDBRANCH  16  17
ENDBRANCH   1  16
TORSDOF 7
ENDMDL
MODEL 2
REMARK VINA RESULT:    -7.950      5.602      8.307
REMARK INTER + INTRA:         -10.981
REMARK INTER:                 -10.038
REMARK INTRA:                  -0.944
REMARK CONF_INDEPENDENT:        2.088
REMARK UNBOUND:                -0.944
REMARK  7 active torsions:
REMARK  status: ('A' for Active; 'I' for Inactive)
REMARK       I    between atoms: N_1  and  C_2 
REMARK    1  A    between atoms: C_2  and  C_4 
REMARK    2  A    between atoms: C_4  and  S_5 
REMARK    3  A    between atoms: S_5  and  C_6 
REMARK    4  A    between atoms: C_11  and  N_12 
REMARK    5  A    between atoms: N_12  and  C_13 
REMARK    6  A    between atoms: C_13  and  C_14 
REMARK       I    between atoms: C_14  and  N_16 
REMARK    7  A    between atoms: N_16  and  C_17 
ROOT
ATOM      1  N   UNL d   1      27.377 -16.657   0.488  0.00  0.00    -0.380 N 
ATOM      2  H   UNL d   1      27.933 -17.403   0.905  0.00  0.00     0.160 HD
ENDROOT
BRANCH   1   3
ATOM      3  C   UNL d   1      26.167 -16.959  -0.128  0.00  0.00     0.045 A 
ATOM      4  C   UNL d   1      25.531 -18.160   0.267  0.00  0.00     0.030 A 
ATOM      5  C   UNL d   1      24.297 -18.554  -0.265  0.00  0.00     0.002 A 
ATOM      6  C   UNL d   1      23.665 -17.755  -1.206  0.00  0.00     0.002 A 
ATOM      7  C   UNL d   1      24.280 -16.587  -1.638  0.00  0.00     0.021 A 
ATOM      8  C   UNL d   1      25.492 -16.149  -1.083  0.00  0.00     0.027 A 
BRANCH   8   9
ATOM      9  S   UNL d   1      26.112 -14.623  -1.807  0.00  0.00    -0.118 SA
BRANCH   9  10
ATOM     10  C   UNL d   1      26.870 -15.184  -3.380  0.00  0.00     0.182 C 
BRANCH  10  11
ATOM     11  C   UNL d   1      25.856 -15.012  -4.513  0.00  0.00     0.225 C 
ATOM     12  N   UNL d   1      24.827 -14.148  -4.281  0.00  0.00    -0.369 N 
ATOM     13  H   UNL d   1      24.142 -14.046  -5.021  0.00  0.00     0.159 HD
ATOM     14  H   UNL d   1      24.718 -13.595  -3.442  0.00  0.00     0.159 HD
ATOM     15  O   UNL d   1      25.910 -15.577  -5.611  0.00  0.00    -0.273 OA
ENDBRANCH  10  11
ENDBRANCH   9  10
ENDBRANCH   8   9
ENDBRANCH   1   3
BRANCH   1  16
ATOM     16  C   UNL d   1      28.074 -15.382   0.341  0.00  0.00     0.223 C 
BRANCH  16  17
ATOM     17  C   UNL d   1      27.906 -14.496   1.563  0.00  0.00     0.239 C 
ATOM     18  O   UNL d   1      27.103 -13.561   1.564  0.00  0.00    -0.271 OA
ATOM     19  N   UNL d   1      28.748 -14.824   2.629  0.00  0.00    -0.326 N 
ATOM     20  H   UNL d   1      29.510 -15.480   2.484  0.00  0.00     0.169 HD
BRANCH  19  21
ATOM     21  C   UNL d   1      28.636 -14.195   3.884  0.00  0.00     0.036 A 
ATOM     22  C   UNL d   1      28.738 -14.923   5.071  0.00  0.00     0.031 A 
ATOM     23  C   UNL d   1      28.566 -14.268   6.300  0.00  0.00     0.028 A 
ATOM     24  C   UNL d   1      28.317 -12.890   6.344  0.00  0.00     0.055 A 
ATOM     25 CL   UNL d   1      28.195 -12.127   7.888  0.00  0.00    -0.083 Cl
ATOM     26  C   UNL d   1      28.195 -12.172   5.156  0.00  0.00     0.058 A 
ATOM     27 CL   UNL d   1      27.794 -10.494   5.103  0.00  0.00    -0.082 Cl
ATOM     28  C   UNL d   1      28.361 -12.826   3.939  0.00  0.00     0.055 A 
ENDBRANCH  19  21
ENDBRANCH  16  17
ENDBRANCH   1  16
TORSDOF 7
ENDMDL
MODEL 3
REMARK VINA RESULT:    -7.950      4.145      4.813
REMARK INTER + INTRA:         -11.265
REMARK INTER:                 -10.038
REMARK INTRA:                  -1.227
REMARK CONF_INDEPENDENT:        2.088
REMARK UNBOUND:                -1.227
REMARK  7 active torsions:
REMARK  status: ('A' for Active; 'I' for Inactive)
REMARK       I    between atoms: N_1  and  C_2 
REMARK    1  A    between atoms: C_2  and  C_4 
REMARK    2  A    between atoms: C_4  and  S_5 
REMARK    3  A    between atoms: S_5  and  C_6 
REMARK    4  A    between atoms: C_11  and  N_12 
REMARK    5  A    between atoms: N_12  and  C_13 
REMARK    6  A    between atoms: C_13  and  C_14 
REMARK       I    between atoms: C_14  and  N_16 
REMARK    7  A    between atoms: N_16  and  C_17 
ROOT
ATOM      1  N   UNL d   1      25.156 -15.947  -2.635  0.00  0.00    -0.380 N 
ATOM      2  H   UNL d   1      24.181 -15.682  -2.778  0.00  0.00     0.160 HD
ENDROOT
BRANCH   1   3
ATOM      3  C   UNL d   1      25.503 -16.736  -1.544  0.00  0.00     0.045 A 
ATOM      4  C   UNL d   1      26.881 -16.834  -1.238  0.00  0.00     0.030 A 
ATOM      5  C   UNL d   1      27.347 -17.578  -0.147  0.00  0.00     0.002 A 
ATOM      6  C   UNL d   1      26.444 -18.244   0.669  0.00  0.00     0.002 A 
ATOM      7  C   UNL d   1      25.087 -18.194   0.376  0.00  0.00     0.021 A 
ATOM      8  C   UNL d   1      24.596 -17.415  -0.684  0.00  0.00     0.027 A 
BRANCH   8   9
ATOM      9  S   UNL d   1      22.811 -17.517  -0.890  0.00  0.00    -0.118 SA
BRANCH   9  10
ATOM     10  C   UNL d   1      22.407 -19.177  -0.227  0.00  0.00     0.182 C 
BRANCH  10  11
ATOM     11  C   UNL d   1      20.886 -19.326  -0.142  0.00  0.00     0.225 C 
ATOM     12  N   UNL d   1      20.416 -20.257   0.735  0.00  0.00    -0.369 N 
ATOM     13  H   UNL d   1      19.410 -20.374   0.781  0.00  0.00     0.159 HD
ATOM     14  H   UNL d   1      20.994 -20.814   1.350  0.00  0.00     0.159 HD
ATOM     15  O   UNL d   1      20.067 -18.662  -0.788  0.00  0.00    -0.273 OA
ENDBRANCH  10  11
ENDBRANCH   9  10
ENDBRANCH   8   9
ENDBRANCH   1   3
BRANCH   1  16
ATOM     16  C   UNL d   1      26.117 -15.213  -3.453  0.00  0.00     0.223 C 
BRANCH  16  17
ATOM     17  C   UNL d   1      25.524 -13.934  -4.018  0.00  0.00     0.239 C 
ATOM     18  O   UNL d   1      24.320 -13.849  -4.271  0.00  0.00    -0.271 OA
ATOM     19  N   UNL d   1      26.458 -12.919  -4.240  0.00  0.00    -0.326 N 
ATOM     20  H   UNL d   1      27.451 -13.129  -4.188  0.00  0.00     0.169 HD
BRANCH  19  21
ATOM     21  C   UNL d   1      26.068 -11.624  -4.635  0.00  0.00     0.036 A 
ATOM     22  C   UNL d   1      25.865 -11.306  -5.980  0.00  0.00     0.031 A 
ATOM     23  C   UNL d   1      25.530  -9.992  -6.337  0.00  0.00     0.028 A 
ATOM     24  C   UNL d   1      25.376  -9.005  -5.354  0.00  0.00     0.055 A 
ATOM     25 CL   UNL d   1      24.884  -7.425  -5.848  0.00  0.00    -0.083 Cl
ATOM     26  C   UNL d   1      25.600  -9.322  -4.015  0.00  0.00     0.058 A 
ATOM     27 CL   UNL d   1      25.530  -8.156  -2.744  0.00  0.00    -0.082 Cl
ATOM     28  C   UNL d   1      25.938 -10.626  -3.667  0.00  0.00     0.055 A 
ENDBRANCH  19  21
ENDBRANCH  16  17
ENDBRANCH   1  16
TORSDOF 7
ENDMDL
MODEL 4
REMARK VINA RESULT:    -7.050      2.397      3.830
REMARK INTER + INTRA:         -11.910
REMARK INTER:                  -9.138
REMARK INTRA:                  -2.772
REMARK CONF_INDEPENDENT:        2.088
REMARK UNBOUND:                -2.772
REMARK  7 active torsions:
REMARK  status: ('A' for Active; 'I' for Inactive)
REMARK       I    between atoms: N_1  and  C_2 
REMARK    1  A    between atoms: C_2  and  C_4 
REMARK    2  A    between atoms: C_4  and  S_5 
REMARK    3  A    between atoms: S_5  and  C_6 
REMARK    4  A    between atoms: C_11  and  N_12 
REMARK    5  A    between atoms: N_12  and  C_13 
REMARK    6  A    between atoms: C_13  and  C_14 
REMARK       I    between atoms: C_14  and  N_16 
REMARK    7  A    between atoms: N_16  and  C_17 
ROOT
ATOM      1  N   UNL d   1      25.393 -15.569  -1.524  0.00  0.00    -0.380 N 
ATOM      2  H   UNL d   1      26.369 -15.517  -1.230  0.00  0.00     0.160 HD
ENDROOT
BRANCH   1   3
ATOM      3  C   UNL d   1      24.550 -16.517  -0.956  0.00  0.00     0.045 A 
ATOM      4  C   UNL d   1      23.159 -16.283  -1.064  0.00  0.00     0.030 A 
ATOM      5  C   UNL d   1      22.214 -17.183  -0.553  0.00  0.00     0.002 A 
ATOM      6  C   UNL d   1      22.638 -18.342   0.080  0.00  0.00     0.002 A 
ATOM      7  C   UNL d   1      23.998 -18.584   0.230  0.00  0.00     0.021 A 
ATOM      8  C   UNL d   1      24.959 -17.721  -0.317  0.00  0.00     0.027 A 
BRANCH   8   9
ATOM      9  S   UNL d   1      26.656 -18.221   0.018  0.00  0.00    -0.118 SA
BRANCH   9  10
ATOM     10  C   UNL d   1      27.440 -16.672   0.605  0.00  0.00     0.182 C 
BRANCH  10  11
ATOM     11  C   UNL d   1      28.560 -16.280  -0.363  0.00  0.00     0.225 C 
ATOM     12  N   UNL d   1      29.679 -17.058  -0.341  0.00  0.00    -0.369 N 
ATOM     13  H   UNL d   1      30.432 -16.792  -0.966  0.00  0.00     0.159 HD
ATOM     14  H   UNL d   1      29.797 -17.883   0.230  0.00  0.00     0.159 HD
ATOM     15  O   UNL d   1      28.517 -15.337  -1.160  0.00  0.00    -0.273 OA
ENDBRANCH  10  11
ENDBRANCH   9  10
ENDBRANCH   8   9
ENDBRANCH   1   3
BRANCH   1  16
ATOM     16  C   UNL d   1      25.077 -14.811  -2.732  0.00  0.00     0.223 C 
BRANCH  16  17
ATOM     17  C   UNL d   1      25.984 -15.182  -3.891  0.00  0.00     0.239 C 
ATOM     18  O   UNL d   1      25.530 -15.347  -5.026  0.00  0.00    -0.271 OA
ATOM     19  N   UNL d   1      27.327 -15.340  -3.540  0.00  0.00    -0.326 N 
ATOM     20  H   UNL d   1      27.590 -15.375  -2.559  0.00  0.00     0.169 HD
BRANCH  19  21
ATOM     21  C   UNL d   1      28.327 -15.553  -4.508  0.00  0.00     0.036 A 
ATOM     22  C   UNL d   1      28.351 -14.825  -5.700  0.00  0.00     0.031 A 
ATOM     23  C   UNL d   1      29.333 -15.105  -6.662  0.00  0.00     0.028 A 
ATOM     24  C   UNL d   1      30.299 -16.092  -6.428  0.00  0.00     0.055 A 
ATOM     25 CL   UNL d   1      31.528 -16.336  -7.615  0.00  0.00    -0.083 Cl
ATOM     26  C   UNL d   1      30.259 -16.831  -5.246  0.00  0.00     0.058 A 
ATOM     27 CL   UNL d   1      31.343 -18.130  -4.907  0.00  0.00    -0.082 Cl
ATOM     28  C   UNL d   1      29.280 -16.553  -4.296  0.00  0.00     0.055 A 
ENDBRANCH  19  21
ENDBRANCH  16  17
ENDBRANCH   1  16
TORSDOF 7
ENDMDL
MODEL 5
REMARK VINA RESULT:    -6.950      2.517      4.133
REMARK INTER + INTRA:         -11.797
REMARK INTER:                  -9.038
REMARK INTRA:                  -2.760
REMARK CONF_INDEPENDENT:        2.088
REMARK UNBOUND:                -2.760
REMARK  7 active torsions:
REMARK  status: ('A' for Active; 'I' for Inactive)
REMARK       I    between atoms: N_1  and  C_2 
REMARK    1  A    between atoms: C_2  and  C_4 
REMARK    2  A    between atoms: C_4  and  S_5 
REMARK    3  A    between atoms: S_5  and  C_6 
REMARK    4  A    between atoms: C_11  and  N_12 
REMARK    5  A    between atoms: N_12  and  C_13 
REMARK    6  A    between atoms: C_13  and  C_14 
REMARK       I    between atoms: C_14  and  N_16 
REMARK    7  A    between atoms: N_16  and  C_17 
ROOT
ATOM      1  N   UNL d   1      25.336 -15.570  -1.509  0.00  0.00    -0.380 N 
ATOM      2  H   UNL d   1      26.315 -15.513  -1.228  0.00  0.00     0.160 HD
ENDROOT
BRANCH   1   3
ATOM      3  C   UNL d   1      24.512 -16.537  -0.943  0.00  0.00     0.045 A 
ATOM      4  C   UNL d   1      23.116 -16.325  -1.042  0.00  0.00     0.030 A 
ATOM      5  C   UNL d   1      22.190 -17.244  -0.533  0.00  0.00     0.002 A 
ATOM      6  C   UNL d   1      22.636 -18.401   0.088  0.00  0.00     0.002 A 
ATOM      7  C   UNL d   1      24.000 -18.621   0.230  0.00  0.00     0.021 A 
ATOM      8  C   UNL d   1      24.944 -17.738  -0.315  0.00  0.00     0.027 A 
BRANCH   8   9
ATOM      9  S   UNL d   1      26.650 -18.213   0.007  0.00  0.00    -0.118 SA
BRANCH   9  10
ATOM     10  C   UNL d   1      27.405 -16.662   0.629  0.00  0.00     0.182 C 
BRANCH  10  11
ATOM     11  C   UNL d   1      28.520 -16.230  -0.327  0.00  0.00     0.225 C 
ATOM     12  N   UNL d   1      29.651 -16.990  -0.322  0.00  0.00    -0.369 N 
ATOM     13  H   UNL d   1      30.400 -16.697  -0.939  0.00  0.00     0.159 HD
ATOM     14  H   UNL d   1      29.781 -17.826   0.230  0.00  0.00     0.159 HD
ATOM     15  O   UNL d   1      28.462 -15.269  -1.103  0.00  0.00    -0.273 OA
ENDBRANCH  10  11
ENDBRANCH   9  10
ENDBRANCH   8   9
ENDBRANCH   1   3
BRANCH   1  16
ATOM     16  C   UNL d   1      24.993 -14.797  -2.699  0.00  0.00     0.223 C 
BRANCH  16  17
ATOM     17  C   UNL d   1      25.936 -15.082  -3.855  0.00  0.00     0.239 C 
ATOM     18  O   UNL d   1      25.512 -15.200  -5.007  0.00  0.00    -0.271 OA
ATOM     19  N   UNL d   1      27.275 -15.222  -3.481  0.00  0.00    -0.326 N 
ATOM     20  H   UNL d   1      27.517 -15.301  -2.497  0.00  0.00     0.169 HD
BRANCH  19  21
ATOM     21  C   UNL d   1      28.302 -15.357  -4.435  0.00  0.00     0.036 A 
ATOM     22  C   UNL d   1      29.276 -16.351  -4.317  0.00  0.00     0.031 A 
ATOM     23  C   UNL d   1      30.313 -16.418  -5.259  0.00  0.00     0.028 A 
ATOM     24  C   UNL d   1      30.366 -15.512  -6.326  0.00  0.00     0.055 A 
ATOM     25 CL   UNL d   1      31.621 -15.695  -7.497  0.00  0.00    -0.083 Cl
ATOM     26  C   UNL d   1      29.404 -14.508  -6.428  0.00  0.00     0.058 A 
ATOM     27 CL   UNL d   1      29.438 -13.288  -7.648  0.00  0.00    -0.082 Cl
ATOM     28  C   UNL d   1      28.380 -14.442  -5.488  0.00  0.00     0.055 A 
ENDBRANCH  19  21
ENDBRANCH  16  17
ENDBRANCH   1  16
TORSDOF 7
ENDMDL
MODEL 6
REMARK VINA RESULT:    -6.938      4.988      7.552
REMARK INTER + INTRA:         -10.873
REMARK INTER:                  -9.026
REMARK INTRA:                  -1.847
REMARK CONF_INDEPENDENT:        2.088
REMARK UNBOUND:                -1.847
REMARK  7 active torsions:
REMARK  status: ('A' for Active; 'I' for Inactive)
REMARK       I    between atoms: N_1  and  C_2 
REMARK    1  A    between atoms: C_2  and  C_4 
REMARK    2  A    between atoms: C_4  and  S_5 
REMARK    3  A    between atoms: S_5  and  C_6 
REMARK    4  A    between atoms: C_11  and  N_12 
REMARK    5  A    between atoms: N_12  and  C_13 
REMARK    6  A    between atoms: C_13  and  C_14 
REMARK       I    between atoms: C_14  and  N_16 
REMARK    7  A    between atoms: N_16  and  C_17 
ROOT
ATOM      1  N   UNL d   1      26.919 -17.357  -0.823  0.00  0.00    -0.380 N 
ATOM      2  H   UNL d   1      27.400 -17.397  -1.722  0.00  0.00     0.160 HD
ENDROOT
BRANCH   1   3
ATOM      3  C   UNL d   1      25.529 -17.371  -0.784  0.00  0.00     0.045 A 
ATOM      4  C   UNL d   1      24.918 -18.476  -0.144  0.00  0.00     0.030 A 
ATOM      5  C   UNL d   1      23.527 -18.584  -0.021  0.00  0.00     0.002 A 
ATOM      6  C   UNL d   1      22.710 -17.588  -0.533  0.00  0.00     0.002 A 
ATOM      7  C   UNL d   1      23.278 -16.507  -1.195  0.00  0.00     0.021 A 
ATOM      8  C   UNL d   1      24.670 -16.355  -1.287  0.00  0.00     0.027 A 
BRANCH   8   9
ATOM      9  S   UNL d   1      25.180 -14.892  -2.204  0.00  0.00    -0.118 SA
BRANCH   9  10
ATOM     10  C   UNL d   1      25.530 -15.550  -3.879  0.00  0.00     0.182 C 
BRANCH  10  11
ATOM     11  C   UNL d   1      26.973 -15.207  -4.260  0.00  0.00     0.225 C 
ATOM     12  N   UNL d   1      27.802 -14.855  -3.237  0.00  0.00    -0.369 N 
ATOM     13  H   UNL d   1      28.753 -14.608  -3.485  0.00  0.00     0.159 HD
ATOM     14  H   UNL d   1      27.542 -14.848  -2.260  0.00  0.00     0.159 HD
ATOM     15  O   UNL d   1      27.436 -15.241  -5.405  0.00  0.00    -0.273 OA
ENDBRANCH  10  11
ENDBRANCH   9  10
ENDBRANCH   8   9
ENDBRANCH   1   3
BRANCH   1  16
ATOM     16  C   UNL d   1      27.767 -16.998   0.310  0.00  0.00     0.223 C 
BRANCH  16  17
ATOM     17  C   UNL d   1      27.638 -15.530   0.675  0.00  0.00     0.239 C 
ATOM     18  O   UNL d   1      27.243 -14.702  -0.150  0.00  0.00    -0.271 OA
ATOM     19  N   UNL d   1      28.029 -15.227   1.982  0.00  0.00    -0.326 N 
ATOM     20  H   UNL d   1      28.520 -15.925   2.534  0.00  0.00     0.169 HD
BRANCH  19  21
ATOM     21  C   UNL d   1      27.852 -13.943   2.531  0.00  0.00     0.036 A 
ATOM     22  C   UNL d   1      27.640 -12.828   1.717  0.00  0.00     0.031 A 
ATOM     23  C   UNL d   1      27.523 -11.558   2.301  0.00  0.00     0.028 A 
ATOM     24  C   UNL d   1      27.594 -11.404   3.691  0.00  0.00     0.055 A 
ATOM     25 CL   UNL d   1      27.362  -9.827   4.355  0.00  0.00    -0.083 Cl
ATOM     26  C   UNL d   1      27.826 -12.516   4.499  0.00  0.00     0.058 A 
ATOM     27 CL   UNL d   1      28.025 -12.416   6.210  0.00  0.00    -0.082 Cl
ATOM     28  C   UNL d   1      27.947 -13.774   3.915  0.00  0.00     0.055 A 
ENDBRANCH  19  21
ENDBRANCH  16  17
ENDBRANCH   1  16
TORSDOF 7
ENDMDL
MODEL 7
REMARK VINA RESULT:    -6.569      4.291      5.794
REMARK INTER + INTRA:         -10.998
REMARK INTER:                  -8.657
REMARK INTRA:                  -2.341
REMARK CONF_INDEPENDENT:        2.088
REMARK UNBOUND:                -2.341
REMARK  7 active torsions:
REMARK  status: ('A' for Active; 'I' for Inactive)
REMARK       I    between atoms: N_1  and  C_2 
REMARK    1  A    between atoms: C_2  and  C_4 
REMARK    2  A    between atoms: C_4  and  S_5 
REMARK    3  A    between atoms: S_5  and  C_6 
REMARK    4  A    between atoms: C_11  and  N_12 
REMARK    5  A    between atoms: N_12  and  C_13 
REMARK    6  A    between atoms: C_13  and  C_14 
REMARK       I    between atoms: C_14  and  N_16 
REMARK    7  A    between atoms: N_16  and  C_17 
ROOT
ATOM      1  N   UNL d   1      25.411 -15.896  -1.679  0.00  0.00    -0.380 N 
ATOM      2  H   UNL d   1      26.152 -15.421  -1.164  0.00  0.00     0.160 HD
ENDROOT
BRANCH   1   3
ATOM      3  C   UNL d   1      24.526 -16.729  -1.004  0.00  0.00     0.045 A 
ATOM      4  C   UNL d   1      23.145 -16.488  -1.200  0.00  0.00     0.030 A 
ATOM      5  C   UNL d   1      22.162 -17.280  -0.593  0.00  0.00     0.002 A 
ATOM      6  C   UNL d   1      22.535 -18.334   0.227  0.00  0.00     0.002 A 
ATOM      7  C   UNL d   1      23.882 -18.575   0.466  0.00  0.00     0.021 A 
ATOM      8  C   UNL d   1      24.883 -17.825  -0.171  0.00  0.00     0.027 A 
BRANCH   8   9
ATOM      9  S   UNL d   1      26.554 -18.298   0.303  0.00  0.00    -0.118 SA
BRANCH   9  10
ATOM     10  C   UNL d   1      27.361 -16.690   0.652  0.00  0.00     0.182 C 
BRANCH  10  11
ATOM     11  C   UNL d   1      28.363 -16.380  -0.462  0.00  0.00     0.225 C 
ATOM     12  N   UNL d   1      29.531 -17.082  -0.440  0.00  0.00    -0.369 N 
ATOM     13  H   UNL d   1      30.206 -16.868  -1.164  0.00  0.00     0.159 HD
ATOM     14  H   UNL d   1      29.754 -17.808   0.227  0.00  0.00     0.159 HD
ATOM     15  O   UNL d   1      28.186 -15.566  -1.376  0.00  0.00    -0.273 OA
ENDBRANCH  10  11
ENDBRANCH   9  10
ENDBRANCH   8   9
ENDBRANCH   1   3
BRANCH   1  16
ATOM     16  C   UNL d   1      25.554 -15.860  -3.132  0.00  0.00     0.223 C 
BRANCH  16  17
ATOM     17  C   UNL d   1      25.518 -14.442  -3.674  0.00  0.00     0.239 C 
ATOM     18  O   UNL d   1      24.780 -14.140  -4.614  0.00  0.00    -0.271 OA
ATOM     19  N   UNL d   1      26.397 -13.562  -3.037  0.00  0.00    -0.326 N 
ATOM     20  H   UNL d   1      27.104 -13.928  -2.405  0.00  0.00     0.169 HD
BRANCH  19  21
ATOM     21  C   UNL d   1      26.401 -12.183  -3.320  0.00  0.00     0.036 A 
ATOM     22  C   UNL d   1      26.675 -11.240  -2.326  0.00  0.00     0.031 A 
ATOM     23  C   UNL d   1      26.615  -9.873  -2.636  0.00  0.00     0.028 A 
ATOM     24  C   UNL d   1      26.307  -9.449  -3.935  0.00  0.00     0.055 A 
ATOM     25 CL   UNL d   1      26.329  -7.756  -4.273  0.00  0.00    -0.083 Cl
ATOM     26  C   UNL d   1      26.015 -10.394  -4.918  0.00  0.00     0.058 A 
ATOM     27 CL   UNL d   1      25.531  -9.971  -6.520  0.00  0.00    -0.082 Cl
ATOM     28  C   UNL d   1      26.069 -11.749  -4.605  0.00  0.00     0.055 A 
ENDBRANCH  19  21
ENDBRANCH  16  17
ENDBRANCH   1  16
TORSDOF 7
ENDMDL
MODEL 8
REMARK VINA RESULT:    -6.267      4.104      7.048
REMARK INTER + INTRA:         -10.845
REMARK INTER:                  -8.355
REMARK INTRA:                  -2.490
REMARK CONF_INDEPENDENT:        2.088
REMARK UNBOUND:                -2.490
REMARK  7 active torsions:
REMARK  status: ('A' for Active; 'I' for Inactive)
REMARK       I    between atoms: N_1  and  C_2 
REMARK    1  A    between atoms: C_2  and  C_4 
REMARK    2  A    between atoms: C_4  and  S_5 
REMARK    3  A    between atoms: S_5  and  C_6 
REMARK    4  A    between atoms: C_11  and  N_12 
REMARK    5  A    between atoms: N_12  and  C_13 
REMARK    6  A    between atoms: C_13  and  C_14 
REMARK       I    between atoms: C_14  and  N_16 
REMARK    7  A    between atoms: N_16  and  C_17 
ROOT
ATOM      1  N   UNL d   1      29.894 -14.884  -4.626  0.00  0.00    -0.380 N 
ATOM      2  H   UNL d   1      30.629 -14.265  -4.283  0.00  0.00     0.160 HD
ENDROOT
BRANCH   1   3
ATOM      3  C   UNL d   1      30.215 -16.170  -5.047  0.00  0.00     0.045 A 
ATOM      4  C   UNL d   1      30.589 -16.324  -6.403  0.00  0.00     0.030 A 
ATOM      5  C   UNL d   1      30.959 -17.567  -6.933  0.00  0.00     0.002 A 
ATOM      6  C   UNL d   1      30.965 -18.689  -6.119  0.00  0.00     0.002 A 
ATOM      7  C   UNL d   1      30.572 -18.576  -4.791  0.00  0.00     0.021 A 
ATOM      8  C   UNL d   1      30.245 -17.333  -4.228  0.00  0.00     0.027 A 
BRANCH   8   9
ATOM      9  S   UNL d   1      29.747 -17.428  -2.501  0.00  0.00    -0.118 SA
BRANCH   9  10
ATOM     10  C   UNL d   1      30.669 -16.047  -1.723  0.00  0.00     0.182 C 
BRANCH  10  11
ATOM     11  C   UNL d   1      29.831 -15.467  -0.581  0.00  0.00     0.225 C 
ATOM     12  N   UNL d   1      29.858 -16.151   0.598  0.00  0.00    -0.369 N 
ATOM     13  H   UNL d   1      29.289 -15.782   1.352  0.00  0.00     0.159 HD
ATOM     14  H   UNL d   1      30.416 -16.975   0.774  0.00  0.00     0.159 HD
ATOM     15  O   UNL d   1      29.158 -14.432  -0.643  0.00  0.00    -0.273 OA
ENDBRANCH  10  11
ENDBRANCH   9  10
ENDBRANCH   8   9
ENDBRANCH   1   3
BRANCH   1  16
ATOM     16  C   UNL d   1      28.619 -14.227  -4.900  0.00  0.00     0.223 C 
BRANCH  16  17
ATOM     17  C   UNL d   1      27.445 -15.003  -4.331  0.00  0.00     0.239 C 
ATOM     18  O   UNL d   1      26.642 -15.575  -5.073  0.00  0.00    -0.271 OA
ATOM     19  N   UNL d   1      27.359 -14.973  -2.937  0.00  0.00    -0.326 N 
ATOM     20  H   UNL d   1      27.942 -14.327  -2.411  0.00  0.00     0.169 HD
BRANCH  19  21
ATOM     21  C   UNL d   1      26.413 -15.744  -2.235  0.00  0.00     0.036 A 
ATOM     22  C   UNL d   1      25.042 -15.540  -2.402  0.00  0.00     0.031 A 
ATOM     23  C   UNL d   1      24.133 -16.292  -1.643  0.00  0.00     0.028 A 
ATOM     24  C   UNL d   1      24.590 -17.259  -0.738  0.00  0.00     0.055 A 
ATOM     25 CL   UNL d   1      23.421 -18.208   0.108  0.00  0.00    -0.083 Cl
ATOM     26  C   UNL d   1      25.960 -17.445  -0.559  0.00  0.00     0.058 A 
ATOM     27 CL   UNL d   1      26.620 -18.541   0.599  0.00  0.00    -0.082 Cl
ATOM     28  C   UNL d   1      26.858 -16.693  -1.310  0.00  0.00     0.055 A 
ENDBRANCH  19  21
ENDBRANCH  16  17
ENDBRANCH   1  16
TORSDOF 7
ENDMDL
MODEL 9
REMARK VINA RESULT:    -5.940      5.004      6.777
REMARK INTER + INTRA:         -10.802
REMARK INTER:                  -8.028
REMARK INTRA:                  -2.774
REMARK CONF_INDEPENDENT:        2.088
REMARK UNBOUND:                -2.774
REMARK  7 active torsions:
REMARK  status: ('A' for Active; 'I' for Inactive)
REMARK       I    between atoms: N_1  and  C_2 
REMARK    1  A    between atoms: C_2  and  C_4 
REMARK    2  A    between atoms: C_4  and  S_5 
REMARK    3  A    between atoms: S_5  and  C_6 
REMARK    4  A    between atoms: C_11  and  N_12 
REMARK    5  A    between atoms: N_12  and  C_13 
REMARK    6  A    between atoms: C_13  and  C_14 
REMARK       I    between atoms: C_14  and  N_16 
REMARK    7  A    between atoms: N_16  and  C_17 
ROOT
ATOM      1  N   UNL d   1      26.108 -16.220  -2.035  0.00  0.00    -0.380 N 
ATOM      2  H   UNL d   1      26.852 -16.825  -2.382  0.00  0.00     0.160 HD
ENDROOT
BRANCH   1   3
ATOM      3  C   UNL d   1      25.063 -16.764  -1.298  0.00  0.00     0.045 A 
ATOM      4  C   UNL d   1      23.766 -16.258  -1.557  0.00  0.00     0.030 A 
ATOM      5  C   UNL d   1      22.634 -16.749  -0.895  0.00  0.00     0.002 A 
ATOM      6  C   UNL d   1      22.768 -17.760   0.044  0.00  0.00     0.002 A 
ATOM      7  C   UNL d   1      24.031 -18.255   0.344  0.00  0.00     0.021 A 
ATOM      8  C   UNL d   1      25.172 -17.812  -0.343  0.00  0.00     0.027 A 
BRANCH   8   9
ATOM      9  S   UNL d   1      26.701 -18.575   0.224  0.00  0.00    -0.118 SA
BRANCH   9  10
ATOM     10  C   UNL d   1      27.799 -17.139   0.527  0.00  0.00     0.182 C 
BRANCH  10  11
ATOM     11  C   UNL d   1      28.830 -17.052  -0.601  0.00  0.00     0.225 C 
ATOM     12  N   UNL d   1      29.890 -17.906  -0.520  0.00  0.00    -0.369 N 
ATOM     13  H   UNL d   1      30.586 -17.840  -1.253  0.00  0.00     0.159 HD
ATOM     14  H   UNL d   1      30.012 -18.606   0.199  0.00  0.00     0.159 HD
ATOM     15  O   UNL d   1      28.765 -16.289  -1.571  0.00  0.00    -0.273 OA
ENDBRANCH  10  11
ENDBRANCH   9  10
ENDBRANCH   8   9
ENDBRANCH   1   3
BRANCH   1  16
ATOM     16  C   UNL d   1      26.091 -14.878  -2.613  0.00  0.00     0.223 C 
BRANCH  16  17
ATOM     17  C   UNL d   1      26.335 -13.805  -1.566  0.00  0.00     0.239 C 
ATOM     18  O   UNL d   1      26.027 -12.630  -1.778  0.00  0.00    -0.271 OA
ATOM     19  N   UNL d   1      26.947 -14.270  -0.400  0.00  0.00    -0.326 N 
ATOM     20  H   UNL d   1      27.341 -15.207  -0.378  0.00  0.00     0.169 HD
BRANCH  19  21
ATOM     21  C   UNL d   1      27.127 -13.442   0.725  0.00  0.00     0.036 A 
ATOM     22  C   UNL d   1      27.208 -12.053   0.598  0.00  0.00     0.031 A 
ATOM     23  C   UNL d   1      27.442 -11.267   1.736  0.00  0.00     0.028 A 
ATOM     24  C   UNL d   1      27.574 -11.862   2.998  0.00  0.00     0.055 A 
ATOM     25 CL   UNL d   1      27.781 -10.837   4.371  0.00  0.00    -0.083 Cl
ATOM     26  C   UNL d   1      27.514 -13.250   3.116  0.00  0.00     0.058 A 
ATOM     27 CL   UNL d   1      27.759 -14.082   4.609  0.00  0.00    -0.082 Cl
ATOM     28  C   UNL d   1      27.286 -14.026   1.984  0.00  0.00     0.055 A 
ENDBRANCH  19  21
ENDBRANCH  16  17
ENDBRANCH   1  16
TORSDOF 7
ENDMDL
