MODEL 1
REMARK VINA RESULT:    -7.516      0.000      0.000
REMARK INTER + INTRA:         -10.752
REMARK INTER:                  -9.007
REMARK INTRA:                  -1.745
REMARK CONF_INDEPENDENT:        1.492
REMARK UNBOUND:                -1.745
REMARK  5 active torsions:
REMARK  status: ('A' for Active; 'I' for Inactive)
REMARK    1  A    between atoms: C_6  and  C_3 
REMARK    2  A    between atoms: C_6  and  C_13 
REMARK    3  A    between atoms: C_6  and  C_7 
REMARK    4  A    between atoms: C_14  and  O_15 
REMARK    5  A    between atoms: C_18  and  C_19 
ROOT
ATOM      1  N   UNL d   1      24.189 -14.125  -3.754  0.00  0.00    -0.196 NA
ATOM      2  C   UNL d   1      25.191 -14.133  -3.156  0.00  0.00     0.079 C 
ATOM      3  C   UNL d   1      26.472 -14.311  -2.478  0.00  0.00     0.212 C 
ATOM      4  C   UNL d   1      27.239 -15.136  -3.402  0.00  0.00     0.079 C 
ATOM      5  N   UNL d   1      27.944 -15.693  -4.133  0.00  0.00    -0.196 NA
ENDROOT
BRANCH   3   6
ATOM      6  C   UNL d   1      26.210 -14.767  -1.023  0.00  0.00     0.090 C 
BRANCH   6   7
ATOM      7  C   UNL d   1      26.653 -16.129  -0.484  0.00  0.00     0.036 A 
ATOM      8  C   UNL d   1      27.906 -16.651  -0.062  0.00  0.00     0.191 A 
ATOM      9  N   UNL d   1      27.907 -17.940   0.220  0.00  0.00    -0.148 NA
ATOM     10  N   UNL d   1      26.646 -18.294   0.047  0.00  0.00    -0.274 N 
ATOM     11  C   UNL d   1      25.830 -17.262  -0.336  0.00  0.00     0.071 A 
ATOM     12  H   UNL d   1      26.419 -19.271   0.197  0.00  0.00     0.189 HD
BRANCH   8  13
ATOM     13  O   UNL d   1      29.116 -16.143   0.126  0.00  0.00    -0.343 OA
ATOM     14  H   UNL d   1      29.501 -16.326   0.990  0.00  0.00     0.219 HD
ENDBRANCH   8  13
BRANCH  11  15
ATOM     15  C   UNL d   1      24.409 -17.499  -0.564  0.00  0.00    -0.007 A 
ATOM     16  C   UNL d   1      23.528 -16.434  -0.793  0.00  0.00     0.014 A 
ATOM     17  C   UNL d   1      22.155 -16.671  -0.895  0.00  0.00     0.001 A 
ATOM     18  C   UNL d   1      21.671 -17.978  -0.891  0.00  0.00     0.000 A 
ATOM     19  C   UNL d   1      22.547 -19.044  -0.702  0.00  0.00     0.001 A 
ATOM     20  C   UNL d   1      23.908 -18.802  -0.521  0.00  0.00     0.014 A 
ENDBRANCH  11  15
ENDBRANCH   6   7
BRANCH   6  21
ATOM     21  C   UNL d   1      26.835 -13.721  -0.068  0.00  0.00    -0.047 A 
ATOM     22  C   UNL d   1      27.760 -12.779  -0.547  0.00  0.00     0.008 A 
ATOM     23  C   UNL d   1      28.437 -11.934   0.333  0.00  0.00     0.001 A 
ATOM     24  C   UNL d   1      28.112 -11.923   1.686  0.00  0.00     0.000 A 
ATOM     25  C   UNL d   1      27.155 -12.807   2.175  0.00  0.00     0.001 A 
ATOM     26  C   UNL d   1      26.514 -13.698   1.305  0.00  0.00     0.008 A 
ENDBRANCH   6  21
ENDBRANCH   3   6
TORSDOF 5
ENDMDL
MODEL 2
REMARK VINA RESULT:    -7.129      2.527      5.775
REMARK INTER + INTRA:         -10.496
REMARK INTER:                  -8.621
REMARK INTRA:                  -1.875
REMARK CONF_INDEPENDENT:        1.492
REMARK UNBOUND:                -1.875
REMARK  5 active torsions:
REMARK  status: ('A' for Active; 'I' for Inactive)
REMARK    1  A    between atoms: C_6  and  C_3 
REMARK    2  A    between atoms: C_6  and  C_13 
REMARK    3  A    between atoms: C_6  and  C_7 
REMARK    4  A    between atoms: C_14  and  O_15 
REMARK    5  A    between atoms: C_18  and  C_19 
ROOT
ATOM      1  N   UNL d   1      26.290 -13.071   1.797  0.00  0.00    -0.196 NA
ATOM      2  C   UNL d   1      26.636 -13.718   0.890  0.00  0.00     0.079 C 
ATOM      3  C   UNL d   1      27.116 -14.368  -0.326  0.00  0.00     0.212 C 
ATOM      4  C   UNL d   1      28.192 -13.498  -0.781  0.00  0.00     0.079 C 
ATOM      5  N   UNL d   1      29.127 -12.917  -1.139  0.00  0.00    -0.196 NA
ENDROOT
BRANCH   3   6
ATOM      6  C   UNL d   1      25.905 -14.689  -1.234  0.00  0.00     0.090 C 
BRANCH   6   7
ATOM      7  C   UNL d   1      26.007 -14.782  -2.758  0.00  0.00     0.036 A 
ATOM      8  C   UNL d   1      25.120 -14.449  -3.818  0.00  0.00     0.191 A 
ATOM      9  N   UNL d   1      25.530 -14.805  -5.020  0.00  0.00    -0.148 NA
ATOM     10  N   UNL d   1      26.720 -15.332  -4.798  0.00  0.00    -0.274 N 
ATOM     11  C   UNL d   1      27.092 -15.319  -3.478  0.00  0.00     0.071 A 
ATOM     12  H   UNL d   1      27.220 -15.695  -5.602  0.00  0.00     0.189 HD
BRANCH   8  13
ATOM     13  O   UNL d   1      23.943 -13.846  -3.897  0.00  0.00    -0.343 OA
ATOM     14  H   UNL d   1      23.619 -13.708  -4.794  0.00  0.00     0.219 HD
ENDBRANCH   8  13
BRANCH  11  15
ATOM     15  C   UNL d   1      28.383 -15.866  -3.077  0.00  0.00    -0.007 A 
ATOM     16  C   UNL d   1      28.496 -16.700  -1.957  0.00  0.00     0.014 A 
ATOM     17  C   UNL d   1      29.755 -17.120  -1.522  0.00  0.00     0.001 A 
ATOM     18  C   UNL d   1      30.890 -16.811  -2.270  0.00  0.00     0.000 A 
ATOM     19  C   UNL d   1      30.779 -16.014  -3.406  0.00  0.00     0.001 A 
ATOM     20  C   UNL d   1      29.532 -15.529  -3.795  0.00  0.00     0.014 A 
ENDBRANCH  11  15
ENDBRANCH   6   7
BRANCH   6  21
ATOM     21  C   UNL d   1      25.302 -16.041  -0.778  0.00  0.00    -0.047 A 
ATOM     22  C   UNL d   1      26.062 -16.939  -0.011  0.00  0.00     0.008 A 
ATOM     23  C   UNL d   1      25.579 -18.216   0.276  0.00  0.00     0.001 A 
ATOM     24  C   UNL d   1      24.284 -18.575  -0.085  0.00  0.00     0.000 A 
ATOM     25  C   UNL d   1      23.490 -17.679  -0.794  0.00  0.00     0.001 A 
ATOM     26  C   UNL d   1      23.991 -16.416  -1.135  0.00  0.00     0.008 A 
ENDBRANCH   6  21
ENDBRANCH   3   6
TORSDOF 5
ENDMDL
MODEL 3
REMARK VINA RESULT:    -6.962      2.280      5.405
REMARK INTER + INTRA:         -10.018
REMARK INTER:                  -8.453
REMARK INTRA:                  -1.565
REMARK CONF_INDEPENDENT:        1.492
REMARK UNBOUND:                -1.565
REMARK  5 active torsions:
REMARK  status: ('A' for Active; 'I' for Inactive)
REMARK    1  A    between atoms: C_6  and  C_3 
REMARK    2  A    between atoms: C_6  and  C_13 
REMARK    3  A    between atoms: C_6  and  C_7 
REMARK    4  A    between atoms: C_14  and  O_15 
REMARK    5  A    between atoms: C_18  and  C_19 
ROOT
ATOM      1  N   UNL d   1      24.779 -14.178  -4.645  0.00  0.00    -0.196 NA
ATOM      2  C   UNL d   1      25.179 -14.287  -3.555  0.00  0.00     0.079 C 
ATOM      3  C   UNL d   1      25.835 -14.343  -2.252  0.00  0.00     0.212 C 
ATOM      4  C   UNL d   1      26.675 -13.153  -2.237  0.00  0.00     0.079 C 
ATOM      5  N   UNL d   1      27.278 -12.172  -2.109  0.00  0.00    -0.196 NA
ENDROOT
BRANCH   3   6
ATOM      6  C   UNL d   1      26.439 -15.754  -2.055  0.00  0.00     0.090 C 
BRANCH   6   7
ATOM      7  C   UNL d   1      27.805 -15.993  -1.408  0.00  0.00     0.036 A 
ATOM      8  C   UNL d   1      28.263 -15.986  -0.062  0.00  0.00     0.191 A 
ATOM      9  N   UNL d   1      29.568 -16.111   0.083  0.00  0.00    -0.148 NA
ATOM     10  N   UNL d   1      30.004 -16.261  -1.154  0.00  0.00    -0.274 N 
ATOM     11  C   UNL d   1      29.009 -16.240  -2.097  0.00  0.00     0.071 A 
ATOM     12  H   UNL d   1      31.005 -16.360  -1.280  0.00  0.00     0.189 HD
BRANCH   8  13
ATOM     13  O   UNL d   1      27.680 -15.881   1.123  0.00  0.00    -0.343 OA
ATOM     14  H   UNL d   1      28.205 -16.208   1.862  0.00  0.00     0.219 HD
ENDBRANCH   8  13
BRANCH  11  15
ATOM     15  C   UNL d   1      29.336 -16.396  -3.510  0.00  0.00    -0.007 A 
ATOM     16  C   UNL d   1      30.142 -17.453  -3.950  0.00  0.00     0.014 A 
ATOM     17  C   UNL d   1      30.538 -17.521  -5.288  0.00  0.00     0.001 A 
ATOM     18  C   UNL d   1      30.033 -16.606  -6.211  0.00  0.00     0.000 A 
ATOM     19  C   UNL d   1      29.199 -15.575  -5.785  0.00  0.00     0.001 A 
ATOM     20  C   UNL d   1      28.869 -15.462  -4.436  0.00  0.00     0.014 A 
ENDBRANCH  11  15
ENDBRANCH   6   7
BRANCH   6  21
ATOM     21  C   UNL d   1      25.438 -16.599  -1.230  0.00  0.00    -0.047 A 
ATOM     22  C   UNL d   1      25.874 -17.727  -0.516  0.00  0.00     0.008 A 
ATOM     23  C   UNL d   1      24.957 -18.575   0.105  0.00  0.00     0.001 A 
ATOM     24  C   UNL d   1      23.605 -18.247   0.135  0.00  0.00     0.000 A 
ATOM     25  C   UNL d   1      23.156 -17.102  -0.515  0.00  0.00     0.001 A 
ATOM     26  C   UNL d   1      24.066 -16.277  -1.189  0.00  0.00     0.008 A 
ENDBRANCH   6  21
ENDBRANCH   3   6
TORSDOF 5
ENDMDL
MODEL 4
REMARK VINA RESULT:    -6.683      2.265      3.899
REMARK INTER + INTRA:          -9.796
REMARK INTER:                  -8.174
REMARK INTRA:                  -1.622
REMARK CONF_INDEPENDENT:        1.492
REMARK UNBOUND:                -1.622
REMARK  5 active torsions:
REMARK  status: ('A' for Active; 'I' for Inactive)
REMARK    1  A    between atoms: C_6  and  C_3 
REMARK    2  A    between atoms: C_6  and  C_13 
REMARK    3  A    between atoms: C_6  and  C_7 
REMARK    4  A    between atoms: C_14  and  O_15 
REMARK    5  A    between atoms: C_18  and  C_19 
ROOT
ATOM      1  N   UNL d   1      27.528 -15.156  -6.145  0.00  0.00    -0.196 NA
ATOM      2  C   UNL d   1      27.109 -15.233  -5.059  0.00  0.00     0.079 C 
ATOM      3  C   UNL d   1      26.500 -15.169  -3.734  0.00  0.00     0.212 C 
ATOM      4  C   UNL d   1      25.229 -14.497  -3.971  0.00  0.00     0.079 C 
ATOM      5  N   UNL d   1      24.159 -14.073  -4.101  0.00  0.00    -0.196 NA
ENDROOT
BRANCH   3   6
ATOM      6  C   UNL d   1      27.533 -14.600  -2.733  0.00  0.00     0.090 C 
BRANCH   6   7
ATOM      7  C   UNL d   1      27.153 -14.093  -1.340  0.00  0.00     0.036 A 
ATOM      8  C   UNL d   1      27.530 -12.952  -0.580  0.00  0.00     0.191 A 
ATOM      9  N   UNL d   1      27.077 -12.933   0.658  0.00  0.00    -0.148 NA
ATOM     10  N   UNL d   1      26.344 -14.028   0.737  0.00  0.00    -0.274 N 
ATOM     11  C   UNL d   1      26.309 -14.753  -0.426  0.00  0.00     0.071 A 
ATOM     12  H   UNL d   1      25.905 -14.225   1.629  0.00  0.00     0.189 HD
BRANCH   8  13
ATOM     13  O   UNL d   1      28.249 -11.865  -0.820  0.00  0.00    -0.343 OA
ATOM     14  H   UNL d   1      28.488 -11.358  -0.037  0.00  0.00     0.219 HD
ENDBRANCH   8  13
BRANCH  11  15
ATOM     15  C   UNL d   1      25.537 -15.989  -0.495  0.00  0.00    -0.007 A 
ATOM     16  C   UNL d   1      24.362 -16.064  -1.253  0.00  0.00     0.014 A 
ATOM     17  C   UNL d   1      23.576 -17.218  -1.214  0.00  0.00     0.001 A 
ATOM     18  C   UNL d   1      24.023 -18.342  -0.520  0.00  0.00     0.000 A 
ATOM     19  C   UNL d   1      25.211 -18.286   0.204  0.00  0.00     0.001 A 
ATOM     20  C   UNL d   1      25.954 -17.108   0.230  0.00  0.00     0.014 A 
ENDBRANCH  11  15
ENDBRANCH   6   7
BRANCH   6  21
ATOM     21  C   UNL d   1      28.622 -15.676  -2.498  0.00  0.00    -0.047 A 
ATOM     22  C   UNL d   1      29.568 -15.963  -3.494  0.00  0.00     0.008 A 
ATOM     23  C   UNL d   1      30.455 -17.030  -3.348  0.00  0.00     0.001 A 
ATOM     24  C   UNL d   1      30.502 -17.746  -2.156  0.00  0.00     0.000 A 
ATOM     25  C   UNL d   1      29.613 -17.441  -1.130  0.00  0.00     0.001 A 
ATOM     26  C   UNL d   1      28.681 -16.408  -1.294  0.00  0.00     0.008 A 
ENDBRANCH   6  21
ENDBRANCH   3   6
TORSDOF 5
ENDMDL
MODEL 5
REMARK VINA RESULT:    -6.599      2.488      5.695
REMARK INTER + INTRA:          -9.886
REMARK INTER:                  -8.090
REMARK INTRA:                  -1.796
REMARK CONF_INDEPENDENT:        1.492
REMARK UNBOUND:                -1.796
REMARK  5 active torsions:
REMARK  status: ('A' for Active; 'I' for Inactive)
REMARK    1  A    between atoms: C_6  and  C_3 
REMARK    2  A    between atoms: C_6  and  C_13 
REMARK    3  A    between atoms: C_6  and  C_7 
REMARK    4  A    between atoms: C_14  and  O_15 
REMARK    5  A    between atoms: C_18  and  C_19 
ROOT
ATOM      1  N   UNL d   1      27.442 -15.200  -5.770  0.00  0.00    -0.196 NA
ATOM      2  C   UNL d   1      26.777 -15.377  -4.828  0.00  0.00     0.079 C 
ATOM      3  C   UNL d   1      25.905 -15.417  -3.658  0.00  0.00     0.212 C 
ATOM      4  C   UNL d   1      24.897 -14.405  -3.944  0.00  0.00     0.079 C 
ATOM      5  N   UNL d   1      24.002 -13.700  -4.153  0.00  0.00    -0.196 NA
ENDROOT
BRANCH   3   6
ATOM      6  C   UNL d   1      26.775 -15.345  -2.381  0.00  0.00     0.090 C 
BRANCH   6   7
ATOM      7  C   UNL d   1      26.952 -14.062  -1.565  0.00  0.00     0.036 A 
ATOM      8  C   UNL d   1      26.992 -13.790  -0.170  0.00  0.00     0.191 A 
ATOM      9  N   UNL d   1      27.030 -12.510   0.148  0.00  0.00    -0.148 NA
ATOM     10  N   UNL d   1      27.074 -11.902  -1.024  0.00  0.00    -0.274 N 
ATOM     11  C   UNL d   1      27.070 -12.761  -2.092  0.00  0.00     0.071 A 
ATOM     12  H   UNL d   1      27.093 -10.889  -1.015  0.00  0.00     0.189 HD
BRANCH   8  13
ATOM     13  O   UNL d   1      27.000 -14.533   0.927  0.00  0.00    -0.343 OA
ATOM     14  H   UNL d   1      27.762 -15.116   1.014  0.00  0.00     0.219 HD
ENDBRANCH   8  13
BRANCH  11  15
ATOM     15  C   UNL d   1      27.117 -12.237  -3.453  0.00  0.00    -0.007 A 
ATOM     16  C   UNL d   1      26.066 -11.465  -3.964  0.00  0.00     0.014 A 
ATOM     17  C   UNL d   1      26.077 -11.069  -5.304  0.00  0.00     0.001 A 
ATOM     18  C   UNL d   1      27.190 -11.336  -6.101  0.00  0.00     0.000 A 
ATOM     19  C   UNL d   1      28.255 -12.070  -5.585  0.00  0.00     0.001 A 
ATOM     20  C   UNL d   1      28.209 -12.533  -4.272  0.00  0.00     0.014 A 
ENDBRANCH  11  15
ENDBRANCH   6   7
BRANCH   6  21
ATOM     21  C   UNL d   1      26.255 -16.404  -1.379  0.00  0.00    -0.047 A 
ATOM     22  C   UNL d   1      24.879 -16.660  -1.261  0.00  0.00     0.008 A 
ATOM     23  C   UNL d   1      24.394 -17.501  -0.259  0.00  0.00     0.001 A 
ATOM     24  C   UNL d   1      25.276 -18.200   0.559  0.00  0.00     0.000 A 
ATOM     25  C   UNL d   1      26.648 -18.008   0.422  0.00  0.00     0.001 A 
ATOM     26  C   UNL d   1      27.138 -17.120  -0.545  0.00  0.00     0.008 A 
ENDBRANCH   6  21
ENDBRANCH   3   6
TORSDOF 5
ENDMDL
MODEL 6
REMARK VINA RESULT:    -6.270      2.452      5.490
REMARK INTER + INTRA:          -9.876
REMARK INTER:                  -7.761
REMARK INTRA:                  -2.115
REMARK CONF_INDEPENDENT:        1.492
REMARK UNBOUND:                -2.115
REMARK  5 active torsions:
REMARK  status: ('A' for Active; 'I' for Inactive)
REMARK    1  A    between atoms: C_6  and  C_3 
REMARK    2  A    between atoms: C_6  and  C_13 
REMARK    3  A    between atoms: C_6  and  C_7 
REMARK    4  A    between atoms: C_14  and  O_15 
REMARK    5  A    between atoms: C_18  and  C_19 
ROOT
ATOM      1  N   UNL d   1      23.406 -16.426  -0.921  0.00  0.00    -0.196 NA
ATOM      2  C   UNL d   1      24.454 -16.882  -1.155  0.00  0.00     0.079 C 
ATOM      3  C   UNL d   1      25.806 -17.421  -1.270  0.00  0.00     0.212 C 
ATOM      4  C   UNL d   1      26.061 -17.996   0.044  0.00  0.00     0.079 C 
ATOM      5  N   UNL d   1      26.290 -18.571   1.023  0.00  0.00    -0.196 NA
ENDROOT
BRANCH   3   6
ATOM      6  C   UNL d   1      26.731 -16.333  -1.864  0.00  0.00     0.090 C 
BRANCH   6   7
ATOM      7  C   UNL d   1      26.333 -15.462  -3.058  0.00  0.00     0.036 A 
ATOM      8  C   UNL d   1      25.155 -14.739  -3.390  0.00  0.00     0.191 A 
ATOM      9  N   UNL d   1      25.150 -14.206  -4.597  0.00  0.00    -0.148 NA
ATOM     10  N   UNL d   1      26.343 -14.511  -5.075  0.00  0.00    -0.274 N 
ATOM     11  C   UNL d   1      27.121 -15.226  -4.202  0.00  0.00     0.071 A 
ATOM     12  H   UNL d   1      26.551 -14.206  -6.019  0.00  0.00     0.189 HD
BRANCH   8  13
ATOM     13  O   UNL d   1      24.022 -14.460  -2.763  0.00  0.00    -0.343 OA
ATOM     14  H   UNL d   1      23.932 -14.863  -1.893  0.00  0.00     0.219 HD
ENDBRANCH   8  13
BRANCH  11  15
ATOM     15  C   UNL d   1      28.467 -15.635  -4.587  0.00  0.00    -0.007 A 
ATOM     16  C   UNL d   1      28.963 -15.363  -5.869  0.00  0.00     0.014 A 
ATOM     17  C   UNL d   1      30.209 -15.862  -6.257  0.00  0.00     0.001 A 
ATOM     18  C   UNL d   1      31.013 -16.526  -5.332  0.00  0.00     0.000 A 
ATOM     19  C   UNL d   1      30.541 -16.765  -4.044  0.00  0.00     0.001 A 
ATOM     20  C   UNL d   1      29.265 -16.336  -3.681  0.00  0.00     0.014 A 
ENDBRANCH  11  15
ENDBRANCH   6   7
BRANCH   6  21
ATOM     21  C   UNL d   1      27.100 -15.341  -0.733  0.00  0.00    -0.047 A 
ATOM     22  C   UNL d   1      28.255 -15.538   0.040  0.00  0.00     0.008 A 
ATOM     23  C   UNL d   1      28.513 -14.736   1.152  0.00  0.00     0.001 A 
ATOM     24  C   UNL d   1      27.695 -13.647   1.438  0.00  0.00     0.000 A 
ATOM     25  C   UNL d   1      26.577 -13.396   0.649  0.00  0.00     0.001 A 
ATOM     26  C   UNL d   1      26.281 -14.233  -0.435  0.00  0.00     0.008 A 
ENDBRANCH   6  21
ENDBRANCH   3   6
TORSDOF 5
ENDMDL
MODEL 7
REMARK VINA RESULT:    -6.187      2.560      5.467
REMARK INTER + INTRA:          -9.997
REMARK INTER:                  -7.678
REMARK INTRA:                  -2.319
REMARK CONF_INDEPENDENT:        1.492
REMARK UNBOUND:                -2.319
REMARK  5 active torsions:
REMARK  status: ('A' for Active; 'I' for Inactive)
REMARK    1  A    between atoms: C_6  and  C_3 
REMARK    2  A    between atoms: C_6  and  C_13 
REMARK    3  A    between atoms: C_6  and  C_7 
REMARK    4  A    between atoms: C_14  and  O_15 
REMARK    5  A    between atoms: C_18  and  C_19 
ROOT
ATOM      1  N   UNL d   1      27.129 -15.203  -5.782  0.00  0.00    -0.196 NA
ATOM      2  C   UNL d   1      26.524 -15.249  -4.785  0.00  0.00     0.079 C 
ATOM      3  C   UNL d   1      25.833 -15.136  -3.504  0.00  0.00     0.212 C 
ATOM      4  C   UNL d   1      25.527 -13.715  -3.401  0.00  0.00     0.079 C 
ATOM      5  N   UNL d   1      25.153 -12.623  -3.303  0.00  0.00    -0.196 NA
ENDROOT
BRANCH   3   6
ATOM      6  C   UNL d   1      26.665 -15.858  -2.419  0.00  0.00     0.090 C 
BRANCH   6   7
ATOM      7  C   UNL d   1      27.631 -15.126  -1.484  0.00  0.00     0.036 A 
ATOM      8  C   UNL d   1      27.556 -13.900  -0.769  0.00  0.00     0.191 A 
ATOM      9  N   UNL d   1      28.671 -13.541  -0.161  0.00  0.00    -0.148 NA
ATOM     10  N   UNL d   1      29.495 -14.542  -0.409  0.00  0.00    -0.274 N 
ATOM     11  C   UNL d   1      28.937 -15.544  -1.160  0.00  0.00     0.071 A 
ATOM     12  H   UNL d   1      30.436 -14.464  -0.041  0.00  0.00     0.189 HD
BRANCH   8  13
ATOM     13  O   UNL d   1      26.609 -12.999  -0.555  0.00  0.00    -0.343 OA
ATOM     14  H   UNL d   1      26.147 -12.703  -1.347  0.00  0.00     0.219 HD
ENDBRANCH   8  13
BRANCH  11  15
ATOM     15  C   UNL d   1      29.725 -16.719  -1.513  0.00  0.00    -0.007 A 
ATOM     16  C   UNL d   1      30.246 -17.562  -0.523  0.00  0.00     0.014 A 
ATOM     17  C   UNL d   1      31.093 -18.616  -0.876  0.00  0.00     0.001 A 
ATOM     18  C   UNL d   1      31.322 -18.905  -2.220  0.00  0.00     0.000 A 
ATOM     19  C   UNL d   1      30.774 -18.094  -3.210  0.00  0.00     0.001 A 
ATOM     20  C   UNL d   1      29.994 -16.995  -2.855  0.00  0.00     0.014 A 
ENDBRANCH  11  15
ENDBRANCH   6   7
BRANCH   6  21
ATOM     21  C   UNL d   1      25.692 -16.624  -1.490  0.00  0.00    -0.047 A 
ATOM     22  C   UNL d   1      26.183 -17.471  -0.484  0.00  0.00     0.008 A 
ATOM     23  C   UNL d   1      25.315 -18.276   0.256  0.00  0.00     0.001 A 
ATOM     24  C   UNL d   1      23.939 -18.157   0.095  0.00  0.00     0.000 A 
ATOM     25  C   UNL d   1      23.426 -17.280  -0.855  0.00  0.00     0.001 A 
ATOM     26  C   UNL d   1      24.294 -16.512  -1.641  0.00  0.00     0.008 A 
ENDBRANCH   6  21
ENDBRANCH   3   6
TORSDOF 5
ENDMDL
MODEL 8
REMARK VINA RESULT:    -6.101      3.142      5.124
REMARK INTER + INTRA:          -9.744
REMARK INTER:                  -7.593
REMARK INTRA:                  -2.151
REMARK CONF_INDEPENDENT:        1.492
REMARK UNBOUND:                -2.151
REMARK  5 active torsions:
REMARK  status: ('A' for Active; 'I' for Inactive)
REMARK    1  A    between atoms: C_6  and  C_3 
REMARK    2  A    between atoms: C_6  and  C_13 
REMARK    3  A    between atoms: C_6  and  C_7 
REMARK    4  A    between atoms: C_14  and  O_15 
REMARK    5  A    between atoms: C_18  and  C_19 
ROOT
ATOM      1  N   UNL d   1      26.957 -10.889  -3.878  0.00  0.00    -0.196 NA
ATOM      2  C   UNL d   1      27.525 -11.713  -3.278  0.00  0.00     0.079 C 
ATOM      3  C   UNL d   1      28.349 -12.754  -2.672  0.00  0.00     0.212 C 
ATOM      4  C   UNL d   1      29.683 -12.485  -3.194  0.00  0.00     0.079 C 
ATOM      5  N   UNL d   1      30.784 -12.266  -3.477  0.00  0.00    -0.196 NA
ENDROOT
BRANCH   3   6
ATOM      6  C   UNL d   1      27.664 -14.124  -2.887  0.00  0.00     0.090 C 
BRANCH   6   7
ATOM      7  C   UNL d   1      26.155 -14.279  -3.091  0.00  0.00     0.036 A 
ATOM      8  C   UNL d   1      25.212 -13.631  -3.935  0.00  0.00     0.191 A 
ATOM      9  N   UNL d   1      23.953 -13.961  -3.721  0.00  0.00    -0.148 NA
ATOM     10  N   UNL d   1      24.031 -14.874  -2.770  0.00  0.00    -0.274 N 
ATOM     11  C   UNL d   1      25.313 -15.146  -2.368  0.00  0.00     0.071 A 
ATOM     12  H   UNL d   1      23.156 -15.261  -2.433  0.00  0.00     0.189 HD
BRANCH   8  13
ATOM     13  O   UNL d   1      25.291 -12.748  -4.920  0.00  0.00    -0.343 OA
ATOM     14  H   UNL d   1      25.146 -11.833  -4.654  0.00  0.00     0.219 HD
ENDBRANCH   8  13
BRANCH  11  15
ATOM     15  C   UNL d   1      25.558 -16.136  -1.326  0.00  0.00    -0.007 A 
ATOM     16  C   UNL d   1      26.842 -16.324  -0.798  0.00  0.00     0.014 A 
ATOM     17  C   UNL d   1      27.080 -17.353   0.116  0.00  0.00     0.001 A 
ATOM     18  C   UNL d   1      26.017 -18.117   0.597  0.00  0.00     0.000 A 
ATOM     19  C   UNL d   1      24.731 -17.908   0.104  0.00  0.00     0.001 A 
ATOM     20  C   UNL d   1      24.508 -16.934  -0.867  0.00  0.00     0.014 A 
ENDBRANCH  11  15
ENDBRANCH   6   7
BRANCH   6  21
ATOM     21  C   UNL d   1      28.318 -14.806  -4.114  0.00  0.00    -0.047 A 
ATOM     22  C   UNL d   1      29.185 -15.898  -3.945  0.00  0.00     0.008 A 
ATOM     23  C   UNL d   1      29.892 -16.420  -5.029  0.00  0.00     0.001 A 
ATOM     24  C   UNL d   1      29.653 -15.950  -6.316  0.00  0.00     0.000 A 
ATOM     25  C   UNL d   1      28.753 -14.907  -6.516  0.00  0.00     0.001 A 
ATOM     26  C   UNL d   1      28.083 -14.341  -5.424  0.00  0.00     0.008 A 
ENDBRANCH   6  21
ENDBRANCH   3   6
TORSDOF 5
ENDMDL
MODEL 9
REMARK VINA RESULT:    -6.098      2.363      3.352
REMARK INTER + INTRA:          -9.913
REMARK INTER:                  -7.590
REMARK INTRA:                  -2.324
REMARK CONF_INDEPENDENT:        1.492
REMARK UNBOUND:                -2.324
REMARK  5 active torsions:
REMARK  status: ('A' for Active; 'I' for Inactive)
REMARK    1  A    between atoms: C_6  and  C_3 
REMARK    2  A    between atoms: C_6  and  C_13 
REMARK    3  A    between atoms: C_6  and  C_7 
REMARK    4  A    between atoms: C_14  and  O_15 
REMARK    5  A    between atoms: C_18  and  C_19 
ROOT
ATOM      1  N   UNL d   1      30.569 -13.969  -3.293  0.00  0.00    -0.196 NA
ATOM      2  C   UNL d   1      29.855 -14.848  -3.573  0.00  0.00     0.079 C 
ATOM      3  C   UNL d   1      28.873 -15.826  -4.031  0.00  0.00     0.212 C 
ATOM      4  C   UNL d   1      28.579 -15.407  -5.395  0.00  0.00     0.079 C 
ATOM      5  N   UNL d   1      28.381 -15.200  -6.517  0.00  0.00    -0.196 NA
ENDROOT
BRANCH   3   6
ATOM      6  C   UNL d   1      27.754 -15.949  -2.970  0.00  0.00     0.090 C 
BRANCH   6   7
ATOM      7  C   UNL d   1      28.036 -16.055  -1.470  0.00  0.00     0.036 A 
ATOM      8  C   UNL d   1      29.192 -15.826  -0.675  0.00  0.00     0.191 A 
ATOM      9  N   UNL d   1      29.071 -16.160   0.595  0.00  0.00    -0.148 NA
ATOM     10  N   UNL d   1      27.818 -16.567   0.689  0.00  0.00    -0.274 N 
ATOM     11  C   UNL d   1      27.125 -16.498  -0.491  0.00  0.00     0.071 A 
ATOM     12  H   UNL d   1      27.508 -16.894   1.598  0.00  0.00     0.189 HD
BRANCH   8  13
ATOM     13  O   UNL d   1      30.403 -15.340  -0.905  0.00  0.00    -0.343 OA
ATOM     14  H   UNL d   1      30.422 -14.421  -1.195  0.00  0.00     0.219 HD
ENDBRANCH   8  13
BRANCH  11  15
ATOM     15  C   UNL d   1      25.727 -16.912  -0.544  0.00  0.00    -0.007 A 
ATOM     16  C   UNL d   1      24.729 -16.026  -0.969  0.00  0.00     0.014 A 
ATOM     17  C   UNL d   1      23.385 -16.402  -0.904  0.00  0.00     0.001 A 
ATOM     18  C   UNL d   1      23.043 -17.702  -0.533  0.00  0.00     0.000 A 
ATOM     19  C   UNL d   1      24.035 -18.600  -0.147  0.00  0.00     0.001 A 
ATOM     20  C   UNL d   1      25.369 -18.199  -0.136  0.00  0.00     0.014 A 
ENDBRANCH  11  15
ENDBRANCH   6   7
BRANCH   6  21
ATOM     21  C   UNL d   1      26.803 -14.737  -3.127  0.00  0.00    -0.047 A 
ATOM     22  C   UNL d   1      25.661 -14.826  -3.939  0.00  0.00     0.008 A 
ATOM     23  C   UNL d   1      24.884 -13.698  -4.202  0.00  0.00     0.001 A 
ATOM     24  C   UNL d   1      25.155 -12.493  -3.561  0.00  0.00     0.000 A 
ATOM     25  C   UNL d   1      26.247 -12.396  -2.704  0.00  0.00     0.001 A 
ATOM     26  C   UNL d   1      27.065 -13.511  -2.481  0.00  0.00     0.008 A 
ENDBRANCH   6  21
ENDBRANCH   3   6
TORSDOF 5
ENDMDL
