MODEL 1
REMARK VINA RESULT:    -9.782      0.000      0.000
REMARK INTER + INTRA:         -17.317
REMARK INTER:                 -14.555
REMARK INTRA:                  -2.763
REMARK CONF_INDEPENDENT:        4.773
REMARK UNBOUND:                -2.763
REMARK  16 active torsions:
REMARK  status: ('A' for Active; 'I' for Inactive)
REMARK    1  A    between atoms: C_2  and  C_3 
REMARK       I    between atoms: C_2  and  N_26 
REMARK    2  A    between atoms: C_3  and  C_4 
REMARK    3  A    between atoms: C_4  and  C_5 
REMARK    4  A    between atoms: C_5  and  C_6 
REMARK    5  A    between atoms: C_6  and  C_7 
REMARK    6  A    between atoms: C_7  and  C_8 
REMARK    7  A    between atoms: C_8  and  C_9 
REMARK    8  A    between atoms: C_9  and  C_10 
REMARK       I    between atoms: C_10  and  N_12 
REMARK    9  A    between atoms: N_12  and  C_13 
REMARK   10  A    between atoms: C_16  and  O_17 
REMARK   11  A    between atoms: O_17  and  C_18 
REMARK   12  A    between atoms: C_19  and  C_18 
REMARK   13  A    between atoms: N_26  and  C_27 
REMARK   14  A    between atoms: C_30  and  O_31 
REMARK   15  A    between atoms: O_31  and  C_32 
REMARK   16  A    between atoms: C_33  and  C_32 
ROOT
ATOM      1  C   UNL d   1      27.701 -13.545  -0.409  0.00  0.00     0.000 C 
ENDROOT
BRANCH   1   2
ATOM      2  C   UNL d   1      27.609 -12.492  -1.498  0.00  0.00     0.000 C 
BRANCH   2   3
ATOM      3  C   UNL d   1      26.239 -12.553  -2.169  0.00  0.00     0.009 C 
BRANCH   3   4
ATOM      4  C   UNL d   1      26.411 -12.880  -3.638  0.00  0.00     0.103 C 
BRANCH   4   5
ATOM      5  C   UNL d   1      25.538 -14.028  -4.114  0.00  0.00     0.222 C 
ATOM      6  O   UNL d   1      24.322 -14.069  -3.891  0.00  0.00    -0.273 OA
ATOM      7  N   UNL d   1      26.113 -15.001  -4.896  0.00  0.00    -0.327 N 
ATOM      8  H   UNL d   1      25.443 -15.615  -5.346  0.00  0.00     0.169 HD
BRANCH   7   9
ATOM      9  C   UNL d   1      27.478 -15.200  -5.159  0.00  0.00     0.034 A 
ATOM     10  C   UNL d   1      28.268 -15.925  -4.269  0.00  0.00     0.032 A 
ATOM     11  C   UNL d   1      29.636 -16.102  -4.540  0.00  0.00     0.039 A 
ATOM     12  C   UNL d   1      30.204 -15.605  -5.719  0.00  0.00     0.069 A 
ATOM     13  C   UNL d   1      29.417 -14.846  -6.573  0.00  0.00     0.039 A 
ATOM     14  C   UNL d   1      28.082 -14.621  -6.271  0.00  0.00     0.032 A 
BRANCH  12  15
ATOM     15  O   UNL d   1      31.518 -15.911  -5.952  0.00  0.00    -0.349 OA
BRANCH  15  16
ATOM     16  C   UNL d   1      31.847 -17.312  -5.958  0.00  0.00     0.207 C 
BRANCH  16  17
ATOM     17  C   UNL d   1      30.801 -18.077  -6.780  0.00  0.00     0.145 C 
ATOM     18  C   UNL d   1      31.294 -18.425  -8.179  0.00  0.00     0.036 C 
ATOM     19  C   UNL d   1      31.860 -19.815  -8.013  0.00  0.00     0.029 C 
ATOM     20  C   UNL d   1      30.971 -20.413  -6.949  0.00  0.00     0.168 C 
ATOM     21  O   UNL d   1      30.513 -19.333  -6.130  0.00  0.00    -0.384 OA
ENDBRANCH  16  17
ENDBRANCH  15  16
ENDBRANCH  12  15
ENDBRANCH   7   9
ENDBRANCH   4   5
ENDBRANCH   3   4
ENDBRANCH   2   3
ENDBRANCH   1   2
BRANCH   1  22
ATOM     22  C   UNL d   1      28.846 -14.511  -0.692  0.00  0.00     0.000 C 
BRANCH  22  23
ATOM     23  C   UNL d   1      28.583 -15.843  -0.011  0.00  0.00     0.009 C 
BRANCH  23  24
ATOM     24  C   UNL d   1      28.263 -16.966  -1.004  0.00  0.00     0.103 C 
BRANCH  24  25
ATOM     25  C   UNL d   1      26.769 -16.979  -1.270  0.00  0.00     0.222 C 
ATOM     26  O   UNL d   1      26.314 -16.526  -2.324  0.00  0.00    -0.273 OA
ATOM     27  N   UNL d   1      25.979 -17.494  -0.251  0.00  0.00    -0.327 N 
ATOM     28  H   UNL d   1      26.377 -17.634   0.669  0.00  0.00     0.169 HD
BRANCH  27  29
ATOM     29  C   UNL d   1      24.577 -17.622  -0.402  0.00  0.00     0.034 A 
ATOM     30  C   UNL d   1      23.742 -16.506  -0.463  0.00  0.00     0.032 A 
ATOM     31  C   UNL d   1      22.349 -16.680  -0.598  0.00  0.00     0.039 A 
ATOM     32  C   UNL d   1      21.789 -17.962  -0.698  0.00  0.00     0.069 A 
ATOM     33  C   UNL d   1      22.627 -19.066  -0.600  0.00  0.00     0.039 A 
ATOM     34  C   UNL d   1      24.002 -18.894  -0.460  0.00  0.00     0.032 A 
BRANCH  32  35
ATOM     35  O   UNL d   1      20.434 -18.028  -0.897  0.00  0.00    -0.349 OA
BRANCH  35  36
ATOM     36  C   UNL d   1      19.875 -19.342  -1.051  0.00  0.00     0.207 C 
BRANCH  36  37
ATOM     37  C   UNL d   1      20.123 -20.170   0.216  0.00  0.00     0.145 C 
ATOM     38  C   UNL d   1      19.832 -19.394   1.491  0.00  0.00     0.036 C 
ATOM     39  C   UNL d   1      18.407 -19.773   1.806  0.00  0.00     0.029 C 
ATOM     40  C   UNL d   1      18.320 -21.198   1.310  0.00  0.00     0.168 C 
ATOM     41  O   UNL d   1      19.252 -21.320   0.226  0.00  0.00    -0.384 OA
ENDBRANCH  36  37
ENDBRANCH  35  36
ENDBRANCH  32  35
ENDBRANCH  27  29
ENDBRANCH  24  25
ENDBRANCH  23  24
ENDBRANCH  22  23
ENDBRANCH   1  22
TORSDOF 16
ENDMDL
MODEL 2
REMARK VINA RESULT:    -9.603      5.273      9.102
REMARK INTER + INTRA:         -17.309
REMARK INTER:                 -14.376
REMARK INTRA:                  -2.933
REMARK CONF_INDEPENDENT:        4.773
REMARK UNBOUND:                -2.933
REMARK  16 active torsions:
REMARK  status: ('A' for Active; 'I' for Inactive)
REMARK    1  A    between atoms: C_2  and  C_3 
REMARK       I    between atoms: C_2  and  N_26 
REMARK    2  A    between atoms: C_3  and  C_4 
REMARK    3  A    between atoms: C_4  and  C_5 
REMARK    4  A    between atoms: C_5  and  C_6 
REMARK    5  A    between atoms: C_6  and  C_7 
REMARK    6  A    between atoms: C_7  and  C_8 
REMARK    7  A    between atoms: C_8  and  C_9 
REMARK    8  A    between atoms: C_9  and  C_10 
REMARK       I    between atoms: C_10  and  N_12 
REMARK    9  A    between atoms: N_12  and  C_13 
REMARK   10  A    between atoms: C_16  and  O_17 
REMARK   11  A    between atoms: O_17  and  C_18 
REMARK   12  A    between atoms: C_19  and  C_18 
REMARK   13  A    between atoms: N_26  and  C_27 
REMARK   14  A    between atoms: C_30  and  O_31 
REMARK   15  A    between atoms: O_31  and  C_32 
REMARK   16  A    between atoms: C_33  and  C_32 
ROOT
ATOM      1  C   UNL d   1      27.440 -11.792  -2.254  0.00  0.00     0.000 C 
ENDROOT
BRANCH   1   2
ATOM      2  C   UNL d   1      27.038 -11.931  -0.797  0.00  0.00     0.000 C 
BRANCH   2   3
ATOM      3  C   UNL d   1      28.249 -11.705   0.103  0.00  0.00     0.009 C 
BRANCH   3   4
ATOM      4  C   UNL d   1      28.086 -12.503   1.380  0.00  0.00     0.103 C 
BRANCH   4   5
ATOM      5  C   UNL d   1      28.093 -14.007   1.165  0.00  0.00     0.222 C 
ATOM      6  O   UNL d   1      27.898 -14.517   0.054  0.00  0.00    -0.273 OA
ATOM      7  N   UNL d   1      28.416 -14.814   2.229  0.00  0.00    -0.327 N 
ATOM      8  H   UNL d   1      28.604 -15.777   1.973  0.00  0.00     0.169 HD
BRANCH   7   9
ATOM      9  C   UNL d   1      28.548 -14.449   3.579  0.00  0.00     0.034 A 
ATOM     10  C   UNL d   1      27.552 -13.704   4.208  0.00  0.00     0.032 A 
ATOM     11  C   UNL d   1      27.708 -13.335   5.555  0.00  0.00     0.039 A 
ATOM     12  C   UNL d   1      28.825 -13.750   6.289  0.00  0.00     0.069 A 
ATOM     13  C   UNL d   1      29.831 -14.451   5.638  0.00  0.00     0.039 A 
ATOM     14  C   UNL d   1      29.702 -14.760   4.292  0.00  0.00     0.032 A 
BRANCH  12  15
ATOM     15  O   UNL d   1      28.847 -13.432   7.620  0.00  0.00    -0.349 OA
BRANCH  15  16
ATOM     16  C   UNL d   1      29.850 -14.097   8.410  0.00  0.00     0.207 C 
BRANCH  16  17
ATOM     17  C   UNL d   1      29.826 -13.538   9.839  0.00  0.00     0.145 C 
ATOM     18  C   UNL d   1      29.240 -12.133   9.909  0.00  0.00     0.036 C 
ATOM     19  C   UNL d   1      27.782 -12.378  10.212  0.00  0.00     0.029 C 
ATOM     20  C   UNL d   1      27.821 -13.626  11.061  0.00  0.00     0.168 C 
ATOM     21  O   UNL d   1      28.976 -14.370  10.658  0.00  0.00    -0.384 OA
ENDBRANCH  16  17
ENDBRANCH  15  16
ENDBRANCH  12  15
ENDBRANCH   7   9
ENDBRANCH   4   5
ENDBRANCH   3   4
ENDBRANCH   2   3
ENDBRANCH   1   2
BRANCH   1  22
ATOM     22  C   UNL d   1      26.208 -11.778  -3.152  0.00  0.00     0.000 C 
BRANCH  22  23
ATOM     23  C   UNL d   1      26.560 -12.320  -4.526  0.00  0.00     0.009 C 
BRANCH  23  24
ATOM     24  C   UNL d   1      27.228 -13.700  -4.468  0.00  0.00     0.103 C 
BRANCH  24  25
ATOM     25  C   UNL d   1      26.280 -14.679  -3.798  0.00  0.00     0.222 C 
ATOM     26  O   UNL d   1      25.307 -15.129  -4.408  0.00  0.00    -0.273 OA
ATOM     27  N   UNL d   1      26.570 -14.989  -2.476  0.00  0.00    -0.327 N 
ATOM     28  H   UNL d   1      27.232 -14.423  -1.962  0.00  0.00     0.169 HD
BRANCH  27  29
ATOM     29  C   UNL d   1      25.802 -15.940  -1.760  0.00  0.00     0.034 A 
ATOM     30  C   UNL d   1      26.393 -17.046  -1.148  0.00  0.00     0.032 A 
ATOM     31  C   UNL d   1      25.589 -17.977  -0.459  0.00  0.00     0.039 A 
ATOM     32  C   UNL d   1      24.203 -17.795  -0.354  0.00  0.00     0.069 A 
ATOM     33  C   UNL d   1      23.622 -16.708  -0.997  0.00  0.00     0.039 A 
ATOM     34  C   UNL d   1      24.415 -15.792  -1.684  0.00  0.00     0.032 A 
BRANCH  32  35
ATOM     35  O   UNL d   1      23.516 -18.714   0.395  0.00  0.00    -0.349 OA
BRANCH  35  36
ATOM     36  C   UNL d   1      22.095 -18.522   0.497  0.00  0.00     0.207 C 
BRANCH  36  37
ATOM     37  C   UNL d   1      21.359 -19.701  -0.153  0.00  0.00     0.145 C 
ATOM     38  C   UNL d   1      20.437 -20.424   0.817  0.00  0.00     0.036 C 
ATOM     39  C   UNL d   1      19.102 -19.764   0.578  0.00  0.00     0.029 C 
ATOM     40  C   UNL d   1      19.149 -19.431  -0.894  0.00  0.00     0.168 C 
ATOM     41  O   UNL d   1      20.528 -19.223  -1.231  0.00  0.00    -0.384 OA
ENDBRANCH  36  37
ENDBRANCH  35  36
ENDBRANCH  32  35
ENDBRANCH  27  29
ENDBRANCH  24  25
ENDBRANCH  23  24
ENDBRANCH  22  23
ENDBRANCH   1  22
TORSDOF 16
ENDMDL
MODEL 3
REMARK VINA RESULT:    -9.020      1.410      2.110
REMARK INTER + INTRA:         -16.700
REMARK INTER:                 -13.793
REMARK INTRA:                  -2.907
REMARK CONF_INDEPENDENT:        4.773
REMARK UNBOUND:                -2.907
REMARK  16 active torsions:
REMARK  status: ('A' for Active; 'I' for Inactive)
REMARK    1  A    between atoms: C_2  and  C_3 
REMARK       I    between atoms: C_2  and  N_26 
REMARK    2  A    between atoms: C_3  and  C_4 
REMARK    3  A    between atoms: C_4  and  C_5 
REMARK    4  A    between atoms: C_5  and  C_6 
REMARK    5  A    between atoms: C_6  and  C_7 
REMARK    6  A    between atoms: C_7  and  C_8 
REMARK    7  A    between atoms: C_8  and  C_9 
REMARK    8  A    between atoms: C_9  and  C_10 
REMARK       I    between atoms: C_10  and  N_12 
REMARK    9  A    between atoms: N_12  and  C_13 
REMARK   10  A    between atoms: C_16  and  O_17 
REMARK   11  A    between atoms: O_17  and  C_18 
REMARK   12  A    between atoms: C_19  and  C_18 
REMARK   13  A    between atoms: N_26  and  C_27 
REMARK   14  A    between atoms: C_30  and  O_31 
REMARK   15  A    between atoms: O_31  and  C_32 
REMARK   16  A    between atoms: C_33  and  C_32 
ROOT
ATOM      1  C   UNL d   1      28.565 -11.746  -1.293  0.00  0.00     0.000 C 
ENDROOT
BRANCH   1   2
ATOM      2  C   UNL d   1      27.067 -11.654  -1.519  0.00  0.00     0.000 C 
BRANCH   2   3
ATOM      3  C   UNL d   1      26.702 -12.291  -2.857  0.00  0.00     0.009 C 
BRANCH   3   4
ATOM      4  C   UNL d   1      25.835 -13.510  -2.617  0.00  0.00     0.103 C 
BRANCH   4   5
ATOM      5  C   UNL d   1      25.008 -13.919  -3.823  0.00  0.00     0.222 C 
ATOM      6  O   UNL d   1      23.792 -13.700  -3.894  0.00  0.00    -0.273 OA
ATOM      7  N   UNL d   1      25.658 -14.467  -4.903  0.00  0.00    -0.327 N 
ATOM      8  H   UNL d   1      25.089 -14.524  -5.740  0.00  0.00     0.169 HD
BRANCH   7   9
ATOM      9  C   UNL d   1      26.991 -14.903  -4.975  0.00  0.00     0.034 A 
ATOM     10  C   UNL d   1      27.725 -14.733  -6.147  0.00  0.00     0.032 A 
ATOM     11  C   UNL d   1      29.053 -15.190  -6.207  0.00  0.00     0.039 A 
ATOM     12  C   UNL d   1      29.666 -15.764  -5.087  0.00  0.00     0.069 A 
ATOM     13  C   UNL d   1      28.910 -15.970  -3.942  0.00  0.00     0.039 A 
ATOM     14  C   UNL d   1      27.580 -15.575  -3.908  0.00  0.00     0.032 A 
BRANCH  12  15
ATOM     15  O   UNL d   1      30.992 -16.086  -5.201  0.00  0.00    -0.349 OA
BRANCH  15  16
ATOM     16  C   UNL d   1      31.405 -16.608  -6.478  0.00  0.00     0.207 C 
BRANCH  16  17
ATOM     17  C   UNL d   1      30.700 -17.947  -6.732  0.00  0.00     0.145 C 
ATOM     18  C   UNL d   1      31.642 -19.011  -7.283  0.00  0.00     0.036 C 
ATOM     19  C   UNL d   1      32.107 -19.739  -6.045  0.00  0.00     0.029 C 
ATOM     20  C   UNL d   1      30.902 -19.660  -5.138  0.00  0.00     0.168 C 
ATOM     21  O   UNL d   1      30.198 -18.463  -5.481  0.00  0.00    -0.384 OA
ENDBRANCH  16  17
ENDBRANCH  15  16
ENDBRANCH  12  15
ENDBRANCH   7   9
ENDBRANCH   4   5
ENDBRANCH   3   4
ENDBRANCH   2   3
ENDBRANCH   1   2
BRANCH   1  22
ATOM     22  C   UNL d   1      28.956 -13.154  -0.854  0.00  0.00     0.000 C 
BRANCH  22  23
ATOM     23  C   UNL d   1      29.418 -13.139   0.592  0.00  0.00     0.009 C 
BRANCH  23  24
ATOM     24  C   UNL d   1      29.045 -14.419   1.350  0.00  0.00     0.103 C 
BRANCH  24  25
ATOM     25  C   UNL d   1      27.698 -14.912   0.853  0.00  0.00     0.222 C 
ATOM     26  O   UNL d   1      26.744 -14.135   0.748  0.00  0.00    -0.273 OA
ATOM     27  N   UNL d   1      27.619 -16.268   0.569  0.00  0.00    -0.327 N 
ATOM     28  H   UNL d   1      28.350 -16.890   0.888  0.00  0.00     0.169 HD
BRANCH  27  29
ATOM     29  C   UNL d   1      26.438 -16.839   0.035  0.00  0.00     0.034 A 
ATOM     30  C   UNL d   1      25.864 -17.985   0.589  0.00  0.00     0.032 A 
ATOM     31  C   UNL d   1      24.697 -18.529   0.016  0.00  0.00     0.039 A 
ATOM     32  C   UNL d   1      24.085 -17.922  -1.089  0.00  0.00     0.069 A 
ATOM     33  C   UNL d   1      24.684 -16.802  -1.652  0.00  0.00     0.039 A 
ATOM     34  C   UNL d   1      25.842 -16.267  -1.091  0.00  0.00     0.032 A 
BRANCH  32  35
ATOM     35  O   UNL d   1      22.915 -18.483  -1.531  0.00  0.00    -0.349 OA
BRANCH  35  36
ATOM     36  C   UNL d   1      21.769 -18.330  -0.677  0.00  0.00     0.207 C 
BRANCH  36  37
ATOM     37  C   UNL d   1      21.134 -19.699  -0.402  0.00  0.00     0.145 C 
ATOM     38  C   UNL d   1      20.593 -19.821   1.015  0.00  0.00     0.036 C 
ATOM     39  C   UNL d   1      19.142 -19.440   0.862  0.00  0.00     0.029 C 
ATOM     40  C   UNL d   1      18.804 -19.948  -0.520  0.00  0.00     0.168 C 
ATOM     41  O   UNL d   1      20.014 -19.904  -1.289  0.00  0.00    -0.384 OA
ENDBRANCH  36  37
ENDBRANCH  35  36
ENDBRANCH  32  35
ENDBRANCH  27  29
ENDBRANCH  24  25
ENDBRANCH  23  24
ENDBRANCH  22  23
ENDBRANCH   1  22
TORSDOF 16
ENDMDL
MODEL 4
REMARK VINA RESULT:    -8.576      5.433      9.055
REMARK INTER + INTRA:         -16.695
REMARK INTER:                 -13.349
REMARK INTRA:                  -3.347
REMARK CONF_INDEPENDENT:        4.773
REMARK UNBOUND:                -3.347
REMARK  16 active torsions:
REMARK  status: ('A' for Active; 'I' for Inactive)
REMARK    1  A    between atoms: C_2  and  C_3 
REMARK       I    between atoms: C_2  and  N_26 
REMARK    2  A    between atoms: C_3  and  C_4 
REMARK    3  A    between atoms: C_4  and  C_5 
REMARK    4  A    between atoms: C_5  and  C_6 
REMARK    5  A    between atoms: C_6  and  C_7 
REMARK    6  A    between atoms: C_7  and  C_8 
REMARK    7  A    between atoms: C_8  and  C_9 
REMARK    8  A    between atoms: C_9  and  C_10 
REMARK       I    between atoms: C_10  and  N_12 
REMARK    9  A    between atoms: N_12  and  C_13 
REMARK   10  A    between atoms: C_16  and  O_17 
REMARK   11  A    between atoms: O_17  and  C_18 
REMARK   12  A    between atoms: C_19  and  C_18 
REMARK   13  A    between atoms: N_26  and  C_27 
REMARK   14  A    between atoms: C_30  and  O_31 
REMARK   15  A    between atoms: O_31  and  C_32 
REMARK   16  A    between atoms: C_33  and  C_32 
ROOT
ATOM      1  C   UNL d   1      28.448 -15.802  -0.096  0.00  0.00     0.000 C 
ENDROOT
BRANCH   1   2
ATOM      2  C   UNL d   1      28.992 -15.199   1.186  0.00  0.00     0.000 C 
BRANCH   2   3
ATOM      3  C   UNL d   1      29.484 -13.778   0.926  0.00  0.00     0.009 C 
BRANCH   3   4
ATOM      4  C   UNL d   1      28.720 -12.810   1.806  0.00  0.00     0.103 C 
BRANCH   4   5
ATOM      5  C   UNL d   1      27.285 -13.230   2.074  0.00  0.00     0.222 C 
ATOM      6  O   UNL d   1      26.441 -13.309   1.171  0.00  0.00    -0.273 OA
ATOM      7  N   UNL d   1      26.947 -13.620   3.348  0.00  0.00    -0.327 N 
ATOM      8  H   UNL d   1      26.045 -14.078   3.412  0.00  0.00     0.169 HD
BRANCH   7   9
ATOM      9  C   UNL d   1      27.711 -13.489   4.519  0.00  0.00     0.034 A 
ATOM     10  C   UNL d   1      28.357 -14.597   5.065  0.00  0.00     0.032 A 
ATOM     11  C   UNL d   1      29.105 -14.451   6.246  0.00  0.00     0.039 A 
ATOM     12  C   UNL d   1      29.253 -13.198   6.852  0.00  0.00     0.069 A 
ATOM     13  C   UNL d   1      28.567 -12.114   6.325  0.00  0.00     0.039 A 
ATOM     14  C   UNL d   1      27.779 -12.275   5.194  0.00  0.00     0.032 A 
BRANCH  12  15
ATOM     15  O   UNL d   1      30.082 -13.128   7.940  0.00  0.00    -0.349 OA
BRANCH  15  16
ATOM     16  C   UNL d   1      30.654 -14.375   8.377  0.00  0.00     0.207 C 
BRANCH  16  17
ATOM     17  C   UNL d   1      30.040 -14.772   9.726  0.00  0.00     0.145 C 
ATOM     18  C   UNL d   1      30.315 -13.747  10.820  0.00  0.00     0.036 C 
ATOM     19  C   UNL d   1      29.099 -12.854  10.775  0.00  0.00     0.029 C 
ATOM     20  C   UNL d   1      27.999 -13.807  10.375  0.00  0.00     0.168 C 
ATOM     21  O   UNL d   1      28.604 -14.840   9.591  0.00  0.00    -0.384 OA
ENDBRANCH  16  17
ENDBRANCH  15  16
ENDBRANCH  12  15
ENDBRANCH   7   9
ENDBRANCH   4   5
ENDBRANCH   3   4
ENDBRANCH   2   3
ENDBRANCH   1   2
BRANCH   1  22
ATOM     22  C   UNL d   1      29.274 -15.347  -1.296  0.00  0.00     0.000 C 
BRANCH  22  23
ATOM     23  C   UNL d   1      28.377 -14.666  -2.315  0.00  0.00     0.009 C 
BRANCH  23  24
ATOM     24  C   UNL d   1      27.086 -14.115  -1.698  0.00  0.00     0.103 C 
BRANCH  24  25
ATOM     25  C   UNL d   1      25.997 -15.167  -1.810  0.00  0.00     0.222 C 
ATOM     26  O   UNL d   1      25.609 -15.554  -2.916  0.00  0.00    -0.273 OA
ATOM     27  N   UNL d   1      25.468 -15.617  -0.608  0.00  0.00    -0.327 N 
ATOM     28  H   UNL d   1      25.656 -15.106   0.245  0.00  0.00     0.169 HD
BRANCH  27  29
ATOM     29  C   UNL d   1      24.495 -16.645  -0.573  0.00  0.00     0.034 A 
ATOM     30  C   UNL d   1      24.850 -17.984  -0.406  0.00  0.00     0.032 A 
ATOM     31  C   UNL d   1      23.849 -18.977  -0.393  0.00  0.00     0.039 A 
ATOM     32  C   UNL d   1      22.495 -18.638  -0.520  0.00  0.00     0.069 A 
ATOM     33  C   UNL d   1      22.156 -17.305  -0.721  0.00  0.00     0.039 A 
ATOM     34  C   UNL d   1      23.146 -16.324  -0.741  0.00  0.00     0.032 A 
BRANCH  32  35
ATOM     35  O   UNL d   1      21.591 -19.664  -0.425  0.00  0.00    -0.349 OA
BRANCH  35  36
ATOM     36  C   UNL d   1      20.356 -19.496  -1.141  0.00  0.00     0.207 C 
BRANCH  36  37
ATOM     37  C   UNL d   1      19.195 -19.334  -0.151  0.00  0.00     0.145 C 
ATOM     38  C   UNL d   1      18.258 -20.533  -0.144  0.00  0.00     0.036 C 
ATOM     39  C   UNL d   1      18.793 -21.378   0.986  0.00  0.00     0.029 C 
ATOM     40  C   UNL d   1      19.312 -20.348   1.961  0.00  0.00     0.168 C 
ATOM     41  O   UNL d   1      19.711 -19.206   1.190  0.00  0.00    -0.384 OA
ENDBRANCH  36  37
ENDBRANCH  35  36
ENDBRANCH  32  35
ENDBRANCH  27  29
ENDBRANCH  24  25
ENDBRANCH  23  24
ENDBRANCH  22  23
ENDBRANCH   1  22
TORSDOF 16
ENDMDL
MODEL 5
REMARK VINA RESULT:    -7.804      1.833      3.719
REMARK INTER + INTRA:         -16.442
REMARK INTER:                 -12.577
REMARK INTRA:                  -3.864
REMARK CONF_INDEPENDENT:        4.773
REMARK UNBOUND:                -3.864
REMARK  16 active torsions:
REMARK  status: ('A' for Active; 'I' for Inactive)
REMARK    1  A    between atoms: C_2  and  C_3 
REMARK       I    between atoms: C_2  and  N_26 
REMARK    2  A    between atoms: C_3  and  C_4 
REMARK    3  A    between atoms: C_4  and  C_5 
REMARK    4  A    between atoms: C_5  and  C_6 
REMARK    5  A    between atoms: C_6  and  C_7 
REMARK    6  A    between atoms: C_7  and  C_8 
REMARK    7  A    between atoms: C_8  and  C_9 
REMARK    8  A    between atoms: C_9  and  C_10 
REMARK       I    between atoms: C_10  and  N_12 
REMARK    9  A    between atoms: N_12  and  C_13 
REMARK   10  A    between atoms: C_16  and  O_17 
REMARK   11  A    between atoms: O_17  and  C_18 
REMARK   12  A    between atoms: C_19  and  C_18 
REMARK   13  A    between atoms: N_26  and  C_27 
REMARK   14  A    between atoms: C_30  and  O_31 
REMARK   15  A    between atoms: O_31  and  C_32 
REMARK   16  A    between atoms: C_33  and  C_32 
ROOT
ATOM      1  C   UNL d   1      28.544 -11.615  -2.904  0.00  0.00     0.000 C 
ENDROOT
BRANCH   1   2
ATOM      2  C   UNL d   1      27.336 -11.889  -2.028  0.00  0.00     0.000 C 
BRANCH   2   3
ATOM      3  C   UNL d   1      27.788 -12.263  -0.619  0.00  0.00     0.009 C 
BRANCH   3   4
ATOM      4  C   UNL d   1      27.107 -13.548  -0.195  0.00  0.00     0.103 C 
BRANCH   4   5
ATOM      5  C   UNL d   1      27.687 -14.159   1.069  0.00  0.00     0.222 C 
ATOM      6  O   UNL d   1      27.269 -13.865   2.196  0.00  0.00    -0.273 OA
ATOM      7  N   UNL d   1      28.645 -15.135   0.939  0.00  0.00    -0.327 N 
ATOM      8  H   UNL d   1      28.836 -15.640   1.797  0.00  0.00     0.169 HD
BRANCH   7   9
ATOM      9  C   UNL d   1      29.332 -15.519  -0.224  0.00  0.00     0.034 A 
ATOM     10  C   UNL d   1      29.419 -16.864  -0.579  0.00  0.00     0.032 A 
ATOM     11  C   UNL d   1      30.124 -17.231  -1.739  0.00  0.00     0.039 A 
ATOM     12  C   UNL d   1      30.693 -16.260  -2.571  0.00  0.00     0.069 A 
ATOM     13  C   UNL d   1      30.638 -14.930  -2.182  0.00  0.00     0.039 A 
ATOM     14  C   UNL d   1      29.996 -14.577  -1.003  0.00  0.00     0.032 A 
BRANCH  12  15
ATOM     15  O   UNL d   1      31.271 -16.699  -3.732  0.00  0.00    -0.349 OA
BRANCH  15  16
ATOM     16  C   UNL d   1      30.674 -17.864  -4.332  0.00  0.00     0.207 C 
BRANCH  16  17
ATOM     17  C   UNL d   1      30.170 -17.510  -5.738  0.00  0.00     0.145 C 
ATOM     18  C   UNL d   1      29.315 -16.248  -5.754  0.00  0.00     0.036 C 
ATOM     19  C   UNL d   1      30.309 -15.158  -6.072  0.00  0.00     0.029 C 
ATOM     20  C   UNL d   1      31.300 -15.859  -6.969  0.00  0.00     0.168 C 
ATOM     21  O   UNL d   1      31.301 -17.240  -6.592  0.00  0.00    -0.384 OA
ENDBRANCH  16  17
ENDBRANCH  15  16
ENDBRANCH  12  15
ENDBRANCH   7   9
ENDBRANCH   4   5
ENDBRANCH   3   4
ENDBRANCH   2   3
ENDBRANCH   1   2
BRANCH   1  22
ATOM     22  C   UNL d   1      28.146 -11.598  -4.377  0.00  0.00     0.000 C 
BRANCH  22  23
ATOM     23  C   UNL d   1      26.910 -12.454  -4.591  0.00  0.00     0.009 C 
BRANCH  23  24
ATOM     24  C   UNL d   1      27.247 -13.915  -4.914  0.00  0.00     0.103 C 
BRANCH  24  25
ATOM     25  C   UNL d   1      26.279 -14.820  -4.173  0.00  0.00     0.222 C 
ATOM     26  O   UNL d   1      25.282 -15.274  -4.741  0.00  0.00    -0.273 OA
ATOM     27  N   UNL d   1      26.579 -15.059  -2.839  0.00  0.00    -0.327 N 
ATOM     28  H   UNL d   1      27.267 -14.485  -2.369  0.00  0.00     0.169 HD
BRANCH  27  29
ATOM     29  C   UNL d   1      25.792 -15.939  -2.055  0.00  0.00     0.034 A 
ATOM     30  C   UNL d   1      24.404 -15.815  -1.987  0.00  0.00     0.032 A 
ATOM     31  C   UNL d   1      23.661 -16.702  -1.182  0.00  0.00     0.039 A 
ATOM     32  C   UNL d   1      24.294 -17.729  -0.467  0.00  0.00     0.069 A 
ATOM     33  C   UNL d   1      25.679 -17.821  -0.516  0.00  0.00     0.039 A 
ATOM     34  C   UNL d   1      26.415 -16.939  -1.305  0.00  0.00     0.032 A 
BRANCH  32  35
ATOM     35  O   UNL d   1      23.481 -18.585   0.231  0.00  0.00    -0.349 OA
BRANCH  35  36
ATOM     36  C   UNL d   1      22.066 -18.373   0.098  0.00  0.00     0.207 C 
BRANCH  36  37
ATOM     37  C   UNL d   1      21.366 -19.700  -0.223  0.00  0.00     0.145 C 
ATOM     38  C   UNL d   1      20.520 -20.212   0.933  0.00  0.00     0.036 C 
ATOM     39  C   UNL d   1      19.145 -19.680   0.614  0.00  0.00     0.029 C 
ATOM     40  C   UNL d   1      19.118 -19.699  -0.896  0.00  0.00     0.168 C 
ATOM     41  O   UNL d   1      20.471 -19.521  -1.340  0.00  0.00    -0.384 OA
ENDBRANCH  36  37
ENDBRANCH  35  36
ENDBRANCH  32  35
ENDBRANCH  27  29
ENDBRANCH  24  25
ENDBRANCH  23  24
ENDBRANCH  22  23
ENDBRANCH   1  22
TORSDOF 16
ENDMDL
MODEL 6
REMARK VINA RESULT:    -7.753      3.433      9.021
REMARK INTER + INTRA:         -16.599
REMARK INTER:                 -12.526
REMARK INTRA:                  -4.073
REMARK CONF_INDEPENDENT:        4.773
REMARK UNBOUND:                -4.073
REMARK  16 active torsions:
REMARK  status: ('A' for Active; 'I' for Inactive)
REMARK    1  A    between atoms: C_2  and  C_3 
REMARK       I    between atoms: C_2  and  N_26 
REMARK    2  A    between atoms: C_3  and  C_4 
REMARK    3  A    between atoms: C_4  and  C_5 
REMARK    4  A    between atoms: C_5  and  C_6 
REMARK    5  A    between atoms: C_6  and  C_7 
REMARK    6  A    between atoms: C_7  and  C_8 
REMARK    7  A    between atoms: C_8  and  C_9 
REMARK    8  A    between atoms: C_9  and  C_10 
REMARK       I    between atoms: C_10  and  N_12 
REMARK    9  A    between atoms: N_12  and  C_13 
REMARK   10  A    between atoms: C_16  and  O_17 
REMARK   11  A    between atoms: O_17  and  C_18 
REMARK   12  A    between atoms: C_19  and  C_18 
REMARK   13  A    between atoms: N_26  and  C_27 
REMARK   14  A    between atoms: C_30  and  O_31 
REMARK   15  A    between atoms: O_31  and  C_32 
REMARK   16  A    between atoms: C_33  and  C_32 
ROOT
ATOM      1  C   UNL d   1      26.569 -15.212  -4.607  0.00  0.00     0.000 C 
ENDROOT
BRANCH   1   2
ATOM      2  C   UNL d   1      26.555 -15.606  -3.141  0.00  0.00     0.000 C 
BRANCH   2   3
ATOM      3  C   UNL d   1      27.974 -15.583  -2.581  0.00  0.00     0.009 C 
BRANCH   3   4
ATOM      4  C   UNL d   1      28.081 -14.506  -1.521  0.00  0.00     0.103 C 
BRANCH   4   5
ATOM      5  C   UNL d   1      28.632 -15.006  -0.197  0.00  0.00     0.222 C 
ATOM      6  O   UNL d   1      29.711 -14.608   0.262  0.00  0.00    -0.273 OA
ATOM      7  N   UNL d   1      27.856 -15.858   0.551  0.00  0.00    -0.327 N 
ATOM      8  H   UNL d   1      28.185 -15.987   1.502  0.00  0.00     0.169 HD
BRANCH   7   9
ATOM      9  C   UNL d   1      26.677 -16.514   0.162  0.00  0.00     0.034 A 
ATOM     10  C   UNL d   1      25.586 -15.784  -0.306  0.00  0.00     0.032 A 
ATOM     11  C   UNL d   1      24.408 -16.455  -0.677  0.00  0.00     0.039 A 
ATOM     12  C   UNL d   1      24.335 -17.853  -0.633  0.00  0.00     0.069 A 
ATOM     13  C   UNL d   1      25.410 -18.564  -0.121  0.00  0.00     0.039 A 
ATOM     14  C   UNL d   1      26.548 -17.893   0.303  0.00  0.00     0.032 A 
BRANCH  12  15
ATOM     15  O   UNL d   1      23.187 -18.429  -1.108  0.00  0.00    -0.349 OA
BRANCH  15  16
ATOM     16  C   UNL d   1      22.030 -18.323  -0.258  0.00  0.00     0.207 C 
BRANCH  16  17
ATOM     17  C   UNL d   1      21.304 -19.675  -0.218  0.00  0.00     0.145 C 
ATOM     18  C   UNL d   1      20.581 -19.913   1.102  0.00  0.00     0.036 C 
ATOM     19  C   UNL d   1      19.182 -19.415   0.828  0.00  0.00     0.029 C 
ATOM     20  C   UNL d   1      18.993 -19.737  -0.635  0.00  0.00     0.168 C 
ATOM     21  O   UNL d   1      20.288 -19.696  -1.243  0.00  0.00    -0.384 OA
ENDBRANCH  16  17
ENDBRANCH  15  16
ENDBRANCH  12  15
ENDBRANCH   7   9
ENDBRANCH   4   5
ENDBRANCH   3   4
ENDBRANCH   2   3
ENDBRANCH   1   2
BRANCH   1  22
ATOM     22  C   UNL d   1      26.988 -13.754  -4.768  0.00  0.00     0.000 C 
BRANCH  22  23
ATOM     23  C   UNL d   1      25.765 -12.855  -4.731  0.00  0.00     0.009 C 
BRANCH  23  24
ATOM     24  C   UNL d   1      26.007 -11.552  -3.959  0.00  0.00     0.103 C 
BRANCH  24  25
ATOM     25  C   UNL d   1      26.406 -11.890  -2.534  0.00  0.00     0.222 C 
ATOM     26  O   UNL d   1      25.831 -12.791  -1.917  0.00  0.00    -0.273 OA
ATOM     27  N   UNL d   1      27.413 -11.106  -1.988  0.00  0.00    -0.327 N 
ATOM     28  H   UNL d   1      27.684 -10.246  -2.447  0.00  0.00     0.169 HD
BRANCH  27  29
ATOM     29  C   UNL d   1      27.922 -11.362  -0.691  0.00  0.00     0.034 A 
ATOM     30  C   UNL d   1      29.253 -11.099  -0.362  0.00  0.00     0.032 A 
ATOM     31  C   UNL d   1      29.721 -11.384   0.937  0.00  0.00     0.039 A 
ATOM     32  C   UNL d   1      28.863 -11.906   1.915  0.00  0.00     0.069 A 
ATOM     33  C   UNL d   1      27.550 -12.196   1.565  0.00  0.00     0.039 A 
ATOM     34  C   UNL d   1      27.088 -11.921   0.280  0.00  0.00     0.032 A 
BRANCH  32  35
ATOM     35  O   UNL d   1      29.393 -12.084   3.167  0.00  0.00    -0.349 OA
BRANCH  35  36
ATOM     36  C   UNL d   1      30.376 -13.123   3.304  0.00  0.00     0.207 C 
BRANCH  36  37
ATOM     37  C   UNL d   1      29.703 -14.426   3.754  0.00  0.00     0.145 C 
ATOM     38  C   UNL d   1      29.559 -14.520   5.265  0.00  0.00     0.036 C 
ATOM     39  C   UNL d   1      28.167 -13.993   5.511  0.00  0.00     0.029 C 
ATOM     40  C   UNL d   1      27.416 -14.437   4.278  0.00  0.00     0.168 C 
ATOM     41  O   UNL d   1      28.369 -14.500   3.208  0.00  0.00    -0.384 OA
ENDBRANCH  36  37
ENDBRANCH  35  36
ENDBRANCH  32  35
ENDBRANCH  27  29
ENDBRANCH  24  25
ENDBRANCH  23  24
ENDBRANCH  22  23
ENDBRANCH   1  22
TORSDOF 16
ENDMDL
MODEL 7
REMARK VINA RESULT:    -6.976      2.283      3.420
REMARK INTER + INTRA:         -16.687
REMARK INTER:                 -11.749
REMARK INTRA:                  -4.938
REMARK CONF_INDEPENDENT:        4.773
REMARK UNBOUND:                -4.938
REMARK  16 active torsions:
REMARK  status: ('A' for Active; 'I' for Inactive)
REMARK    1  A    between atoms: C_2  and  C_3 
REMARK       I    between atoms: C_2  and  N_26 
REMARK    2  A    between atoms: C_3  and  C_4 
REMARK    3  A    between atoms: C_4  and  C_5 
REMARK    4  A    between atoms: C_5  and  C_6 
REMARK    5  A    between atoms: C_6  and  C_7 
REMARK    6  A    between atoms: C_7  and  C_8 
REMARK    7  A    between atoms: C_8  and  C_9 
REMARK    8  A    between atoms: C_9  and  C_10 
REMARK       I    between atoms: C_10  and  N_12 
REMARK    9  A    between atoms: N_12  and  C_13 
REMARK   10  A    between atoms: C_16  and  O_17 
REMARK   11  A    between atoms: O_17  and  C_18 
REMARK   12  A    between atoms: C_19  and  C_18 
REMARK   13  A    between atoms: N_26  and  C_27 
REMARK   14  A    between atoms: C_30  and  O_31 
REMARK   15  A    between atoms: O_31  and  C_32 
REMARK   16  A    between atoms: C_33  and  C_32 
ROOT
ATOM      1  C   UNL d   1      28.538 -11.230   0.316  0.00  0.00     0.000 C 
ENDROOT
BRANCH   1   2
ATOM      2  C   UNL d   1      28.768 -10.308  -0.868  0.00  0.00     0.000 C 
BRANCH   2   3
ATOM      3  C   UNL d   1      27.453  -9.653  -1.282  0.00  0.00     0.009 C 
BRANCH   3   4
ATOM      4  C   UNL d   1      27.303  -9.730  -2.787  0.00  0.00     0.103 C 
BRANCH   4   5
ATOM      5  C   UNL d   1      25.863  -9.640  -3.262  0.00  0.00     0.222 C 
ATOM      6  O   UNL d   1      25.191  -8.608  -3.140  0.00  0.00    -0.273 OA
ATOM      7  N   UNL d   1      25.329 -10.716  -3.929  0.00  0.00    -0.327 N 
ATOM      8  H   UNL d   1      24.450 -10.517  -4.394  0.00  0.00     0.169 HD
BRANCH   7   9
ATOM      9  C   UNL d   1      25.873 -12.004  -4.062  0.00  0.00     0.034 A 
ATOM     10  C   UNL d   1      27.078 -12.192  -4.736  0.00  0.00     0.032 A 
ATOM     11  C   UNL d   1      27.601 -13.490  -4.873  0.00  0.00     0.039 A 
ATOM     12  C   UNL d   1      26.955 -14.589  -4.295  0.00  0.00     0.069 A 
ATOM     13  C   UNL d   1      25.734 -14.393  -3.667  0.00  0.00     0.039 A 
ATOM     14  C   UNL d   1      25.189 -13.120  -3.589  0.00  0.00     0.032 A 
BRANCH  12  15
ATOM     15  O   UNL d   1      27.586 -15.801  -4.388  0.00  0.00    -0.349 OA
BRANCH  15  16
ATOM     16  C   UNL d   1      28.998 -15.755  -4.666  0.00  0.00     0.207 C 
BRANCH  16  17
ATOM     17  C   UNL d   1      29.661 -17.036  -4.140  0.00  0.00     0.145 C 
ATOM     18  C   UNL d   1      31.180 -16.930  -4.084  0.00  0.00     0.036 C 
ATOM     19  C   UNL d   1      31.446 -16.472  -2.671  0.00  0.00     0.029 C 
ATOM     20  C   UNL d   1      30.332 -17.130  -1.891  0.00  0.00     0.168 C 
ATOM     21  O   UNL d   1      29.224 -17.273  -2.785  0.00  0.00    -0.384 OA
ENDBRANCH  16  17
ENDBRANCH  15  16
ENDBRANCH  12  15
ENDBRANCH   7   9
ENDBRANCH   4   5
ENDBRANCH   3   4
ENDBRANCH   2   3
ENDBRANCH   1   2
BRANCH   1  22
ATOM     22  C   UNL d   1      27.730 -12.453  -0.106  0.00  0.00     0.000 C 
BRANCH  22  23
ATOM     23  C   UNL d   1      28.416 -13.156  -1.264  0.00  0.00     0.009 C 
BRANCH  23  24
ATOM     24  C   UNL d   1      28.871 -14.578  -0.912  0.00  0.00     0.103 C 
BRANCH  24  25
ATOM     25  C   UNL d   1      27.679 -15.363  -0.393  0.00  0.00     0.222 C 
ATOM     26  O   UNL d   1      27.401 -15.362   0.809  0.00  0.00    -0.273 OA
ATOM     27  N   UNL d   1      26.973 -16.086  -1.345  0.00  0.00    -0.327 N 
ATOM     28  H   UNL d   1      27.375 -16.235  -2.261  0.00  0.00     0.169 HD
BRANCH  27  29
ATOM     29  C   UNL d   1      25.803 -16.806  -1.001  0.00  0.00     0.034 A 
ATOM     30  C   UNL d   1      25.836 -17.870  -0.099  0.00  0.00     0.032 A 
ATOM     31  C   UNL d   1      24.650 -18.569   0.203  0.00  0.00     0.039 A 
ATOM     32  C   UNL d   1      23.427 -18.196  -0.371  0.00  0.00     0.069 A 
ATOM     33  C   UNL d   1      23.412 -17.157  -1.294  0.00  0.00     0.039 A 
ATOM     34  C   UNL d   1      24.585 -16.470  -1.598  0.00  0.00     0.032 A 
BRANCH  32  35
ATOM     35  O   UNL d   1      22.318 -18.890   0.038  0.00  0.00    -0.349 OA
BRANCH  35  36
ATOM     36  C   UNL d   1      21.226 -18.956  -0.895  0.00  0.00     0.207 C 
BRANCH  36  37
ATOM     37  C   UNL d   1      19.890 -18.950  -0.140  0.00  0.00     0.145 C 
ATOM     38  C   UNL d   1      19.017 -20.148  -0.482  0.00  0.00     0.036 C 
ATOM     39  C   UNL d   1      19.356 -21.141   0.602  0.00  0.00     0.029 C 
ATOM     40  C   UNL d   1      19.638 -20.256   1.793  0.00  0.00     0.168 C 
ATOM     41  O   UNL d   1      20.133 -19.010   1.281  0.00  0.00    -0.384 OA
ENDBRANCH  36  37
ENDBRANCH  35  36
ENDBRANCH  32  35
ENDBRANCH  27  29
ENDBRANCH  24  25
ENDBRANCH  23  24
ENDBRANCH  22  23
ENDBRANCH   1  22
TORSDOF 16
ENDMDL
