MODEL 1
REMARK VINA RESULT:    -7.639      0.000      0.000
REMARK INTER + INTRA:         -13.060
REMARK INTER:                 -10.324
REMARK INTRA:                  -2.736
REMARK CONF_INDEPENDENT:        2.685
REMARK UNBOUND:                -2.736
REMARK  9 active torsions:
REMARK  status: ('A' for Active; 'I' for Inactive)
REMARK    1  A    between atoms: CG_2  and  CB_4 
REMARK    2  A    between atoms: CA_5  and  CB_4 
REMARK    3  A    between atoms: CA_5  and  C_32 
REMARK    4  A    between atoms: CA_5  and  N_6 
REMARK       I    between atoms: N_6  and  C_7 
REMARK    5  A    between atoms: C_9  and  C_7 
REMARK    6  A    between atoms: C_9  and  N_20 
REMARK    7  A    between atoms: C_9  and  C_10 
REMARK    8  A    between atoms: C_10  and  C_11 
REMARK    9  A    between atoms: C_30  and  O_31 
ROOT
ATOM      1  C   UNK d   0      29.194 -16.223   0.014  0.00  0.00     0.188 C 
ENDROOT
BRANCH   1   2
ATOM      2  N   UNK d   0      30.289 -16.483  -0.984  0.00  0.00    -0.290 N 
ATOM      3  C   UNK d   0      30.246 -15.949  -2.264  0.00  0.00     0.260 C 
ATOM      4  O   UNK d   0      30.008 -14.765  -2.527  0.00  0.00    -0.267 OA
ATOM      5  C   UNK d   0      30.510 -16.922  -3.360  0.00  0.00     0.058 A 
ATOM      6  C   UNK d   0      30.194 -16.607  -4.686  0.00  0.00     0.019 A 
ATOM      7  C   UNK d   0      30.986 -18.198  -3.003  0.00  0.00     0.047 A 
ATOM      8  C   UNK d   0      30.359 -17.567  -5.683  0.00  0.00     0.001 A 
ATOM      9  C   UNK d   0      30.848 -18.831  -5.351  0.00  0.00     0.002 A 
ATOM     10  C   UNK d   0      31.155 -19.147  -4.019  0.00  0.00     0.030 A 
ATOM     11  N   UNK d   0      31.179 -18.514  -1.653  0.00  0.00    -0.346 N 
ATOM     12  C   UNK d   0      31.386 -17.386  -0.796  0.00  0.00     0.332 C 
ATOM     13  H   UNK d   0      31.586 -19.399  -1.394  0.00  0.00     0.164 HD
BRANCH  12  14
ATOM     14  O   UNK d   0      31.529 -17.823   0.524  0.00  0.00    -0.359 OA
ATOM     15  H   UNK d   0      30.898 -18.549   0.606  0.00  0.00     0.214 HD
ENDBRANCH  12  14
ENDBRANCH   1   2
BRANCH   1  16
ATOM     16  C   UNK d   0      29.074 -14.743   0.430  0.00  0.00     0.076 C 
BRANCH  16  17
ATOM     17  C   UNK d   0      29.633 -14.463   1.798  0.00  0.00    -0.028 C 
ATOM     18  C   UNK d   0      30.953 -14.330   2.159  0.00  0.00     0.096 C 
ATOM     19  N   UNK d   0      31.062 -14.469   3.513  0.00  0.00    -0.365 N 
ATOM     20  C   UNK d   0      29.835 -14.230   4.059  0.00  0.00     0.042 A 
ATOM     21  H   UNK d   0      31.944 -14.691   3.979  0.00  0.00     0.165 HD
ATOM     22  C   UNK d   0      29.480 -14.010   5.385  0.00  0.00     0.030 A 
ATOM     23  C   UNK d   0      28.913 -14.258   3.006  0.00  0.00    -0.002 A 
ATOM     24  C   UNK d   0      28.127 -13.784   5.633  0.00  0.00     0.002 A 
ATOM     25  C   UNK d   0      27.180 -13.815   4.605  0.00  0.00     0.001 A 
ATOM     26  C   UNK d   0      27.555 -14.076   3.288  0.00  0.00     0.014 A 
ENDBRANCH  16  17
ENDBRANCH   1  16
BRANCH   1  27
ATOM     27  C   UNK d   0      27.770 -16.599  -0.539  0.00  0.00     0.241 C 
ATOM     28  N   LEU d   1      27.389 -16.034  -1.754  0.00  0.00    -0.345 N 
ATOM     29  H   LEU d   1      27.995 -15.434  -2.288  0.00  0.00     0.163 HD
ATOM     30  O   UNK d   0      27.022 -17.339   0.104  0.00  0.00    -0.271 OA
BRANCH  28  31
ATOM     31  CA  LEU d   1      26.095 -16.269  -2.447  0.00  0.00     0.185 C 
BRANCH  31  32
ATOM     32  C   LEU d   1      25.818 -15.458  -3.778  0.00  0.00     0.196 C 
ATOM     33  O   LEU d   1      26.676 -15.575  -4.706  0.00  0.00    -0.646 OA
ATOM     34  OXT LEU d   1      24.780 -14.732  -3.767  0.00  0.00    -0.646 OA
ENDBRANCH  31  32
BRANCH  31  35
ATOM     35  CB  LEU d   1      24.998 -15.853  -1.453  0.00  0.00     0.040 C 
BRANCH  35  36
ATOM     36  CG  LEU d   1      23.912 -16.935  -1.286  0.00  0.00    -0.020 C 
ATOM     37  CD1 LEU d   1      24.350 -18.171  -0.516  0.00  0.00     0.009 C 
ATOM     38  CD2 LEU d   1      22.720 -16.399  -0.519  0.00  0.00     0.009 C 
ENDBRANCH  35  36
ENDBRANCH  31  35
ENDBRANCH  28  31
ENDBRANCH   1  27
TORSDOF 9
ENDMDL
MODEL 2
REMARK VINA RESULT:    -7.477      2.036      6.873
REMARK INTER + INTRA:         -12.926
REMARK INTER:                 -10.161
REMARK INTRA:                  -2.765
REMARK CONF_INDEPENDENT:        2.685
REMARK UNBOUND:                -2.765
REMARK  9 active torsions:
REMARK  status: ('A' for Active; 'I' for Inactive)
REMARK    1  A    between atoms: CG_2  and  CB_4 
REMARK    2  A    between atoms: CA_5  and  CB_4 
REMARK    3  A    between atoms: CA_5  and  C_32 
REMARK    4  A    between atoms: CA_5  and  N_6 
REMARK       I    between atoms: N_6  and  C_7 
REMARK    5  A    between atoms: C_9  and  C_7 
REMARK    6  A    between atoms: C_9  and  N_20 
REMARK    7  A    between atoms: C_9  and  C_10 
REMARK    8  A    between atoms: C_10  and  C_11 
REMARK    9  A    between atoms: C_30  and  O_31 
ROOT
ATOM      1  C   UNK d   0      27.732 -14.837   0.032  0.00  0.00     0.188 C 
ENDROOT
BRANCH   1   2
ATOM      2  N   UNK d   0      28.252 -13.955   1.135  0.00  0.00    -0.290 N 
ATOM      3  C   UNK d   0      29.304 -14.354   1.947  0.00  0.00     0.260 C 
ATOM      4  O   UNK d   0      30.374 -14.819   1.539  0.00  0.00    -0.267 OA
ATOM      5  C   UNK d   0      29.069 -14.186   3.408  0.00  0.00     0.058 A 
ATOM      6  C   UNK d   0      29.894 -14.824   4.342  0.00  0.00     0.019 A 
ATOM      7  C   UNK d   0      27.934 -13.457   3.810  0.00  0.00     0.047 A 
ATOM      8  C   UNK d   0      29.598 -14.734   5.701  0.00  0.00     0.001 A 
ATOM      9  C   UNK d   0      28.488 -13.999   6.120  0.00  0.00     0.002 A 
ATOM     10  C   UNK d   0      27.658 -13.368   5.180  0.00  0.00     0.030 A 
ATOM     11  N   UNK d   0      27.068 -12.933   2.844  0.00  0.00    -0.346 N 
ATOM     12  C   UNK d   0      27.661 -12.720   1.559  0.00  0.00     0.332 C 
ATOM     13  H   UNK d   0      26.294 -12.350   3.121  0.00  0.00     0.164 HD
BRANCH  12  14
ATOM     14  O   UNK d   0      26.695 -12.232   0.674  0.00  0.00    -0.359 OA
ATOM     15  H   UNK d   0      27.052 -12.426  -0.202  0.00  0.00     0.214 HD
ENDBRANCH  12  14
ENDBRANCH   1   2
BRANCH   1  16
ATOM     16  C   UNK d   0      26.206 -15.047   0.076  0.00  0.00     0.076 C 
BRANCH  16  17
ATOM     17  C   UNK d   0      25.807 -16.498   0.104  0.00  0.00    -0.028 C 
ATOM     18  C   UNK d   0      26.570 -17.575   0.485  0.00  0.00     0.096 C 
ATOM     19  N   UNK d   0      25.997 -18.719   0.009  0.00  0.00    -0.365 N 
ATOM     20  C   UNK d   0      24.686 -18.452  -0.258  0.00  0.00     0.042 A 
ATOM     21  H   UNK d   0      26.508 -19.599  -0.086  0.00  0.00     0.165 HD
ATOM     22  C   UNK d   0      23.637 -19.325  -0.522  0.00  0.00     0.030 A 
ATOM     23  C   UNK d   0      24.548 -17.059  -0.241  0.00  0.00    -0.002 A 
ATOM     24  C   UNK d   0      22.392 -18.742  -0.751  0.00  0.00     0.002 A 
ATOM     25  C   UNK d   0      22.222 -17.355  -0.751  0.00  0.00     0.001 A 
ATOM     26  C   UNK d   0      23.297 -16.497  -0.521  0.00  0.00     0.014 A 
ENDBRANCH  16  17
ENDBRANCH   1  16
BRANCH   1  27
ATOM     27  C   UNK d   0      28.014 -14.245  -1.397  0.00  0.00     0.241 C 
ATOM     28  N   LEU d   1      27.618 -15.010  -2.492  0.00  0.00    -0.345 N 
ATOM     29  H   LEU d   1      27.141 -15.891  -2.397  0.00  0.00     0.163 HD
ATOM     30  O   UNK d   0      28.592 -13.163  -1.527  0.00  0.00    -0.271 OA
BRANCH  28  31
ATOM     31  CA  LEU d   1      27.785 -14.627  -3.919  0.00  0.00     0.185 C 
BRANCH  31  32
ATOM     32  C   LEU d   1      26.666 -15.087  -4.939  0.00  0.00     0.196 C 
ATOM     33  O   LEU d   1      27.027 -15.252  -6.144  0.00  0.00    -0.646 OA
ATOM     34  OXT LEU d   1      25.501 -15.201  -4.454  0.00  0.00    -0.646 OA
ENDBRANCH  31  32
BRANCH  31  35
ATOM     35  CB  LEU d   1      29.093 -15.289  -4.386  0.00  0.00     0.040 C 
BRANCH  35  36
ATOM     36  CG  LEU d   1      29.504 -16.479  -3.494  0.00  0.00    -0.020 C 
ATOM     37  CD1 LEU d   1      30.103 -17.661  -4.237  0.00  0.00     0.009 C 
ATOM     38  CD2 LEU d   1      30.563 -16.069  -2.492  0.00  0.00     0.009 C 
ENDBRANCH  35  36
ENDBRANCH  31  35
ENDBRANCH  28  31
ENDBRANCH   1  27
TORSDOF 9
ENDMDL
MODEL 3
REMARK VINA RESULT:    -6.962      4.189      8.723
REMARK INTER + INTRA:         -12.833
REMARK INTER:                  -9.647
REMARK INTRA:                  -3.185
REMARK CONF_INDEPENDENT:        2.685
REMARK UNBOUND:                -3.185
REMARK  9 active torsions:
REMARK  status: ('A' for Active; 'I' for Inactive)
REMARK    1  A    between atoms: CG_2  and  CB_4 
REMARK    2  A    between atoms: CA_5  and  CB_4 
REMARK    3  A    between atoms: CA_5  and  C_32 
REMARK    4  A    between atoms: CA_5  and  N_6 
REMARK       I    between atoms: N_6  and  C_7 
REMARK    5  A    between atoms: C_9  and  C_7 
REMARK    6  A    between atoms: C_9  and  N_20 
REMARK    7  A    between atoms: C_9  and  C_10 
REMARK    8  A    between atoms: C_10  and  C_11 
REMARK    9  A    between atoms: C_30  and  O_31 
ROOT
ATOM      1  C   UNK d   0      28.190 -13.101   2.212  0.00  0.00     0.188 C 
ENDROOT
BRANCH   1   2
ATOM      2  N   UNK d   0      28.628 -13.788   3.476  0.00  0.00    -0.290 N 
ATOM      3  C   UNK d   0      27.872 -13.721   4.638  0.00  0.00     0.260 C 
ATOM      4  O   UNK d   0      26.656 -13.934   4.702  0.00  0.00    -0.267 OA
ATOM      5  C   UNK d   0      28.634 -13.360   5.864  0.00  0.00     0.058 A 
ATOM      6  C   UNK d   0      27.968 -12.952   7.025  0.00  0.00     0.019 A 
ATOM      7  C   UNK d   0      30.040 -13.341   5.780  0.00  0.00     0.047 A 
ATOM      8  C   UNK d   0      28.703 -12.524   8.130  0.00  0.00     0.001 A 
ATOM      9  C   UNK d   0      30.097 -12.517   8.073  0.00  0.00     0.002 A 
ATOM     10  C   UNK d   0      30.762 -12.918   6.903  0.00  0.00     0.030 A 
ATOM     11  N   UNK d   0      30.667 -13.642   4.566  0.00  0.00    -0.346 N 
ATOM     12  C   UNK d   0      29.888 -14.443   3.671  0.00  0.00     0.332 C 
ATOM     13  H   UNK d   0      31.672 -13.700   4.516  0.00  0.00     0.164 HD
BRANCH  12  14
ATOM     14  O   UNK d   0      30.600 -14.646   2.486  0.00  0.00    -0.359 OA
ATOM     15  H   UNK d   0      30.575 -15.602   2.352  0.00  0.00     0.214 HD
ENDBRANCH  12  14
ENDBRANCH   1   2
BRANCH   1  16
ATOM     16  C   UNK d   0      26.887 -13.671   1.617  0.00  0.00     0.076 C 
BRANCH  16  17
ATOM     17  C   UNK d   0      26.823 -13.567   0.117  0.00  0.00    -0.028 C 
ATOM     18  C   UNK d   0      27.247 -12.526  -0.674  0.00  0.00     0.096 C 
ATOM     19  N   UNK d   0      26.673 -12.640  -1.908  0.00  0.00    -0.365 N 
ATOM     20  C   UNK d   0      26.276 -13.936  -2.067  0.00  0.00     0.042 A 
ATOM     21  H   UNK d   0      26.604 -11.859  -2.563  0.00  0.00     0.165 HD
ATOM     22  C   UNK d   0      25.871 -14.606  -3.215  0.00  0.00     0.030 A 
ATOM     23  C   UNK d   0      26.326 -14.530  -0.801  0.00  0.00    -0.002 A 
ATOM     24  C   UNK d   0      25.529 -15.948  -3.058  0.00  0.00     0.002 A 
ATOM     25  C   UNK d   0      25.558 -16.569  -1.807  0.00  0.00     0.001 A 
ATOM     26  C   UNK d   0      25.932 -15.866  -0.662  0.00  0.00     0.014 A 
ENDBRANCH  16  17
ENDBRANCH   1  16
BRANCH   1  27
ATOM     27  C   UNK d   0      27.895 -11.571   2.427  0.00  0.00     0.241 C 
ATOM     28  N   LEU d   1      27.048 -11.228   3.478  0.00  0.00    -0.345 N 
ATOM     29  H   LEU d   1      26.655 -11.909   4.106  0.00  0.00     0.163 HD
ATOM     30  O   UNK d   0      28.375 -10.725   1.668  0.00  0.00    -0.271 OA
BRANCH  28  31
ATOM     31  CA  LEU d   1      26.652  -9.844   3.852  0.00  0.00     0.185 C 
BRANCH  31  32
ATOM     32  C   LEU d   1      25.906  -8.973   2.761  0.00  0.00     0.196 C 
ATOM     33  O   LEU d   1      24.985  -9.547   2.105  0.00  0.00    -0.646 OA
ATOM     34  OXT LEU d   1      26.339  -7.790   2.620  0.00  0.00    -0.646 OA
ENDBRANCH  31  32
BRANCH  31  35
ATOM     35  CB  LEU d   1      27.959  -9.101   4.177  0.00  0.00     0.040 C 
BRANCH  35  36
ATOM     36  CG  LEU d   1      28.918  -9.946   5.042  0.00  0.00    -0.020 C 
ATOM     37  CD1 LEU d   1      30.319 -10.107   4.474  0.00  0.00     0.009 C 
ATOM     38  CD2 LEU d   1      29.119  -9.319   6.406  0.00  0.00     0.009 C 
ENDBRANCH  35  36
ENDBRANCH  31  35
ENDBRANCH  28  31
ENDBRANCH   1  27
TORSDOF 9
ENDMDL
MODEL 4
REMARK VINA RESULT:    -6.880      4.328      6.711
REMARK INTER + INTRA:         -13.167
REMARK INTER:                  -9.565
REMARK INTRA:                  -3.602
REMARK CONF_INDEPENDENT:        2.685
REMARK UNBOUND:                -3.602
REMARK  9 active torsions:
REMARK  status: ('A' for Active; 'I' for Inactive)
REMARK    1  A    between atoms: CG_2  and  CB_4 
REMARK    2  A    between atoms: CA_5  and  CB_4 
REMARK    3  A    between atoms: CA_5  and  C_32 
REMARK    4  A    between atoms: CA_5  and  N_6 
REMARK       I    between atoms: N_6  and  C_7 
REMARK    5  A    between atoms: C_9  and  C_7 
REMARK    6  A    between atoms: C_9  and  N_20 
REMARK    7  A    between atoms: C_9  and  C_10 
REMARK    8  A    between atoms: C_10  and  C_11 
REMARK    9  A    between atoms: C_30  and  O_31 
ROOT
ATOM      1  C   UNK d   0      26.200 -14.647  -2.412  0.00  0.00     0.188 C 
ENDROOT
BRANCH   1   2
ATOM      2  N   UNK d   0      26.189 -14.429  -3.901  0.00  0.00    -0.290 N 
ATOM      3  C   UNK d   0      27.311 -14.679  -4.679  0.00  0.00     0.260 C 
ATOM      4  O   UNK d   0      27.988 -15.712  -4.629  0.00  0.00    -0.267 OA
ATOM      5  C   UNK d   0      27.680 -13.587  -5.620  0.00  0.00     0.058 A 
ATOM      6  C   UNK d   0      28.940 -13.562  -6.227  0.00  0.00     0.019 A 
ATOM      7  C   UNK d   0      26.762 -12.533  -5.794  0.00  0.00     0.047 A 
ATOM      8  C   UNK d   0      29.301 -12.480  -7.029  0.00  0.00     0.001 A 
ATOM      9  C   UNK d   0      28.397 -11.436  -7.228  0.00  0.00     0.002 A 
ATOM     10  C   UNK d   0      27.137 -11.459  -6.611  0.00  0.00     0.030 A 
ATOM     11  N   UNK d   0      25.559 -12.536  -5.078  0.00  0.00    -0.346 N 
ATOM     12  C   UNK d   0      25.122 -13.828  -4.645  0.00  0.00     0.332 C 
ATOM     13  H   UNK d   0      24.867 -11.824  -5.249  0.00  0.00     0.164 HD
BRANCH  12  14
ATOM     14  O   UNK d   0      23.937 -13.699  -3.914  0.00  0.00    -0.359 OA
ATOM     15  H   UNK d   0      23.257 -13.550  -4.584  0.00  0.00     0.214 HD
ENDBRANCH  12  14
ENDBRANCH   1   2
BRANCH   1  16
ATOM     16  C   UNK d   0      27.115 -15.802  -1.963  0.00  0.00     0.076 C 
BRANCH  16  17
ATOM     17  C   UNK d   0      26.438 -16.767  -1.028  0.00  0.00    -0.028 C 
ATOM     18  C   UNK d   0      27.028 -17.627  -0.132  0.00  0.00     0.096 C 
ATOM     19  N   UNK d   0      26.123 -18.581   0.233  0.00  0.00    -0.365 N 
ATOM     20  C   UNK d   0      24.875 -18.100  -0.036  0.00  0.00     0.042 A 
ATOM     21  H   UNK d   0      26.394 -19.473   0.652  0.00  0.00     0.165 HD
ATOM     22  C   UNK d   0      23.633 -18.575   0.370  0.00  0.00     0.030 A 
ATOM     23  C   UNK d   0      25.044 -16.981  -0.858  0.00  0.00    -0.002 A 
ATOM     24  C   UNK d   0      22.523 -17.853  -0.066  0.00  0.00     0.002 A 
ATOM     25  C   UNK d   0      22.657 -16.737  -0.896  0.00  0.00     0.001 A 
ATOM     26  C   UNK d   0      23.912 -16.301  -1.321  0.00  0.00     0.014 A 
ENDBRANCH  16  17
ENDBRANCH   1  16
BRANCH   1  27
ATOM     27  C   UNK d   0      26.723 -13.391  -1.622  0.00  0.00     0.241 C 
ATOM     28  N   LEU d   1      26.606 -12.152  -2.246  0.00  0.00    -0.345 N 
ATOM     29  H   LEU d   1      26.178 -12.035  -3.150  0.00  0.00     0.163 HD
ATOM     30  O   UNK d   0      27.242 -13.520  -0.511  0.00  0.00    -0.271 OA
BRANCH  28  31
ATOM     31  CA  LEU d   1      27.030 -10.850  -1.667  0.00  0.00     0.185 C 
BRANCH  31  32
ATOM     32  C   LEU d   1      26.578  -9.531  -2.416  0.00  0.00     0.196 C 
ATOM     33  O   LEU d   1      26.887  -8.429  -1.867  0.00  0.00    -0.646 OA
ATOM     34  OXT LEU d   1      25.908  -9.709  -3.476  0.00  0.00    -0.646 OA
ENDBRANCH  31  32
BRANCH  31  35
ATOM     35  CB  LEU d   1      28.568 -10.854  -1.692  0.00  0.00     0.040 C 
BRANCH  35  36
ATOM     36  CG  LEU d   1      29.135 -11.217  -3.080  0.00  0.00    -0.020 C 
ATOM     37  CD1 LEU d   1      30.113 -10.207  -3.657  0.00  0.00     0.009 C 
ATOM     38  CD2 LEU d   1      29.902 -12.523  -3.033  0.00  0.00     0.009 C 
ENDBRANCH  35  36
ENDBRANCH  31  35
ENDBRANCH  28  31
ENDBRANCH   1  27
TORSDOF 9
ENDMDL
MODEL 5
REMARK VINA RESULT:    -6.872      1.795      4.965
REMARK INTER + INTRA:         -12.819
REMARK INTER:                  -9.557
REMARK INTRA:                  -3.262
REMARK CONF_INDEPENDENT:        2.685
REMARK UNBOUND:                -3.262
REMARK  9 active torsions:
REMARK  status: ('A' for Active; 'I' for Inactive)
REMARK    1  A    between atoms: CG_2  and  CB_4 
REMARK    2  A    between atoms: CA_5  and  CB_4 
REMARK    3  A    between atoms: CA_5  and  C_32 
REMARK    4  A    between atoms: CA_5  and  N_6 
REMARK       I    between atoms: N_6  and  C_7 
REMARK    5  A    between atoms: C_9  and  C_7 
REMARK    6  A    between atoms: C_9  and  N_20 
REMARK    7  A    between atoms: C_9  and  C_10 
REMARK    8  A    between atoms: C_10  and  C_11 
REMARK    9  A    between atoms: C_30  and  O_31 
ROOT
ATOM      1  C   UNK d   0      28.274 -14.575  -1.388  0.00  0.00     0.188 C 
ENDROOT
BRANCH   1   2
ATOM      2  N   UNK d   0      27.615 -15.924  -1.484  0.00  0.00    -0.290 N 
ATOM      3  C   UNK d   0      26.379 -16.086  -2.095  0.00  0.00     0.260 C 
ATOM      4  O   UNK d   0      26.074 -15.631  -3.203  0.00  0.00    -0.267 OA
ATOM      5  C   UNK d   0      25.388 -16.871  -1.308  0.00  0.00     0.058 A 
ATOM      6  C   UNK d   0      24.029 -16.847  -1.645  0.00  0.00     0.019 A 
ATOM      7  C   UNK d   0      25.847 -17.546  -0.161  0.00  0.00     0.047 A 
ATOM      8  C   UNK d   0      23.105 -17.510  -0.838  0.00  0.00     0.001 A 
ATOM      9  C   UNK d   0      23.545 -18.201   0.292  0.00  0.00     0.002 A 
ATOM     10  C   UNK d   0      24.906 -18.215   0.631  0.00  0.00     0.030 A 
ATOM     11  N   UNK d   0      27.193 -17.449   0.208  0.00  0.00    -0.346 N 
ATOM     12  C   UNK d   0      28.087 -17.126  -0.862  0.00  0.00     0.332 C 
ATOM     13  H   UNK d   0      27.545 -17.985   0.986  0.00  0.00     0.164 HD
BRANCH  12  14
ATOM     14  O   UNK d   0      29.391 -17.022  -0.367  0.00  0.00    -0.359 OA
ATOM     15  H   UNK d   0      29.413 -17.634   0.379  0.00  0.00     0.214 HD
ENDBRANCH  12  14
ENDBRANCH   1   2
BRANCH   1  16
ATOM     16  C   UNK d   0      29.116 -14.389  -0.111  0.00  0.00     0.076 C 
BRANCH  16  17
ATOM     17  C   UNK d   0      28.286 -14.100   1.111  0.00  0.00    -0.028 C 
ATOM     18  C   UNK d   0      26.941 -13.823   1.171  0.00  0.00     0.096 C 
ATOM     19  N   UNK d   0      26.657 -13.249   2.376  0.00  0.00    -0.365 N 
ATOM     20  C   UNK d   0      27.663 -13.568   3.241  0.00  0.00     0.042 A 
ATOM     21  H   UNK d   0      25.808 -12.706   2.547  0.00  0.00     0.165 HD
ATOM     22  C   UNK d   0      27.722 -13.437   4.623  0.00  0.00     0.030 A 
ATOM     23  C   UNK d   0      28.714 -14.071   2.466  0.00  0.00    -0.002 A 
ATOM     24  C   UNK d   0      28.899 -13.865   5.234  0.00  0.00     0.002 A 
ATOM     25  C   UNK d   0      29.971 -14.363   4.489  0.00  0.00     0.001 A 
ATOM     26  C   UNK d   0      29.903 -14.450   3.098  0.00  0.00     0.014 A 
ENDBRANCH  16  17
ENDBRANCH   1  16
BRANCH   1  27
ATOM     27  C   UNK d   0      29.275 -14.306  -2.570  0.00  0.00     0.241 C 
ATOM     28  N   LEU d   1      28.895 -14.740  -3.838  0.00  0.00    -0.345 N 
ATOM     29  H   LEU d   1      28.009 -15.180  -4.020  0.00  0.00     0.163 HD
ATOM     30  O   UNK d   0      30.362 -13.762  -2.361  0.00  0.00    -0.271 OA
BRANCH  28  31
ATOM     31  CA  LEU d   1      29.692 -14.575  -5.082  0.00  0.00     0.185 C 
BRANCH  31  32
ATOM     32  C   LEU d   1      28.924 -14.666  -6.464  0.00  0.00     0.196 C 
ATOM     33  O   LEU d   1      29.504 -14.160  -7.472  0.00  0.00    -0.646 OA
ATOM     34  OXT LEU d   1      27.777 -15.201  -6.415  0.00  0.00    -0.646 OA
ENDBRANCH  31  32
BRANCH  31  35
ATOM     35  CB  LEU d   1      30.720 -15.720  -5.084  0.00  0.00     0.040 C 
BRANCH  35  36
ATOM     36  CG  LEU d   1      30.114 -17.057  -4.610  0.00  0.00    -0.020 C 
ATOM     37  CD1 LEU d   1      30.404 -18.247  -5.511  0.00  0.00     0.009 C 
ATOM     38  CD2 LEU d   1      30.659 -17.453  -3.253  0.00  0.00     0.009 C 
ENDBRANCH  35  36
ENDBRANCH  31  35
ENDBRANCH  28  31
ENDBRANCH   1  27
TORSDOF 9
ENDMDL
MODEL 6
REMARK VINA RESULT:    -6.657      3.481      6.315
REMARK INTER + INTRA:         -12.945
REMARK INTER:                  -9.342
REMARK INTRA:                  -3.603
REMARK CONF_INDEPENDENT:        2.685
REMARK UNBOUND:                -3.603
REMARK  9 active torsions:
REMARK  status: ('A' for Active; 'I' for Inactive)
REMARK    1  A    between atoms: CG_2  and  CB_4 
REMARK    2  A    between atoms: CA_5  and  CB_4 
REMARK    3  A    between atoms: CA_5  and  C_32 
REMARK    4  A    between atoms: CA_5  and  N_6 
REMARK       I    between atoms: N_6  and  C_7 
REMARK    5  A    between atoms: C_9  and  C_7 
REMARK    6  A    between atoms: C_9  and  N_20 
REMARK    7  A    between atoms: C_9  and  C_10 
REMARK    8  A    between atoms: C_10  and  C_11 
REMARK    9  A    between atoms: C_30  and  O_31 
ROOT
ATOM      1  C   UNK d   0      26.006 -14.580  -2.971  0.00  0.00     0.188 C 
ENDROOT
BRANCH   1   2
ATOM      2  N   UNK d   0      26.224 -13.850  -4.268  0.00  0.00    -0.290 N 
ATOM      3  C   UNK d   0      26.881 -14.447  -5.335  0.00  0.00     0.260 C 
ATOM      4  O   UNK d   0      26.632 -15.574  -5.775  0.00  0.00    -0.267 OA
ATOM      5  C   UNK d   0      27.956 -13.622  -5.951  0.00  0.00     0.058 A 
ATOM      6  C   UNK d   0      28.898 -14.202  -6.809  0.00  0.00     0.019 A 
ATOM      7  C   UNK d   0      28.055 -12.273  -5.559  0.00  0.00     0.047 A 
ATOM      8  C   UNK d   0      29.953 -13.434  -7.298  0.00  0.00     0.001 A 
ATOM      9  C   UNK d   0      30.056 -12.090  -6.936  0.00  0.00     0.002 A 
ATOM     10  C   UNK d   0      29.116 -11.514  -6.067  0.00  0.00     0.030 A 
ATOM     11  N   UNK d   0      27.166 -11.761  -4.607  0.00  0.00    -0.346 N 
ATOM     12  C   UNK d   0      25.925 -12.468  -4.503  0.00  0.00     0.332 C 
ATOM     13  H   UNK d   0      27.184 -10.780  -4.374  0.00  0.00     0.164 HD
BRANCH  12  14
ATOM     14  O   UNK d   0      25.140 -11.888  -3.502  0.00  0.00    -0.359 OA
ATOM     15  H   UNK d   0      24.780 -11.092  -3.911  0.00  0.00     0.214 HD
ENDBRANCH  12  14
ENDBRANCH   1   2
BRANCH   1  16
ATOM     16  C   UNK d   0      26.915 -15.811  -2.794  0.00  0.00     0.076 C 
BRANCH  16  17
ATOM     17  C   UNK d   0      26.571 -16.635  -1.583  0.00  0.00    -0.028 C 
ATOM     18  C   UNK d   0      27.427 -17.123  -0.624  0.00  0.00     0.096 C 
ATOM     19  N   UNK d   0      26.801 -18.119   0.068  0.00  0.00    -0.365 N 
ATOM     20  C   UNK d   0      25.456 -17.969  -0.105  0.00  0.00     0.042 A 
ATOM     21  H   UNK d   0      27.306 -18.814   0.622  0.00  0.00     0.165 HD
ATOM     22  C   UNK d   0      24.400 -18.564   0.575  0.00  0.00     0.030 A 
ATOM     23  C   UNK d   0      25.285 -17.068  -1.163  0.00  0.00    -0.002 A 
ATOM     24  C   UNK d   0      23.118 -18.197   0.168  0.00  0.00     0.002 A 
ATOM     25  C   UNK d   0      22.913 -17.309  -0.891  0.00  0.00     0.001 A 
ATOM     26  C   UNK d   0      23.988 -16.753  -1.584  0.00  0.00     0.014 A 
ENDBRANCH  16  17
ENDBRANCH   1  16
BRANCH   1  27
ATOM     27  C   UNK d   0      26.300 -13.680  -1.714  0.00  0.00     0.241 C 
ATOM     28  N   LEU d   1      27.049 -12.524  -1.920  0.00  0.00    -0.345 N 
ATOM     29  H   LEU d   1      27.370 -12.239  -2.830  0.00  0.00     0.163 HD
ATOM     30  O   UNK d   0      25.906 -14.016  -0.595  0.00  0.00    -0.271 OA
BRANCH  28  31
ATOM     31  CA  LEU d   1      27.427 -11.541  -0.871  0.00  0.00     0.185 C 
BRANCH  31  32
ATOM     32  C   LEU d   1      28.014 -10.150  -1.345  0.00  0.00     0.196 C 
ATOM     33  O   LEU d   1      28.283  -9.305  -0.436  0.00  0.00    -0.646 OA
ATOM     34  OXT LEU d   1      28.117 -10.001  -2.598  0.00  0.00    -0.646 OA
ENDBRANCH  31  32
BRANCH  31  35
ATOM     35  CB  LEU d   1      28.530 -12.213  -0.036  0.00  0.00     0.040 C 
BRANCH  35  36
ATOM     36  CG  LEU d   1      28.043 -12.616   1.371  0.00  0.00    -0.020 C 
ATOM     37  CD1 LEU d   1      26.648 -12.131   1.730  0.00  0.00     0.009 C 
ATOM     38  CD2 LEU d   1      27.982 -14.123   1.517  0.00  0.00     0.009 C 
ENDBRANCH  35  36
ENDBRANCH  31  35
ENDBRANCH  28  31
ENDBRANCH   1  27
TORSDOF 9
ENDMDL
MODEL 7
REMARK VINA RESULT:    -6.595      3.224      6.890
REMARK INTER + INTRA:         -12.813
REMARK INTER:                  -9.280
REMARK INTRA:                  -3.533
REMARK CONF_INDEPENDENT:        2.685
REMARK UNBOUND:                -3.533
REMARK  9 active torsions:
REMARK  status: ('A' for Active; 'I' for Inactive)
REMARK    1  A    between atoms: CG_2  and  CB_4 
REMARK    2  A    between atoms: CA_5  and  CB_4 
REMARK    3  A    between atoms: CA_5  and  C_32 
REMARK    4  A    between atoms: CA_5  and  N_6 
REMARK       I    between atoms: N_6  and  C_7 
REMARK    5  A    between atoms: C_9  and  C_7 
REMARK    6  A    between atoms: C_9  and  N_20 
REMARK    7  A    between atoms: C_9  and  C_10 
REMARK    8  A    between atoms: C_10  and  C_11 
REMARK    9  A    between atoms: C_30  and  O_31 
ROOT
ATOM      1  C   UNK d   0      27.665 -14.721  -0.133  0.00  0.00     0.188 C 
ENDROOT
BRANCH   1   2
ATOM      2  N   UNK d   0      28.200 -13.860   0.979  0.00  0.00    -0.290 N 
ATOM      3  C   UNK d   0      29.166 -14.328   1.858  0.00  0.00     0.260 C 
ATOM      4  O   UNK d   0      30.210 -14.897   1.522  0.00  0.00    -0.267 OA
ATOM      5  C   UNK d   0      28.867 -14.103   3.299  0.00  0.00     0.058 A 
ATOM      6  C   UNK d   0      29.578 -14.786   4.292  0.00  0.00     0.019 A 
ATOM      7  C   UNK d   0      27.781 -13.265   3.620  0.00  0.00     0.047 A 
ATOM      8  C   UNK d   0      29.217 -14.634   5.630  0.00  0.00     0.001 A 
ATOM      9  C   UNK d   0      28.156 -13.793   5.969  0.00  0.00     0.002 A 
ATOM     10  C   UNK d   0      27.439 -13.116   4.970  0.00  0.00     0.030 A 
ATOM     11  N   UNK d   0      27.020 -12.692   2.595  0.00  0.00    -0.346 N 
ATOM     12  C   UNK d   0      27.700 -12.567   1.341  0.00  0.00     0.332 C 
ATOM     13  H   UNK d   0      26.287 -12.037   2.815  0.00  0.00     0.164 HD
BRANCH  12  14
ATOM     14  O   UNK d   0      26.832 -12.018   0.393  0.00  0.00    -0.359 OA
ATOM     15  H   UNK d   0      27.412 -11.546  -0.218  0.00  0.00     0.214 HD
ENDBRANCH  12  14
ENDBRANCH   1   2
BRANCH   1  16
ATOM     16  C   UNK d   0      26.146 -14.967  -0.048  0.00  0.00     0.076 C 
BRANCH  16  17
ATOM     17  C   UNK d   0      25.782 -16.426   0.003  0.00  0.00    -0.028 C 
ATOM     18  C   UNK d   0      26.584 -17.483   0.359  0.00  0.00     0.096 C 
ATOM     19  N   UNK d   0      26.020 -18.643  -0.089  0.00  0.00    -0.365 N 
ATOM     20  C   UNK d   0      24.693 -18.408  -0.304  0.00  0.00     0.042 A 
ATOM     21  H   UNK d   0      26.547 -19.511  -0.200  0.00  0.00     0.165 HD
ATOM     22  C   UNK d   0      23.655 -19.306  -0.520  0.00  0.00     0.030 A 
ATOM     23  C   UNK d   0      24.523 -17.019  -0.287  0.00  0.00    -0.002 A 
ATOM     24  C   UNK d   0      22.388 -18.754  -0.702  0.00  0.00     0.002 A 
ATOM     25  C   UNK d   0      22.186 -17.371  -0.702  0.00  0.00     0.001 A 
ATOM     26  C   UNK d   0      23.250 -16.488  -0.519  0.00  0.00     0.014 A 
ENDBRANCH  16  17
ENDBRANCH   1  16
BRANCH   1  27
ATOM     27  C   UNK d   0      27.888 -14.082  -1.553  0.00  0.00     0.241 C 
ATOM     28  N   LEU d   1      27.023 -13.060  -1.934  0.00  0.00    -0.345 N 
ATOM     29  H   LEU d   1      26.299 -12.706  -1.332  0.00  0.00     0.163 HD
ATOM     30  O   UNK d   0      28.776 -14.503  -2.298  0.00  0.00    -0.271 OA
BRANCH  28  31
ATOM     31  CA  LEU d   1      27.071 -12.324  -3.225  0.00  0.00     0.185 C 
BRANCH  31  32
ATOM     32  C   LEU d   1      27.412 -10.779  -3.178  0.00  0.00     0.196 C 
ATOM     33  O   LEU d   1      27.336 -10.213  -2.045  0.00  0.00    -0.646 OA
ATOM     34  OXT LEU d   1      27.686 -10.248  -4.295  0.00  0.00    -0.646 OA
ENDBRANCH  31  32
BRANCH  31  35
ATOM     35  CB  LEU d   1      25.662 -12.436  -3.832  0.00  0.00     0.040 C 
BRANCH  35  36
ATOM     36  CG  LEU d   1      25.280 -13.892  -4.173  0.00  0.00    -0.020 C 
ATOM     37  CD1 LEU d   1      26.420 -14.745  -4.706  0.00  0.00     0.009 C 
ATOM     38  CD2 LEU d   1      24.781 -14.628  -2.947  0.00  0.00     0.009 C 
ENDBRANCH  35  36
ENDBRANCH  31  35
ENDBRANCH  28  31
ENDBRANCH   1  27
TORSDOF 9
ENDMDL
MODEL 8
REMARK VINA RESULT:    -6.593      3.698      6.110
REMARK INTER + INTRA:         -13.507
REMARK INTER:                  -9.278
REMARK INTRA:                  -4.229
REMARK CONF_INDEPENDENT:        2.685
REMARK UNBOUND:                -4.229
REMARK  9 active torsions:
REMARK  status: ('A' for Active; 'I' for Inactive)
REMARK    1  A    between atoms: CG_2  and  CB_4 
REMARK    2  A    between atoms: CA_5  and  CB_4 
REMARK    3  A    between atoms: CA_5  and  C_32 
REMARK    4  A    between atoms: CA_5  and  N_6 
REMARK       I    between atoms: N_6  and  C_7 
REMARK    5  A    between atoms: C_9  and  C_7 
REMARK    6  A    between atoms: C_9  and  N_20 
REMARK    7  A    between atoms: C_9  and  C_10 
REMARK    8  A    between atoms: C_10  and  C_11 
REMARK    9  A    between atoms: C_30  and  O_31 
ROOT
ATOM      1  C   UNK d   0      25.912 -14.444  -1.993  0.00  0.00     0.188 C 
ENDROOT
BRANCH   1   2
ATOM      2  N   UNK d   0      26.382 -15.151  -3.235  0.00  0.00    -0.290 N 
ATOM      3  C   UNK d   0      27.566 -15.875  -3.254  0.00  0.00     0.260 C 
ATOM      4  O   UNK d   0      27.895 -16.712  -2.407  0.00  0.00    -0.267 OA
ATOM      5  C   UNK d   0      28.467 -15.575  -4.401  0.00  0.00     0.058 A 
ATOM      6  C   UNK d   0      29.806 -15.983  -4.383  0.00  0.00     0.019 A 
ATOM      7  C   UNK d   0      27.957 -14.781  -5.446  0.00  0.00     0.047 A 
ATOM      8  C   UNK d   0      30.657 -15.609  -5.421  0.00  0.00     0.001 A 
ATOM      9  C   UNK d   0      30.164 -14.839  -6.476  0.00  0.00     0.002 A 
ATOM     10  C   UNK d   0      28.824 -14.423  -6.486  0.00  0.00     0.030 A 
ATOM     11  N   UNK d   0      26.648 -14.293  -5.370  0.00  0.00    -0.346 N 
ATOM     12  C   UNK d   0      25.772 -15.051  -4.528  0.00  0.00     0.332 C 
ATOM     13  H   UNK d   0      26.252 -13.785  -6.145  0.00  0.00     0.164 HD
BRANCH  12  14
ATOM     14  O   UNK d   0      24.511 -14.450  -4.504  0.00  0.00    -0.359 OA
ATOM     15  H   UNK d   0      24.486 -13.913  -5.307  0.00  0.00     0.214 HD
ENDBRANCH  12  14
ENDBRANCH   1   2
BRANCH   1  16
ATOM     16  C   UNK d   0      26.570 -14.965  -0.700  0.00  0.00     0.076 C 
BRANCH  16  17
ATOM     17  C   UNK d   0      26.076 -16.325  -0.288  0.00  0.00    -0.028 C 
ATOM     18  C   UNK d   0      26.773 -17.311   0.369  0.00  0.00     0.096 C 
ATOM     19  N   UNK d   0      26.119 -18.500   0.213  0.00  0.00    -0.365 N 
ATOM     20  C   UNK d   0      24.824 -18.226  -0.120  0.00  0.00     0.042 A 
ATOM     21  H   UNK d   0      26.570 -19.405   0.357  0.00  0.00     0.165 HD
ATOM     22  C   UNK d   0      23.717 -19.065  -0.145  0.00  0.00     0.030 A 
ATOM     23  C   UNK d   0      24.778 -16.873  -0.474  0.00  0.00    -0.002 A 
ATOM     24  C   UNK d   0      22.509 -18.482  -0.525  0.00  0.00     0.002 A 
ATOM     25  C   UNK d   0      22.431 -17.137  -0.895  0.00  0.00     0.001 A 
ATOM     26  C   UNK d   0      23.563 -16.323  -0.898  0.00  0.00     0.014 A 
ENDBRANCH  16  17
ENDBRANCH   1  16
BRANCH   1  27
ATOM     27  C   UNK d   0      26.235 -12.905  -2.015  0.00  0.00     0.241 C 
ATOM     28  N   LEU d   1      26.043 -12.232  -3.218  0.00  0.00    -0.345 N 
ATOM     29  H   LEU d   1      25.683 -12.682  -4.043  0.00  0.00     0.163 HD
ATOM     30  O   UNK d   0      26.671 -12.340  -1.009  0.00  0.00    -0.271 OA
BRANCH  28  31
ATOM     31  CA  LEU d   1      26.281 -10.781  -3.444  0.00  0.00     0.185 C 
BRANCH  31  32
ATOM     32  C   LEU d   1      25.902 -10.187  -4.861  0.00  0.00     0.196 C 
ATOM     33  O   LEU d   1      25.830  -8.922  -4.948  0.00  0.00    -0.646 OA
ATOM     34  OXT LEU d   1      25.662 -11.042  -5.764  0.00  0.00    -0.646 OA
ENDBRANCH  31  32
BRANCH  31  35
ATOM     35  CB  LEU d   1      27.795 -10.568  -3.278  0.00  0.00     0.040 C 
BRANCH  35  36
ATOM     36  CG  LEU d   1      28.625 -11.687  -3.942  0.00  0.00    -0.020 C 
ATOM     37  CD1 LEU d   1      29.539 -11.227  -5.066  0.00  0.00     0.009 C 
ATOM     38  CD2 LEU d   1      29.544 -12.353  -2.938  0.00  0.00     0.009 C 
ENDBRANCH  35  36
ENDBRANCH  31  35
ENDBRANCH  28  31
ENDBRANCH   1  27
TORSDOF 9
ENDMDL
MODEL 9
REMARK VINA RESULT:    -6.211      3.833      6.023
REMARK INTER + INTRA:         -13.304
REMARK INTER:                  -8.896
REMARK INTRA:                  -4.408
REMARK CONF_INDEPENDENT:        2.685
REMARK UNBOUND:                -4.408
REMARK  9 active torsions:
REMARK  status: ('A' for Active; 'I' for Inactive)
REMARK    1  A    between atoms: CG_2  and  CB_4 
REMARK    2  A    between atoms: CA_5  and  CB_4 
REMARK    3  A    between atoms: CA_5  and  C_32 
REMARK    4  A    between atoms: CA_5  and  N_6 
REMARK       I    between atoms: N_6  and  C_7 
REMARK    5  A    between atoms: C_9  and  C_7 
REMARK    6  A    between atoms: C_9  and  N_20 
REMARK    7  A    between atoms: C_9  and  C_10 
REMARK    8  A    between atoms: C_10  and  C_11 
REMARK    9  A    between atoms: C_30  and  O_31 
ROOT
ATOM      1  C   UNK d   0      26.391 -15.433  -3.345  0.00  0.00     0.188 C 
ENDROOT
BRANCH   1   2
ATOM      2  N   UNK d   0      27.794 -15.572  -3.869  0.00  0.00    -0.290 N 
ATOM      3  C   UNK d   0      28.859 -15.855  -3.025  0.00  0.00     0.260 C 
ATOM      4  O   UNK d   0      28.868 -16.755  -2.178  0.00  0.00    -0.267 OA
ATOM      5  C   UNK d   0      30.048 -14.975  -3.197  0.00  0.00     0.058 A 
ATOM      6  C   UNK d   0      31.053 -14.935  -2.224  0.00  0.00     0.019 A 
ATOM      7  C   UNK d   0      30.071 -14.115  -4.311  0.00  0.00     0.047 A 
ATOM      8  C   UNK d   0      32.108 -14.034  -2.357  0.00  0.00     0.001 A 
ATOM      9  C   UNK d   0      32.159 -13.187  -3.465  0.00  0.00     0.002 A 
ATOM     10  C   UNK d   0      31.144 -13.223  -4.434  0.00  0.00     0.030 A 
ATOM     11  N   UNK d   0      28.990 -14.101  -5.200  0.00  0.00    -0.346 N 
ATOM     12  C   UNK d   0      28.209 -15.300  -5.214  0.00  0.00     0.332 C 
ATOM     13  H   UNK d   0      29.030 -13.541  -6.037  0.00  0.00     0.164 HD
BRANCH  12  14
ATOM     14  O   UNK d   0      27.144 -15.154  -6.107  0.00  0.00    -0.359 OA
ATOM     15  H   UNK d   0      27.222 -14.245  -6.426  0.00  0.00     0.214 HD
ENDBRANCH  12  14
ENDBRANCH   1   2
BRANCH   1  16
ATOM     16  C   UNK d   0      26.319 -15.214  -1.822  0.00  0.00     0.076 C 
BRANCH  16  17
ATOM     17  C   UNK d   0      25.870 -16.436  -1.066  0.00  0.00    -0.028 C 
ATOM     18  C   UNK d   0      26.644 -17.313  -0.345  0.00  0.00     0.096 C 
ATOM     19  N   UNK d   0      25.944 -18.468  -0.147  0.00  0.00    -0.365 N 
ATOM     20  C   UNK d   0      24.618 -18.189  -0.313  0.00  0.00     0.042 A 
ATOM     21  H   UNK d   0      26.390 -19.352   0.103  0.00  0.00     0.165 HD
ATOM     22  C   UNK d   0      23.502 -18.949   0.015  0.00  0.00     0.030 A 
ATOM     23  C   UNK d   0      24.546 -16.931  -0.923  0.00  0.00    -0.002 A 
ATOM     24  C   UNK d   0      22.262 -18.383  -0.274  0.00  0.00     0.002 A 
ATOM     25  C   UNK d   0      22.155 -17.134  -0.892  0.00  0.00     0.001 A 
ATOM     26  C   UNK d   0      23.290 -16.405  -1.245  0.00  0.00     0.014 A 
ENDBRANCH  16  17
ENDBRANCH   1  16
BRANCH   1  27
ATOM     27  C   UNK d   0      25.635 -14.199  -3.963  0.00  0.00     0.241 C 
ATOM     28  N   LEU d   1      26.410 -13.221  -4.580  0.00  0.00    -0.345 N 
ATOM     29  H   LEU d   1      27.410 -13.294  -4.668  0.00  0.00     0.163 HD
ATOM     30  O   UNK d   0      24.409 -14.102  -3.867  0.00  0.00    -0.271 OA
BRANCH  28  31
ATOM     31  CA  LEU d   1      25.891 -11.988  -5.229  0.00  0.00     0.185 C 
BRANCH  31  32
ATOM     32  C   LEU d   1      26.658 -11.450  -6.504  0.00  0.00     0.196 C 
ATOM     33  O   LEU d   1      26.200 -10.395  -7.041  0.00  0.00    -0.646 OA
ATOM     34  OXT LEU d   1      27.636 -12.157  -6.890  0.00  0.00    -0.646 OA
ENDBRANCH  31  32
BRANCH  31  35
ATOM     35  CB  LEU d   1      25.984 -10.878  -4.168  0.00  0.00     0.040 C 
BRANCH  35  36
ATOM     36  CG  LEU d   1      27.064 -11.167  -3.105  0.00  0.00    -0.020 C 
ATOM     37  CD1 LEU d   1      28.494 -11.143  -3.620  0.00  0.00     0.009 C 
ATOM     38  CD2 LEU d   1      27.030 -10.134  -1.997  0.00  0.00     0.009 C 
ENDBRANCH  35  36
ENDBRANCH  31  35
ENDBRANCH  28  31
ENDBRANCH   1  27
TORSDOF 9
ENDMDL
