MODEL 1
REMARK VINA RESULT:    -8.065      0.000      0.000
REMARK INTER + INTRA:         -10.486
REMARK INTER:                  -9.258
REMARK INTRA:                  -1.228
REMARK CONF_INDEPENDENT:        1.193
REMARK UNBOUND:                -1.228
REMARK  4 active torsions:
REMARK  status: ('A' for Active; 'I' for Inactive)
REMARK    1  A    between atoms: C_9  and  N_8 
REMARK    2  A    between atoms: C_19  and  N_20 
REMARK    3  A    between atoms: N_20  and  C_21 
REMARK    4  A    between atoms: C_24  and  O_25 
ROOT
ATOM      1  C   UNL d   1      28.070 -12.005  -2.072  0.00  0.00     0.051 C 
ATOM      2  C   UNL d   1      27.257 -13.274  -1.966  0.00  0.00    -0.020 A 
ATOM      3  C   UNL d   1      26.598 -13.827  -3.010  0.00  0.00     0.106 A 
ATOM      4  C   UNL d   1      26.672 -13.143  -4.366  0.00  0.00     0.026 C 
ATOM      5  N   UNL d   1      26.732 -12.577  -5.491  0.00  0.00    -0.096 N 
ATOM      6  C   UNL d   1      25.787 -15.040  -2.891  0.00  0.00     0.271 A 
ATOM      7  O   UNL d   1      25.155 -15.443  -3.863  0.00  0.00    -0.266 OA
ATOM      8  N   UNL d   1      25.792 -15.669  -1.650  0.00  0.00    -0.274 N 
ATOM      9  C   UNL d   1      26.397 -15.152  -0.511  0.00  0.00     0.263 A 
ATOM     10  O   UNL d   1      26.294 -15.661   0.604  0.00  0.00    -0.267 OA
ATOM     11  C   UNL d   1      27.200 -13.910  -0.661  0.00  0.00     0.055 A 
ATOM     12  C   UNL d   1      27.822 -13.491   0.463  0.00  0.00     0.106 C 
ENDROOT
BRANCH   8  13
ATOM     13  C   UNL d   1      25.002 -16.902  -1.546  0.00  0.00     0.111 C 
ATOM     14  C   UNL d   1      25.579 -17.848  -0.478  0.00  0.00     0.042 C 
ATOM     15  C   UNL d   1      24.556 -18.950  -0.228  0.00  0.00     0.142 C 
ATOM     16  S   UNL d   1      22.969 -18.313  -0.723  0.00  0.00     0.146 S 
ATOM     17  O   UNL d   1      22.561 -18.950  -1.960  0.00  0.00    -0.228 OA
ATOM     18  O   UNL d   1      22.104 -18.195   0.426  0.00  0.00    -0.228 OA
ATOM     19  C   UNL d   1      23.546 -16.721  -1.130  0.00  0.00     0.166 C 
ENDBRANCH   8  13
BRANCH  12  20
ATOM     20  N   UNL d   1      27.851 -14.115   1.695  0.00  0.00    -0.365 N 
ATOM     21  H   UNL d   1      27.744 -15.137   1.683  0.00  0.00     0.165 HD
BRANCH  20  22
ATOM     22  C   UNL d   1      27.895 -13.538   2.963  0.00  0.00     0.032 A 
ATOM     23  C   UNL d   1      27.799 -14.314   4.119  0.00  0.00     0.032 A 
ATOM     24  C   UNL d   1      27.760 -13.718   5.379  0.00  0.00     0.039 A 
ATOM     25  C   UNL d   1      27.798 -12.332   5.477  0.00  0.00     0.065 A 
ATOM     26  C   UNL d   1      27.889 -11.540   4.339  0.00  0.00     0.039 A 
ATOM     27  C   UNL d   1      27.953 -12.143   3.083  0.00  0.00     0.032 A 
BRANCH  25  28
ATOM     28  O   UNL d   1      27.747 -11.697   6.682  0.00  0.00    -0.361 OA
ATOM     29  H   UNL d   1      27.030 -11.044   6.662  0.00  0.00     0.217 HD
ENDBRANCH  25  28
ENDBRANCH  20  22
ENDBRANCH  12  20
TORSDOF 4
ENDMDL
MODEL 2
REMARK VINA RESULT:    -8.021      1.192      1.467
REMARK INTER + INTRA:         -10.678
REMARK INTER:                  -9.215
REMARK INTRA:                  -1.463
REMARK CONF_INDEPENDENT:        1.193
REMARK UNBOUND:                -1.463
REMARK  4 active torsions:
REMARK  status: ('A' for Active; 'I' for Inactive)
REMARK    1  A    between atoms: C_9  and  N_8 
REMARK    2  A    between atoms: C_19  and  N_20 
REMARK    3  A    between atoms: N_20  and  C_21 
REMARK    4  A    between atoms: C_24  and  O_25 
ROOT
ATOM      1  C   UNL d   1      27.907 -12.076  -2.649  0.00  0.00     0.051 C 
ATOM      2  C   UNL d   1      27.097 -13.336  -2.446  0.00  0.00    -0.020 A 
ATOM      3  C   UNL d   1      26.714 -14.146  -3.459  0.00  0.00     0.106 A 
ATOM      4  C   UNL d   1      27.113 -13.780  -4.880  0.00  0.00     0.026 C 
ATOM      5  N   UNL d   1      27.442 -13.477  -6.058  0.00  0.00    -0.096 N 
ATOM      6  C   UNL d   1      25.902 -15.349  -3.257  0.00  0.00     0.271 A 
ATOM      7  O   UNL d   1      25.527 -15.996  -4.230  0.00  0.00    -0.266 OA
ATOM      8  N   UNL d   1      25.609 -15.683  -1.939  0.00  0.00    -0.274 N 
ATOM      9  C   UNL d   1      25.917 -14.889  -0.841  0.00  0.00     0.263 A 
ATOM     10  O   UNL d   1      25.548 -15.140   0.306  0.00  0.00    -0.267 OA
ATOM     11  C   UNL d   1      26.727 -13.667  -1.081  0.00  0.00     0.055 A 
ATOM     12  C   UNL d   1      27.056 -12.970   0.030  0.00  0.00     0.106 C 
ENDROOT
BRANCH   8  13
ATOM     13  C   UNL d   1      24.821 -16.906  -1.742  0.00  0.00     0.111 C 
ATOM     14  C   UNL d   1      25.448 -17.806  -0.661  0.00  0.00     0.042 C 
ATOM     15  C   UNL d   1      24.435 -18.891  -0.313  0.00  0.00     0.142 C 
ATOM     16  S   UNL d   1      22.827 -18.269  -0.758  0.00  0.00     0.146 S 
ATOM     17  O   UNL d   1      22.358 -18.959  -1.944  0.00  0.00    -0.228 OA
ATOM     18  O   UNL d   1      22.019 -18.096   0.425  0.00  0.00    -0.228 OA
ATOM     19  C   UNL d   1      23.388 -16.700  -1.264  0.00  0.00     0.166 C 
ENDBRANCH   8  13
BRANCH  12  20
ATOM     20  N   UNL d   1      26.788 -13.300   1.344  0.00  0.00    -0.365 N 
ATOM     21  H   UNL d   1      25.799 -13.281   1.618  0.00  0.00     0.165 HD
BRANCH  20  22
ATOM     22  C   UNL d   1      27.687 -13.548   2.381  0.00  0.00     0.032 A 
ATOM     23  C   UNL d   1      29.048 -13.733   2.135  0.00  0.00     0.032 A 
ATOM     24  C   UNL d   1      29.922 -14.062   3.171  0.00  0.00     0.039 A 
ATOM     25  C   UNL d   1      29.422 -14.225   4.457  0.00  0.00     0.065 A 
ATOM     26  C   UNL d   1      28.070 -14.049   4.724  0.00  0.00     0.039 A 
ATOM     27  C   UNL d   1      27.204 -13.696   3.689  0.00  0.00     0.032 A 
BRANCH  25  28
ATOM     28  O   UNL d   1      30.230 -14.562   5.503  0.00  0.00    -0.361 OA
ATOM     29  H   UNL d   1      31.154 -14.507   5.215  0.00  0.00     0.217 HD
ENDBRANCH  25  28
ENDBRANCH  20  22
ENDBRANCH  12  20
TORSDOF 4
ENDMDL
MODEL 3
REMARK VINA RESULT:    -7.401      1.636      2.136
REMARK INTER + INTRA:         -10.046
REMARK INTER:                  -8.595
REMARK INTRA:                  -1.451
REMARK CONF_INDEPENDENT:        1.193
REMARK UNBOUND:                -1.451
REMARK  4 active torsions:
REMARK  status: ('A' for Active; 'I' for Inactive)
REMARK    1  A    between atoms: C_9  and  N_8 
REMARK    2  A    between atoms: C_19  and  N_20 
REMARK    3  A    between atoms: N_20  and  C_21 
REMARK    4  A    between atoms: C_24  and  O_25 
ROOT
ATOM      1  C   UNL d   1      28.289 -11.778  -3.536  0.00  0.00     0.051 C 
ATOM      2  C   UNL d   1      27.529 -13.024  -3.142  0.00  0.00    -0.020 A 
ATOM      3  C   UNL d   1      27.152 -13.975  -4.025  0.00  0.00     0.106 A 
ATOM      4  C   UNL d   1      27.504 -13.793  -5.493  0.00  0.00     0.026 C 
ATOM      5  N   UNL d   1      27.794 -13.642  -6.711  0.00  0.00    -0.096 N 
ATOM      6  C   UNL d   1      26.388 -15.165  -3.640  0.00  0.00     0.271 A 
ATOM      7  O   UNL d   1      26.013 -15.950  -4.506  0.00  0.00    -0.266 OA
ATOM      8  N   UNL d   1      26.138 -15.326  -2.281  0.00  0.00    -0.274 N 
ATOM      9  C   UNL d   1      26.443 -14.381  -1.310  0.00  0.00     0.263 A 
ATOM     10  O   UNL d   1      26.111 -14.486  -0.130  0.00  0.00    -0.267 OA
ATOM     11  C   UNL d   1      27.204 -13.177  -1.735  0.00  0.00     0.055 A 
ATOM     12  C   UNL d   1      27.534 -12.326  -0.738  0.00  0.00     0.106 C 
ENDROOT
BRANCH   8  13
ATOM     13  C   UNL d   1      25.400 -16.535  -1.899  0.00  0.00     0.111 C 
ATOM     14  C   UNL d   1      25.967 -17.153  -0.607  0.00  0.00     0.042 C 
ATOM     15  C   UNL d   1      24.984 -18.213  -0.125  0.00  0.00     0.142 C 
ATOM     16  S   UNL d   1      23.395 -17.807  -0.819  0.00  0.00     0.146 S 
ATOM     17  O   UNL d   1      23.075 -18.754  -1.870  0.00  0.00    -0.228 OA
ATOM     18  O   UNL d   1      22.472 -17.454   0.233  0.00  0.00    -0.228 OA
ATOM     19  C   UNL d   1      23.918 -16.337  -1.592  0.00  0.00     0.166 C 
ENDBRANCH   8  13
BRANCH  12  20
ATOM     20  N   UNL d   1      27.309 -12.483   0.616  0.00  0.00    -0.365 N 
ATOM     21  H   UNL d   1      27.171 -13.449   0.938  0.00  0.00     0.165 HD
BRANCH  20  22
ATOM     22  C   UNL d   1      27.131 -11.501   1.589  0.00  0.00     0.032 A 
ATOM     23  C   UNL d   1      26.696 -10.218   1.256  0.00  0.00     0.032 A 
ATOM     24  C   UNL d   1      26.601  -9.221   2.227  0.00  0.00     0.039 A 
ATOM     25  C   UNL d   1      26.964  -9.511   3.537  0.00  0.00     0.065 A 
ATOM     26  C   UNL d   1      27.403 -10.782   3.890  0.00  0.00     0.039 A 
ATOM     27  C   UNL d   1      27.473 -11.780   2.919  0.00  0.00     0.032 A 
BRANCH  25  28
ATOM     28  O   UNL d   1      26.906  -8.571   4.522  0.00  0.00    -0.361 OA
ATOM     29  H   UNL d   1      26.863  -9.019   5.381  0.00  0.00     0.217 HD
ENDBRANCH  25  28
ENDBRANCH  20  22
ENDBRANCH  12  20
TORSDOF 4
ENDMDL
MODEL 4
REMARK VINA RESULT:    -7.259      2.649      6.903
REMARK INTER + INTRA:          -9.780
REMARK INTER:                  -8.452
REMARK INTRA:                  -1.327
REMARK CONF_INDEPENDENT:        1.193
REMARK UNBOUND:                -1.327
REMARK  4 active torsions:
REMARK  status: ('A' for Active; 'I' for Inactive)
REMARK    1  A    between atoms: C_9  and  N_8 
REMARK    2  A    between atoms: C_19  and  N_20 
REMARK    3  A    between atoms: N_20  and  C_21 
REMARK    4  A    between atoms: C_24  and  O_25 
ROOT
ATOM      1  C   UNL d   1      26.806 -13.004  -2.732  0.00  0.00     0.051 C 
ATOM      2  C   UNL d   1      27.205 -13.355  -1.318  0.00  0.00    -0.020 A 
ATOM      3  C   UNL d   1      27.908 -12.525  -0.515  0.00  0.00     0.106 A 
ATOM      4  C   UNL d   1      28.325 -11.166  -1.052  0.00  0.00     0.026 C 
ATOM      5  N   UNL d   1      28.673 -10.039  -1.498  0.00  0.00    -0.096 N 
ATOM      6  C   UNL d   1      28.318 -12.886   0.845  0.00  0.00     0.271 A 
ATOM      7  O   UNL d   1      29.020 -12.114   1.490  0.00  0.00    -0.266 OA
ATOM      8  N   UNL d   1      27.866 -14.112   1.322  0.00  0.00    -0.274 N 
ATOM      9  C   UNL d   1      27.182 -15.049   0.556  0.00  0.00     0.263 A 
ATOM     10  O   UNL d   1      26.892 -16.175   0.958  0.00  0.00    -0.267 OA
ATOM     11  C   UNL d   1      26.795 -14.659  -0.824  0.00  0.00     0.055 A 
ATOM     12  C   UNL d   1      26.072 -15.580  -1.499  0.00  0.00     0.106 C 
ENDROOT
BRANCH   8  13
ATOM     13  C   UNL d   1      28.254 -14.454   2.695  0.00  0.00     0.111 C 
ATOM     14  C   UNL d   1      29.765 -14.254   2.917  0.00  0.00     0.042 C 
ATOM     15  C   UNL d   1      30.034 -14.345   4.414  0.00  0.00     0.142 C 
ATOM     16  S   UNL d   1      28.506 -13.965   5.245  0.00  0.00     0.146 S 
ATOM     17  O   UNL d   1      27.952 -15.180   5.812  0.00  0.00    -0.228 OA
ATOM     18  O   UNL d   1      28.641 -12.737   5.992  0.00  0.00    -0.228 OA
ATOM     19  C   UNL d   1      27.607 -13.618   3.794  0.00  0.00     0.166 C 
ENDBRANCH   8  13
BRANCH  12  20
ATOM     20  N   UNL d   1      25.601 -16.792  -1.031  0.00  0.00    -0.365 N 
ATOM     21  H   UNL d   1      26.316 -17.496  -0.811  0.00  0.00     0.165 HD
BRANCH  20  22
ATOM     22  C   UNL d   1      24.283 -17.231  -0.922  0.00  0.00     0.032 A 
ATOM     23  C   UNL d   1      23.967 -18.590  -0.921  0.00  0.00     0.032 A 
ATOM     24  C   UNL d   1      22.638 -19.015  -0.895  0.00  0.00     0.039 A 
ATOM     25  C   UNL d   1      21.622 -18.067  -0.890  0.00  0.00     0.065 A 
ATOM     26  C   UNL d   1      21.914 -16.709  -0.895  0.00  0.00     0.039 A 
ATOM     27  C   UNL d   1      23.244 -16.290  -0.896  0.00  0.00     0.032 A 
BRANCH  25  28
ATOM     28  O   UNL d   1      20.307 -18.427  -0.881  0.00  0.00    -0.361 OA
ATOM     29  H   UNL d   1      19.829 -17.884  -1.527  0.00  0.00     0.217 HD
ENDBRANCH  25  28
ENDBRANCH  20  22
ENDBRANCH  12  20
TORSDOF 4
ENDMDL
MODEL 5
REMARK VINA RESULT:    -7.031      3.562      8.545
REMARK INTER + INTRA:          -9.655
REMARK INTER:                  -8.224
REMARK INTRA:                  -1.431
REMARK CONF_INDEPENDENT:        1.193
REMARK UNBOUND:                -1.431
REMARK  4 active torsions:
REMARK  status: ('A' for Active; 'I' for Inactive)
REMARK    1  A    between atoms: C_9  and  N_8 
REMARK    2  A    between atoms: C_19  and  N_20 
REMARK    3  A    between atoms: N_20  and  C_21 
REMARK    4  A    between atoms: C_24  and  O_25 
ROOT
ATOM      1  C   UNL d   1      28.394 -15.281   5.239  0.00  0.00     0.051 C 
ATOM      2  C   UNL d   1      28.163 -13.883   4.714  0.00  0.00    -0.020 A 
ATOM      3  C   UNL d   1      28.221 -12.778   5.490  0.00  0.00     0.106 A 
ATOM      4  C   UNL d   1      28.532 -12.937   6.969  0.00  0.00     0.026 C 
ATOM      5  N   UNL d   1      28.789 -13.069   8.197  0.00  0.00    -0.096 N 
ATOM      6  C   UNL d   1      27.965 -11.429   4.979  0.00  0.00     0.271 A 
ATOM      7  O   UNL d   1      27.959 -10.479   5.756  0.00  0.00    -0.266 OA
ATOM      8  N   UNL d   1      27.743 -11.317   3.611  0.00  0.00    -0.274 N 
ATOM      9  C   UNL d   1      27.619 -12.396   2.745  0.00  0.00     0.263 A 
ATOM     10  O   UNL d   1      27.307 -12.287   1.560  0.00  0.00    -0.267 OA
ATOM     11  C   UNL d   1      27.868 -13.754   3.297  0.00  0.00     0.055 A 
ATOM     12  C   UNL d   1      27.802 -14.760   2.397  0.00  0.00     0.106 C 
ENDROOT
BRANCH   8  13
ATOM     13  C   UNL d   1      27.518  -9.959   3.101  0.00  0.00     0.111 C 
ATOM     14  C   UNL d   1      28.169  -9.765   1.718  0.00  0.00     0.042 C 
ATOM     15  C   UNL d   1      27.652  -8.454   1.138  0.00  0.00     0.142 C 
ATOM     16  S   UNL d   1      26.101  -8.103   1.940  0.00  0.00     0.146 S 
ATOM     17  O   UNL d   1      26.280  -7.003   2.869  0.00  0.00    -0.228 OA
ATOM     18  O   UNL d   1      25.025  -8.157   0.980  0.00  0.00    -0.228 OA
ATOM     19  C   UNL d   1      26.061  -9.568   2.880  0.00  0.00     0.166 C 
ENDBRANCH   8  13
BRANCH  12  20
ATOM     20  N   UNL d   1      27.601 -14.661   1.034  0.00  0.00    -0.365 N 
ATOM     21  H   UNL d   1      28.038 -13.853   0.573  0.00  0.00     0.165 HD
BRANCH  20  22
ATOM     22  C   UNL d   1      26.793 -15.446   0.213  0.00  0.00     0.032 A 
ATOM     23  C   UNL d   1      26.052 -14.886  -0.829  0.00  0.00     0.032 A 
ATOM     24  C   UNL d   1      25.184 -15.668  -1.590  0.00  0.00     0.039 A 
ATOM     25  C   UNL d   1      25.046 -17.018  -1.289  0.00  0.00     0.065 A 
ATOM     26  C   UNL d   1      25.771 -17.596  -0.254  0.00  0.00     0.039 A 
ATOM     27  C   UNL d   1      26.655 -16.814   0.487  0.00  0.00     0.032 A 
BRANCH  25  28
ATOM     28  O   UNL d   1      24.200 -17.825  -1.990  0.00  0.00    -0.361 OA
ATOM     29  H   UNL d   1      24.321 -17.658  -2.938  0.00  0.00     0.217 HD
ENDBRANCH  25  28
ENDBRANCH  20  22
ENDBRANCH  12  20
TORSDOF 4
ENDMDL
MODEL 6
REMARK VINA RESULT:    -6.891      2.058      2.448
REMARK INTER + INTRA:          -9.505
REMARK INTER:                  -8.084
REMARK INTRA:                  -1.421
REMARK CONF_INDEPENDENT:        1.193
REMARK UNBOUND:                -1.421
REMARK  4 active torsions:
REMARK  status: ('A' for Active; 'I' for Inactive)
REMARK    1  A    between atoms: C_9  and  N_8 
REMARK    2  A    between atoms: C_19  and  N_20 
REMARK    3  A    between atoms: N_20  and  C_21 
REMARK    4  A    between atoms: C_24  and  O_25 
ROOT
ATOM      1  C   UNL d   1      29.690 -14.458  -3.240  0.00  0.00     0.051 C 
ATOM      2  C   UNL d   1      28.431 -15.051  -2.650  0.00  0.00    -0.020 A 
ATOM      3  C   UNL d   1      27.352 -15.392  -3.388  0.00  0.00     0.106 A 
ATOM      4  C   UNL d   1      27.393 -15.172  -4.892  0.00  0.00     0.026 C 
ATOM      5  N   UNL d   1      27.427 -14.989  -6.139  0.00  0.00    -0.096 N 
ATOM      6  C   UNL d   1      26.124 -15.938  -2.804  0.00  0.00     0.271 A 
ATOM      7  O   UNL d   1      25.155 -16.155  -3.524  0.00  0.00    -0.266 OA
ATOM      8  N   UNL d   1      26.146 -16.181  -1.434  0.00  0.00    -0.274 N 
ATOM      9  C   UNL d   1      27.188 -15.819  -0.590  0.00  0.00     0.263 A 
ATOM     10  O   UNL d   1      27.144 -15.935   0.635  0.00  0.00    -0.267 OA
ATOM     11  C   UNL d   1      28.413 -15.253  -1.211  0.00  0.00     0.055 A 
ATOM     12  C   UNL d   1      29.421 -14.984  -0.351  0.00  0.00     0.106 C 
ENDROOT
BRANCH   8  13
ATOM     13  C   UNL d   1      24.924 -16.757  -0.860  0.00  0.00     0.111 C 
ATOM     14  C   UNL d   1      23.678 -15.949  -1.270  0.00  0.00     0.042 C 
ATOM     15  C   UNL d   1      22.448 -16.761  -0.886  0.00  0.00     0.142 C 
ATOM     16  S   UNL d   1      22.955 -18.465  -0.786  0.00  0.00     0.146 S 
ATOM     17  O   UNL d   1      22.999 -18.872   0.606  0.00  0.00    -0.228 OA
ATOM     18  O   UNL d   1      22.297 -19.237  -1.813  0.00  0.00    -0.228 OA
ATOM     19  C   UNL d   1      24.597 -18.183  -1.292  0.00  0.00     0.166 C 
ENDBRANCH   8  13
BRANCH  12  20
ATOM     20  N   UNL d   1      29.463 -15.238   1.006  0.00  0.00    -0.365 N 
ATOM     21  H   UNL d   1      29.023 -16.114   1.312  0.00  0.00     0.165 HD
BRANCH  20  22
ATOM     22  C   UNL d   1      29.921 -14.414   2.033  0.00  0.00     0.032 A 
ATOM     23  C   UNL d   1      31.225 -13.916   2.039  0.00  0.00     0.032 A 
ATOM     24  C   UNL d   1      31.697 -13.161   3.112  0.00  0.00     0.039 A 
ATOM     25  C   UNL d   1      30.859 -12.922   4.195  0.00  0.00     0.065 A 
ATOM     26  C   UNL d   1      29.559 -13.412   4.212  0.00  0.00     0.039 A 
ATOM     27  C   UNL d   1      29.085 -14.145   3.125  0.00  0.00     0.032 A 
BRANCH  25  28
ATOM     28  O   UNL d   1      31.274 -12.205   5.278  0.00  0.00    -0.361 OA
ATOM     29  H   UNL d   1      31.753 -12.795   5.880  0.00  0.00     0.217 HD
ENDBRANCH  25  28
ENDBRANCH  20  22
ENDBRANCH  12  20
TORSDOF 4
ENDMDL
MODEL 7
REMARK VINA RESULT:    -6.881      3.202      6.987
REMARK INTER + INTRA:          -9.616
REMARK INTER:                  -8.075
REMARK INTRA:                  -1.541
REMARK CONF_INDEPENDENT:        1.193
REMARK UNBOUND:                -1.541
REMARK  4 active torsions:
REMARK  status: ('A' for Active; 'I' for Inactive)
REMARK    1  A    between atoms: C_9  and  N_8 
REMARK    2  A    between atoms: C_19  and  N_20 
REMARK    3  A    between atoms: N_20  and  C_21 
REMARK    4  A    between atoms: C_24  and  O_25 
ROOT
ATOM      1  C   UNL d   1      29.221 -16.951  -2.853  0.00  0.00     0.051 C 
ATOM      2  C   UNL d   1      29.133 -16.091  -1.613  0.00  0.00    -0.020 A 
ATOM      3  C   UNL d   1      30.006 -15.097  -1.333  0.00  0.00     0.106 A 
ATOM      4  C   UNL d   1      31.139 -14.821  -2.309  0.00  0.00     0.026 C 
ATOM      5  N   UNL d   1      32.080 -14.593  -3.116  0.00  0.00    -0.096 N 
ATOM      6  C   UNL d   1      29.932 -14.289  -0.114  0.00  0.00     0.271 A 
ATOM      7  O   UNL d   1      30.802 -13.454   0.113  0.00  0.00    -0.266 OA
ATOM      8  N   UNL d   1      28.848 -14.530   0.724  0.00  0.00    -0.274 N 
ATOM      9  C   UNL d   1      27.931 -15.558   0.544  0.00  0.00     0.263 A 
ATOM     10  O   UNL d   1      27.047 -15.832   1.355  0.00  0.00    -0.267 OA
ATOM     11  C   UNL d   1      28.042 -16.371  -0.696  0.00  0.00     0.055 A 
ATOM     12  C   UNL d   1      27.084 -17.311  -0.852  0.00  0.00     0.106 C 
ENDROOT
BRANCH   8  13
ATOM     13  C   UNL d   1      28.762 -13.696   1.928  0.00  0.00     0.111 C 
ATOM     14  C   UNL d   1      27.514 -12.794   1.898  0.00  0.00     0.042 C 
ATOM     15  C   UNL d   1      27.342 -12.187   3.285  0.00  0.00     0.142 C 
ATOM     16  S   UNL d   1      28.182 -13.259   4.433  0.00  0.00     0.146 S 
ATOM     17  O   UNL d   1      29.401 -12.615   4.887  0.00  0.00    -0.228 OA
ATOM     18  O   UNL d   1      27.229 -13.865   5.332  0.00  0.00    -0.228 OA
ATOM     19  C   UNL d   1      28.640 -14.450   3.248  0.00  0.00     0.166 C 
ENDBRANCH   8  13
BRANCH  12  20
ATOM     20  N   UNL d   1      25.993 -17.548  -0.040  0.00  0.00    -0.365 N 
ATOM     21  H   UNL d   1      26.204 -17.805   0.932  0.00  0.00     0.165 HD
BRANCH  20  22
ATOM     22  C   UNL d   1      24.643 -17.597  -0.385  0.00  0.00     0.032 A 
ATOM     23  C   UNL d   1      23.904 -16.433  -0.599  0.00  0.00     0.032 A 
ATOM     24  C   UNL d   1      22.536 -16.492  -0.863  0.00  0.00     0.039 A 
ATOM     25  C   UNL d   1      21.903 -17.729  -0.893  0.00  0.00     0.065 A 
ATOM     26  C   UNL d   1      22.618 -18.901  -0.678  0.00  0.00     0.039 A 
ATOM     27  C   UNL d   1      23.990 -18.836  -0.439  0.00  0.00     0.032 A 
BRANCH  25  28
ATOM     28  O   UNL d   1      20.565 -17.844  -1.130  0.00  0.00    -0.361 OA
ATOM     29  H   UNL d   1      20.274 -17.083  -1.656  0.00  0.00     0.217 HD
ENDBRANCH  25  28
ENDBRANCH  20  22
ENDBRANCH  12  20
TORSDOF 4
ENDMDL
MODEL 8
REMARK VINA RESULT:    -6.726      3.915      6.343
REMARK INTER + INTRA:          -9.487
REMARK INTER:                  -7.919
REMARK INTRA:                  -1.567
REMARK CONF_INDEPENDENT:        1.193
REMARK UNBOUND:                -1.567
REMARK  4 active torsions:
REMARK  status: ('A' for Active; 'I' for Inactive)
REMARK    1  A    between atoms: C_9  and  N_8 
REMARK    2  A    between atoms: C_19  and  N_20 
REMARK    3  A    between atoms: N_20  and  C_21 
REMARK    4  A    between atoms: C_24  and  O_25 
ROOT
ATOM      1  C   UNL d   1      28.951 -13.047  -7.330  0.00  0.00     0.051 C 
ATOM      2  C   UNL d   1      28.453 -13.778  -6.105  0.00  0.00    -0.020 A 
ATOM      3  C   UNL d   1      29.016 -14.914  -5.636  0.00  0.00     0.106 A 
ATOM      4  C   UNL d   1      30.213 -15.496  -6.371  0.00  0.00     0.026 C 
ATOM      5  N   UNL d   1      31.205 -15.979  -6.981  0.00  0.00    -0.096 N 
ATOM      6  C   UNL d   1      28.508 -15.634  -4.466  0.00  0.00     0.271 A 
ATOM      7  O   UNL d   1      29.021 -16.700  -4.141  0.00  0.00    -0.266 OA
ATOM      8  N   UNL d   1      27.450 -15.040  -3.785  0.00  0.00    -0.274 N 
ATOM      9  C   UNL d   1      26.778 -13.904  -4.218  0.00  0.00     0.263 A 
ATOM     10  O   UNL d   1      25.772 -13.457  -3.669  0.00  0.00    -0.267 OA
ATOM     11  C   UNL d   1      27.309 -13.205  -5.418  0.00  0.00     0.055 A 
ATOM     12  C   UNL d   1      26.659 -12.068  -5.753  0.00  0.00     0.106 C 
ENDROOT
BRANCH   8  13
ATOM     13  C   UNL d   1      26.965 -15.750  -2.596  0.00  0.00     0.111 C 
ATOM     14  C   UNL d   1      26.971 -14.836  -1.356  0.00  0.00     0.042 C 
ATOM     15  C   UNL d   1      26.194 -15.542  -0.252  0.00  0.00     0.142 C 
ATOM     16  S   UNL d   1      25.102 -16.706  -1.041  0.00  0.00     0.146 S 
ATOM     17  O   UNL d   1      25.595 -18.053  -0.821  0.00  0.00    -0.228 OA
ATOM     18  O   UNL d   1      23.728 -16.323  -0.820  0.00  0.00    -0.228 OA
ATOM     19  C   UNL d   1      25.530 -16.262  -2.670  0.00  0.00     0.166 C 
ENDBRANCH   8  13
BRANCH  12  20
ATOM     20  N   UNL d   1      25.622 -11.457  -5.076  0.00  0.00    -0.365 N 
ATOM     21  H   UNL d   1      24.770 -12.020  -4.958  0.00  0.00     0.165 HD
BRANCH  20  22
ATOM     22  C   UNL d   1      25.529 -10.140  -4.628  0.00  0.00     0.032 A 
ATOM     23  C   UNL d   1      25.906  -9.785  -3.332  0.00  0.00     0.032 A 
ATOM     24  C   UNL d   1      25.731  -8.481  -2.869  0.00  0.00     0.039 A 
ATOM     25  C   UNL d   1      25.156  -7.534  -3.708  0.00  0.00     0.065 A 
ATOM     26  C   UNL d   1      24.770  -7.867  -5.001  0.00  0.00     0.039 A 
ATOM     27  C   UNL d   1      24.970  -9.166  -5.466  0.00  0.00     0.032 A 
BRANCH  25  28
ATOM     28  O   UNL d   1      24.947  -6.249  -3.301  0.00  0.00    -0.361 OA
ATOM     29  H   UNL d   1      24.092  -6.200  -2.846  0.00  0.00     0.217 HD
ENDBRANCH  25  28
ENDBRANCH  20  22
ENDBRANCH  12  20
TORSDOF 4
ENDMDL
MODEL 9
REMARK VINA RESULT:    -6.687      4.815      7.297
REMARK INTER + INTRA:          -9.265
REMARK INTER:                  -7.881
REMARK INTRA:                  -1.385
REMARK CONF_INDEPENDENT:        1.193
REMARK UNBOUND:                -1.385
REMARK  4 active torsions:
REMARK  status: ('A' for Active; 'I' for Inactive)
REMARK    1  A    between atoms: C_9  and  N_8 
REMARK    2  A    between atoms: C_19  and  N_20 
REMARK    3  A    between atoms: N_20  and  C_21 
REMARK    4  A    between atoms: C_24  and  O_25 
ROOT
ATOM      1  C   UNL d   1      28.905 -16.317  -4.383  0.00  0.00     0.051 C 
ATOM      2  C   UNL d   1      28.172 -15.003  -4.528  0.00  0.00    -0.020 A 
ATOM      3  C   UNL d   1      28.482 -14.077  -5.462  0.00  0.00     0.106 A 
ATOM      4  C   UNL d   1      29.626 -14.360  -6.422  0.00  0.00     0.026 C 
ATOM      5  N   UNL d   1      30.575 -14.593  -7.218  0.00  0.00    -0.096 N 
ATOM      6  C   UNL d   1      27.786 -12.793  -5.575  0.00  0.00     0.271 A 
ATOM      7  O   UNL d   1      28.169 -11.967  -6.398  0.00  0.00    -0.266 OA
ATOM      8  N   UNL d   1      26.707 -12.596  -4.720  0.00  0.00    -0.274 N 
ATOM      9  C   UNL d   1      26.346 -13.466  -3.699  0.00  0.00     0.263 A 
ATOM     10  O   UNL d   1      25.463 -13.223  -2.877  0.00  0.00    -0.267 OA
ATOM     11  C   UNL d   1      27.082 -14.754  -3.600  0.00  0.00     0.055 A 
ATOM     12  C   UNL d   1      26.643 -15.592  -2.634  0.00  0.00     0.106 C 
ENDROOT
BRANCH   8  13
ATOM     13  C   UNL d   1      25.995 -11.320  -4.859  0.00  0.00     0.111 C 
ATOM     14  C   UNL d   1      26.768 -10.171  -4.186  0.00  0.00     0.042 C 
ATOM     15  C   UNL d   1      26.125  -8.859  -4.620  0.00  0.00     0.142 C 
ATOM     16  S   UNL d   1      25.277  -9.172  -6.153  0.00  0.00     0.146 S 
ATOM     17  O   UNL d   1      23.846  -9.178  -5.918  0.00  0.00    -0.228 OA
ATOM     18  O   UNL d   1      25.897  -8.427  -7.223  0.00  0.00    -0.228 OA
ATOM     19  C   UNL d   1      25.782 -10.833  -6.289  0.00  0.00     0.166 C 
ENDBRANCH   8  13
BRANCH  12  20
ATOM     20  N   UNL d   1      25.563 -15.417  -1.791  0.00  0.00    -0.365 N 
ATOM     21  H   UNL d   1      25.397 -14.457  -1.468  0.00  0.00     0.165 HD
BRANCH  20  22
ATOM     22  C   UNL d   1      24.732 -16.385  -1.229  0.00  0.00     0.032 A 
ATOM     23  C   UNL d   1      25.248 -17.568  -0.698  0.00  0.00     0.032 A 
ATOM     24  C   UNL d   1      24.401 -18.563  -0.213  0.00  0.00     0.039 A 
ATOM     25  C   UNL d   1      23.025 -18.377  -0.281  0.00  0.00     0.065 A 
ATOM     26  C   UNL d   1      22.489 -17.209  -0.809  0.00  0.00     0.039 A 
ATOM     27  C   UNL d   1      23.342 -16.207  -1.270  0.00  0.00     0.032 A 
BRANCH  25  28
ATOM     28  O   UNL d   1      22.151 -19.324   0.163  0.00  0.00    -0.361 OA
ATOM     29  H   UNL d   1      22.653 -20.089   0.484  0.00  0.00     0.217 HD
ENDBRANCH  25  28
ENDBRANCH  20  22
ENDBRANCH  12  20
TORSDOF 4
ENDMDL
