MODEL 1
REMARK VINA RESULT:   -31.217      0.000      0.000
REMARK INTER + INTRA:         -35.576
REMARK INTER:                 -33.305
REMARK INTRA:                  -2.271
REMARK CONF_INDEPENDENT:        2.088
REMARK UNBOUND:                -2.271
REMARK  7 active torsions:
REMARK  status: ('A' for Active; 'I' for Inactive)
REMARK    1  A    between atoms: N_7  and  C_8 
REMARK    2  A    between atoms: C_8  and  C_9 
REMARK    3  A    between atoms: C_10  and  C_11 
REMARK       I    between atoms: C_11  and  N_13 
REMARK    4  A    between atoms: N_13  and  N_14 
REMARK    5  A    between atoms: C_15  and  C_16 
REMARK    6  A    between atoms: N_23  and  C_24 
REMARK    7  A    between atoms: C_28  and  N_29 
ROOT
ATOM      1  C   UNL d   1      24.642 -17.119  -1.313  0.00  0.00     0.102 C 
ATOM      2  C   UNL d   1      23.598 -17.978  -0.855  0.00  0.00     0.176 C 
ATOM      3  N   UNL d   1      23.914 -18.344   0.440  0.00  0.00    -0.124 NA
ATOM      4  N   UNL d   1      25.068 -17.823   0.794  0.00  0.00    -0.058 NA
ATOM      5  N   UNL d   1      25.458 -16.943  -0.140  0.00  0.00    -0.191 N 
ENDROOT
BRANCH   2   6
ATOM      6  C   UNL d   1      22.322 -18.577  -1.399  0.00  0.00     0.294 C 
ATOM      7  O   UNL d   1      22.368 -19.326  -2.395  0.00  0.00    -0.264 OA
ATOM      8  N   UNL d   1      21.109 -18.290  -0.783  0.00  0.00    -0.242 N 
ATOM      9  H   UNL d   1      21.067 -17.798   0.085  0.00  0.00     0.192 HD
BRANCH   8  10
ATOM     10  N   UNL d   1      19.905 -18.794  -1.268  0.00  0.00    -0.183 NA
ATOM     11  C   UNL d   1      19.155 -19.552  -0.522  0.00  0.00     0.150 C 
BRANCH  11  12
ATOM     12  C   UNL d   1      19.427 -19.874   0.868  0.00  0.00    -0.010 C 
ATOM     13  C   UNL d   1      20.571 -19.445   1.606  0.00  0.00     0.020 C 
ATOM     14  C   UNL d   1      20.417 -19.719   2.944  0.00  0.00     0.050 C 
ATOM     15  S   UNL d   1      19.164 -20.825   3.252  0.00  0.00    -0.113 SA
ATOM     16  C   UNL d   1      18.543 -20.556   1.683  0.00  0.00     0.062 C 
ENDBRANCH  11  12
ENDBRANCH   8  10
ENDBRANCH   2   6
BRANCH   1  17
ATOM     17  C   UNL d   1      24.906 -16.419  -2.634  0.00  0.00     0.297 C 
BRANCH  17  18
ATOM     18  N   UNL d   1      25.711 -15.048  -2.690  0.00  0.00    -0.062 N 
ATOM     19  C   UNL d   1      24.858 -13.933  -3.154  0.00  0.00     0.235 C 
ATOM     20  C   UNL d   1      25.459 -12.571  -3.359  0.00  0.00     0.028 C 
ATOM     21  C   UNL d   1      26.590 -12.685  -4.343  0.00  0.00     0.004 C 
ATOM     22  C   UNL d   1      27.565 -13.636  -3.707  0.00  0.00     0.033 C 
ATOM     23  C   UNL d   1      26.935 -15.030  -3.619  0.00  0.00     0.184 C 
ATOM     24  C   UNL d   1      27.983 -15.917  -3.072  0.00  0.00     0.040 C 
ATOM     25  H   UNL d   1      26.001 -14.841  -1.725  0.00  0.00     0.280 HD
ENDBRANCH  17  18
ENDBRANCH   1  17
BRANCH   5  26
ATOM     26  C   UNL d   1      26.549 -16.044   0.124  0.00  0.00     0.229 A 
ATOM     27  N   UNL d   1      26.287 -14.801   0.559  0.00  0.00    -0.081 NA
ATOM     28  O   UNL d   1      27.499 -14.362   1.114  0.00  0.00    -0.103 OA
ATOM     29  N   UNL d   1      28.489 -15.334   0.979  0.00  0.00    -0.083 NA
ATOM     30  C   UNL d   1      27.901 -16.357   0.356  0.00  0.00     0.201 A 
BRANCH  30  31
ATOM     31  N   UNL d   1      28.445 -17.582   0.221  0.00  0.00    -0.379 N 
ATOM     32  H   UNL d   1      27.813 -18.380   0.296  0.00  0.00     0.158 HD
ATOM     33  H   UNL d   1      29.363 -17.785   0.607  0.00  0.00     0.158 HD
ENDBRANCH  30  31
ENDBRANCH   5  26
TORSDOF 7
ENDMDL
MODEL 2
REMARK VINA RESULT:   -29.736      3.111      6.821
REMARK INTER + INTRA:         -34.457
REMARK INTER:                 -31.824
REMARK INTRA:                  -2.632
REMARK CONF_INDEPENDENT:        2.088
REMARK UNBOUND:                -2.632
REMARK  7 active torsions:
REMARK  status: ('A' for Active; 'I' for Inactive)
REMARK    1  A    between atoms: N_7  and  C_8 
REMARK    2  A    between atoms: C_8  and  C_9 
REMARK    3  A    between atoms: C_10  and  C_11 
REMARK       I    between atoms: C_11  and  N_13 
REMARK    4  A    between atoms: N_13  and  N_14 
REMARK    5  A    between atoms: C_15  and  C_16 
REMARK    6  A    between atoms: N_23  and  C_24 
REMARK    7  A    between atoms: C_28  and  N_29 
ROOT
ATOM      1  C   UNL d   1      24.341 -16.881  -0.752  0.00  0.00     0.102 C 
ATOM      2  C   UNL d   1      25.565 -17.518  -0.385  0.00  0.00     0.176 C 
ATOM      3  N   UNL d   1      25.240 -18.569   0.451  0.00  0.00    -0.124 NA
ATOM      4  N   UNL d   1      23.942 -18.603   0.659  0.00  0.00    -0.058 NA
ATOM      5  N   UNL d   1      23.341 -17.737  -0.170  0.00  0.00    -0.191 N 
ENDROOT
BRANCH   2   6
ATOM      6  C   UNL d   1      27.043 -17.334  -0.642  0.00  0.00     0.294 C 
ATOM      7  O   UNL d   1      27.485 -17.450  -1.801  0.00  0.00    -0.264 OA
ATOM      8  N   UNL d   1      27.894 -17.036   0.416  0.00  0.00    -0.242 N 
ATOM      9  H   UNL d   1      27.541 -16.816   1.325  0.00  0.00     0.192 HD
BRANCH   8  10
ATOM     10  N   UNL d   1      29.266 -16.888   0.231  0.00  0.00    -0.183 NA
ATOM     11  C   UNL d   1      29.851 -15.754   0.487  0.00  0.00     0.150 C 
BRANCH  11  12
ATOM     12  C   UNL d   1      29.190 -14.591   1.052  0.00  0.00    -0.010 C 
ATOM     13  C   UNL d   1      28.319 -14.604   2.183  0.00  0.00     0.020 C 
ATOM     14  C   UNL d   1      28.048 -13.324   2.603  0.00  0.00     0.050 C 
ATOM     15  S   UNL d   1      28.456 -12.149   1.445  0.00  0.00    -0.113 SA
ATOM     16  C   UNL d   1      29.414 -13.297   0.619  0.00  0.00     0.062 C 
ENDBRANCH  11  12
ENDBRANCH   8  10
ENDBRANCH   2   6
BRANCH   1  17
ATOM     17  C   UNL d   1      24.016 -15.668  -1.604  0.00  0.00     0.297 C 
BRANCH  17  18
ATOM     18  N   UNL d   1      25.155 -14.898  -2.403  0.00  0.00    -0.062 N 
ATOM     19  C   UNL d   1      25.525 -15.607  -3.647  0.00  0.00     0.235 C 
ATOM     20  C   UNL d   1      26.648 -15.083  -4.497  0.00  0.00     0.028 C 
ATOM     21  C   UNL d   1      27.895 -15.009  -3.659  0.00  0.00     0.004 C 
ATOM     22  C   UNL d   1      27.555 -14.065  -2.539  0.00  0.00     0.033 C 
ATOM     23  C   UNL d   1      26.480 -14.696  -1.648  0.00  0.00     0.184 C 
ATOM     24  C   UNL d   1      26.272 -13.753  -0.530  0.00  0.00     0.040 C 
ATOM     25  H   UNL d   1      24.761 -13.985  -2.666  0.00  0.00     0.280 HD
ENDBRANCH  17  18
ENDBRANCH   1  17
BRANCH   5  26
ATOM     26  C   UNL d   1      21.912 -17.765  -0.333  0.00  0.00     0.229 A 
ATOM     27  N   UNL d   1      21.300 -16.742  -0.951  0.00  0.00    -0.081 NA
ATOM     28  O   UNL d   1      20.048 -17.257  -1.322  0.00  0.00    -0.103 OA
ATOM     29  N   UNL d   1      19.905 -18.575  -0.895  0.00  0.00    -0.083 NA
ATOM     30  C   UNL d   1      21.049 -18.874  -0.276  0.00  0.00     0.201 A 
BRANCH  30  31
ATOM     31  N   UNL d   1      21.411 -20.117   0.098  0.00  0.00    -0.379 N 
ATOM     32  H   UNL d   1      20.847 -20.566   0.820  0.00  0.00     0.158 HD
ATOM     33  H   UNL d   1      22.393 -20.370   0.169  0.00  0.00     0.158 HD
ENDBRANCH  30  31
ENDBRANCH   5  26
TORSDOF 7
ENDMDL
MODEL 3
REMARK VINA RESULT:   -29.367      3.136      6.784
REMARK INTER + INTRA:         -34.367
REMARK INTER:                 -31.455
REMARK INTRA:                  -2.912
REMARK CONF_INDEPENDENT:        2.088
REMARK UNBOUND:                -2.912
REMARK  7 active torsions:
REMARK  status: ('A' for Active; 'I' for Inactive)
REMARK    1  A    between atoms: N_7  and  C_8 
REMARK    2  A    between atoms: C_8  and  C_9 
REMARK    3  A    between atoms: C_10  and  C_11 
REMARK       I    between atoms: C_11  and  N_13 
REMARK    4  A    between atoms: N_13  and  N_14 
REMARK    5  A    between atoms: C_15  and  C_16 
REMARK    6  A    between atoms: N_23  and  C_24 
REMARK    7  A    between atoms: C_28  and  N_29 
ROOT
ATOM      1  C   UNL d   1      24.379 -16.989  -0.883  0.00  0.00     0.102 C 
ATOM      2  C   UNL d   1      25.602 -17.661  -0.582  0.00  0.00     0.176 C 
ATOM      3  N   UNL d   1      25.288 -18.724   0.243  0.00  0.00    -0.124 NA
ATOM      4  N   UNL d   1      23.999 -18.735   0.503  0.00  0.00    -0.058 NA
ATOM      5  N   UNL d   1      23.384 -17.837  -0.280  0.00  0.00    -0.191 N 
ENDROOT
BRANCH   2   6
ATOM      6  C   UNL d   1      27.072 -17.503  -0.895  0.00  0.00     0.294 C 
ATOM      7  O   UNL d   1      27.421 -17.076  -2.013  0.00  0.00    -0.264 OA
ATOM      8  N   UNL d   1      28.021 -17.833   0.066  0.00  0.00    -0.242 N 
ATOM      9  H   UNL d   1      27.759 -18.054   1.004  0.00  0.00     0.192 HD
BRANCH   8  10
ATOM     10  N   UNL d   1      29.386 -17.732  -0.190  0.00  0.00    -0.183 NA
ATOM     11  C   UNL d   1      30.011 -16.604  -0.018  0.00  0.00     0.150 C 
BRANCH  11  12
ATOM     12  C   UNL d   1      29.408 -15.397   0.519  0.00  0.00    -0.010 C 
ATOM     13  C   UNL d   1      28.205 -15.345   1.285  0.00  0.00     0.020 C 
ATOM     14  C   UNL d   1      28.032 -14.097   1.835  0.00  0.00     0.050 C 
ATOM     15  S   UNL d   1      29.023 -12.917   1.119  0.00  0.00    -0.113 SA
ATOM     16  C   UNL d   1      29.994 -14.147   0.439  0.00  0.00     0.062 C 
ENDBRANCH  11  12
ENDBRANCH   8  10
ENDBRANCH   2   6
BRANCH   1  17
ATOM     17  C   UNL d   1      24.047 -15.748  -1.693  0.00  0.00     0.297 C 
BRANCH  17  18
ATOM     18  N   UNL d   1      25.197 -14.853  -2.330  0.00  0.00    -0.062 N 
ATOM     19  C   UNL d   1      26.198 -14.449  -1.319  0.00  0.00     0.235 C 
ATOM     20  C   UNL d   1      27.318 -13.525  -1.708  0.00  0.00     0.028 C 
ATOM     21  C   UNL d   1      26.727 -12.256  -2.258  0.00  0.00     0.004 C 
ATOM     22  C   UNL d   1      25.920 -12.688  -3.451  0.00  0.00     0.033 C 
ATOM     23  C   UNL d   1      24.735 -13.540  -2.984  0.00  0.00     0.184 C 
ATOM     24  C   UNL d   1      23.948 -13.843  -4.196  0.00  0.00     0.040 C 
ATOM     25  H   UNL d   1      25.673 -15.441  -3.026  0.00  0.00     0.280 HD
ENDBRANCH  17  18
ENDBRANCH   1  17
BRANCH   5  26
ATOM     26  C   UNL d   1      21.949 -17.830  -0.384  0.00  0.00     0.229 A 
ATOM     27  N   UNL d   1      21.335 -16.768  -0.932  0.00  0.00    -0.081 NA
ATOM     28  O   UNL d   1      20.058 -17.242  -1.272  0.00  0.00    -0.103 OA
ATOM     29  N   UNL d   1      19.905 -18.575  -0.896  0.00  0.00    -0.083 NA
ATOM     30  C   UNL d   1      21.066 -18.923  -0.339  0.00  0.00     0.201 A 
BRANCH  30  31
ATOM     31  N   UNL d   1      21.417 -20.188  -0.033  0.00  0.00    -0.379 N 
ATOM     32  H   UNL d   1      20.744 -20.739   0.499  0.00  0.00     0.158 HD
ATOM     33  H   UNL d   1      22.376 -20.412   0.217  0.00  0.00     0.158 HD
ENDBRANCH  30  31
ENDBRANCH   5  26
TORSDOF 7
ENDMDL
MODEL 4
REMARK VINA RESULT:   -28.809      3.120      7.026
REMARK INTER + INTRA:         -33.309
REMARK INTER:                 -30.897
REMARK INTRA:                  -2.412
REMARK CONF_INDEPENDENT:        2.088
REMARK UNBOUND:                -2.412
REMARK  7 active torsions:
REMARK  status: ('A' for Active; 'I' for Inactive)
REMARK    1  A    between atoms: N_7  and  C_8 
REMARK    2  A    between atoms: C_8  and  C_9 
REMARK    3  A    between atoms: C_10  and  C_11 
REMARK       I    between atoms: C_11  and  N_13 
REMARK    4  A    between atoms: N_13  and  N_14 
REMARK    5  A    between atoms: C_15  and  C_16 
REMARK    6  A    between atoms: N_23  and  C_24 
REMARK    7  A    between atoms: C_28  and  N_29 
ROOT
ATOM      1  C   UNL d   1      24.422 -17.125  -0.788  0.00  0.00     0.102 C 
ATOM      2  C   UNL d   1      25.606 -17.800  -0.364  0.00  0.00     0.176 C 
ATOM      3  N   UNL d   1      25.214 -18.783   0.525  0.00  0.00    -0.124 NA
ATOM      4  N   UNL d   1      23.913 -18.740   0.711  0.00  0.00    -0.058 NA
ATOM      5  N   UNL d   1      23.370 -17.894  -0.177  0.00  0.00    -0.191 N 
ENDROOT
BRANCH   2   6
ATOM      6  C   UNL d   1      27.095 -17.706  -0.603  0.00  0.00     0.294 C 
ATOM      7  O   UNL d   1      27.884 -18.198   0.226  0.00  0.00    -0.264 OA
ATOM      8  N   UNL d   1      27.570 -17.075  -1.747  0.00  0.00    -0.242 N 
ATOM      9  H   UNL d   1      26.954 -16.789  -2.481  0.00  0.00     0.192 HD
BRANCH   8  10
ATOM     10  N   UNL d   1      28.934 -16.938  -1.994  0.00  0.00    -0.183 NA
ATOM     11  C   UNL d   1      29.359 -16.182  -2.964  0.00  0.00     0.150 C 
BRANCH  11  12
ATOM     12  C   UNL d   1      28.508 -15.361  -3.807  0.00  0.00    -0.010 C 
ATOM     13  C   UNL d   1      28.671 -13.961  -4.031  0.00  0.00     0.020 C 
ATOM     14  C   UNL d   1      27.854 -13.533  -5.051  0.00  0.00     0.050 C 
ATOM     15  S   UNL d   1      26.634 -14.652  -5.433  0.00  0.00    -0.113 SA
ATOM     16  C   UNL d   1      27.486 -15.868  -4.589  0.00  0.00     0.062 C 
ENDBRANCH  11  12
ENDBRANCH   8  10
ENDBRANCH   2   6
BRANCH   1  17
ATOM     17  C   UNL d   1      24.173 -15.947  -1.715  0.00  0.00     0.297 C 
BRANCH  17  18
ATOM     18  N   UNL d   1      25.343 -14.939  -2.091  0.00  0.00    -0.062 N 
ATOM     19  C   UNL d   1      26.216 -14.657  -0.931  0.00  0.00     0.235 C 
ATOM     20  C   UNL d   1      27.329 -13.655  -1.063  0.00  0.00     0.028 C 
ATOM     21  C   UNL d   1      26.745 -12.337  -1.490  0.00  0.00     0.004 C 
ATOM     22  C   UNL d   1      26.085 -12.615  -2.812  0.00  0.00     0.033 C 
ATOM     23  C   UNL d   1      24.896 -13.559  -2.601  0.00  0.00     0.184 C 
ATOM     24  C   UNL d   1      24.252 -13.706  -3.922  0.00  0.00     0.040 C 
ATOM     25  H   UNL d   1      25.913 -15.407  -2.807  0.00  0.00     0.280 HD
ENDBRANCH  17  18
ENDBRANCH   1  17
BRANCH   5  26
ATOM     26  C   UNL d   1      21.944 -17.860  -0.365  0.00  0.00     0.229 A 
ATOM     27  N   UNL d   1      21.399 -16.861  -1.077  0.00  0.00    -0.081 NA
ATOM     28  O   UNL d   1      20.125 -17.337  -1.427  0.00  0.00    -0.103 OA
ATOM     29  N   UNL d   1      19.905 -18.606  -0.895  0.00  0.00    -0.083 NA
ATOM     30  C   UNL d   1      21.021 -18.912  -0.232  0.00  0.00     0.201 A 
BRANCH  30  31
ATOM     31  N   UNL d   1      21.309 -20.137   0.252  0.00  0.00    -0.379 N 
ATOM     32  H   UNL d   1      20.766 -20.458   1.053  0.00  0.00     0.158 HD
ATOM     33  H   UNL d   1      22.271 -20.466   0.286  0.00  0.00     0.158 HD
ENDBRANCH  30  31
ENDBRANCH   5  26
TORSDOF 7
ENDMDL
MODEL 5
REMARK VINA RESULT:   -28.713      2.989      6.789
REMARK INTER + INTRA:         -32.370
REMARK INTER:                 -30.801
REMARK INTRA:                  -1.569
REMARK CONF_INDEPENDENT:        2.088
REMARK UNBOUND:                -1.569
REMARK  7 active torsions:
REMARK  status: ('A' for Active; 'I' for Inactive)
REMARK    1  A    between atoms: N_7  and  C_8 
REMARK    2  A    between atoms: C_8  and  C_9 
REMARK    3  A    between atoms: C_10  and  C_11 
REMARK       I    between atoms: C_11  and  N_13 
REMARK    4  A    between atoms: N_13  and  N_14 
REMARK    5  A    between atoms: C_15  and  C_16 
REMARK    6  A    between atoms: N_23  and  C_24 
REMARK    7  A    between atoms: C_28  and  N_29 
ROOT
ATOM      1  C   UNL d   1      24.525 -17.721  -0.966  0.00  0.00     0.102 C 
ATOM      2  C   UNL d   1      25.579 -17.828  -0.010  0.00  0.00     0.176 C 
ATOM      3  N   UNL d   1      25.025 -18.335   1.150  0.00  0.00    -0.124 NA
ATOM      4  N   UNL d   1      23.730 -18.505   1.000  0.00  0.00    -0.058 NA
ATOM      5  N   UNL d   1      23.408 -18.327  -0.290  0.00  0.00    -0.191 N 
ENDROOT
BRANCH   2   6
ATOM      6  C   UNL d   1      27.058 -17.523   0.064  0.00  0.00     0.294 C 
ATOM      7  O   UNL d   1      27.885 -18.437  -0.123  0.00  0.00    -0.264 OA
ATOM      8  N   UNL d   1      27.482 -16.228   0.338  0.00  0.00    -0.242 N 
ATOM      9  H   UNL d   1      26.840 -15.463   0.365  0.00  0.00     0.192 HD
BRANCH   8  10
ATOM     10  N   UNL d   1      28.832 -15.907   0.446  0.00  0.00    -0.183 NA
ATOM     11  C   UNL d   1      29.212 -14.847   1.098  0.00  0.00     0.150 C 
BRANCH  11  12
ATOM     12  C   UNL d   1      28.323 -13.964   1.830  0.00  0.00    -0.010 C 
ATOM     13  C   UNL d   1      27.997 -14.082   3.215  0.00  0.00     0.020 C 
ATOM     14  C   UNL d   1      27.323 -12.966   3.653  0.00  0.00     0.050 C 
ATOM     15  S   UNL d   1      26.722 -12.016   2.380  0.00  0.00    -0.113 SA
ATOM     16  C   UNL d   1      27.760 -12.822   1.288  0.00  0.00     0.062 C 
ENDBRANCH  11  12
ENDBRANCH   8  10
ENDBRANCH   2   6
BRANCH   1  17
ATOM     17  C   UNL d   1      24.466 -17.212  -2.396  0.00  0.00     0.297 C 
BRANCH  17  18
ATOM     18  N   UNL d   1      25.470 -16.091  -2.909  0.00  0.00    -0.062 N 
ATOM     19  C   UNL d   1      26.849 -16.332  -2.431  0.00  0.00     0.235 C 
ATOM     20  C   UNL d   1      27.929 -15.333  -2.736  0.00  0.00     0.028 C 
ATOM     21  C   UNL d   1      27.516 -13.993  -2.193  0.00  0.00     0.004 C 
ATOM     22  C   UNL d   1      26.233 -13.664  -2.906  0.00  0.00     0.033 C 
ATOM     23  C   UNL d   1      25.142 -14.652  -2.476  0.00  0.00     0.184 C 
ATOM     24  C   UNL d   1      23.903 -14.207  -3.144  0.00  0.00     0.040 C 
ATOM     25  H   UNL d   1      25.478 -16.153  -3.935  0.00  0.00     0.280 HD
ENDBRANCH  17  18
ENDBRANCH   1  17
BRANCH   5  26
ATOM     26  C   UNL d   1      22.108 -18.709  -0.770  0.00  0.00     0.229 A 
ATOM     27  N   UNL d   1      21.658 -19.952  -0.532  0.00  0.00    -0.081 NA
ATOM     28  O   UNL d   1      20.270 -19.863  -0.726  0.00  0.00    -0.103 OA
ATOM     29  N   UNL d   1      19.902 -18.575  -1.111  0.00  0.00    -0.083 NA
ATOM     30  C   UNL d   1      21.039 -17.878  -1.150  0.00  0.00     0.201 A 
BRANCH  30  31
ATOM     31  N   UNL d   1      21.107 -16.537  -1.270  0.00  0.00    -0.379 N 
ATOM     32  H   UNL d   1      21.420 -16.015  -0.452  0.00  0.00     0.158 HD
ATOM     33  H   UNL d   1      20.405 -16.029  -1.802  0.00  0.00     0.158 HD
ENDBRANCH  30  31
ENDBRANCH   5  26
TORSDOF 7
ENDMDL
