MODEL 1
REMARK VINA RESULT:    -9.527      0.000      0.000
REMARK INTER + INTRA:         -13.085
REMARK INTER:                 -11.913
REMARK INTRA:                  -1.172
REMARK CONF_INDEPENDENT:        2.386
REMARK UNBOUND:                -1.172
REMARK  8 active torsions:
REMARK  status: ('A' for Active; 'I' for Inactive)
REMARK    1  A    between atoms: C_5  and  N_6 
REMARK    2  A    between atoms: C_9  and  N_10 
REMARK       I    between atoms: N_10  and  C_11 
REMARK    3  A    between atoms: C_13  and  C_11 
REMARK    4  A    between atoms: C_13  and  N_15 
REMARK    5  A    between atoms: N_15  and  C_16 
REMARK    6  A    between atoms: C_20  and  N_21 
REMARK       I    between atoms: N_21  and  C_22 
REMARK    7  A    between atoms: C_22  and  C_24 
REMARK    8  A    between atoms: C_24  and  O_25 
ROOT
ATOM      1  C   UNL d   1      26.739 -16.389  -0.205  0.00  0.00     0.170 C 
ATOM      2  C   UNL d   1      28.167 -16.722   0.292  0.00  0.00     0.042 C 
ENDROOT
BRANCH   1   3
ATOM      3  N   UNL d   1      25.819 -17.468   0.272  0.00  0.00    -0.377 N 
ATOM      4  H   UNL d   1      26.254 -18.389   0.188  0.00  0.00     0.160 HD
BRANCH   3   5
ATOM      5  C   UNL d   1      24.465 -17.528  -0.067  0.00  0.00     0.030 C 
ATOM      6  C   UNL d   1      23.828 -16.375  -0.518  0.00  0.00     0.029 C 
ATOM      7  C   UNL d   1      22.476 -16.389  -0.895  0.00  0.00     0.004 C 
ATOM      8  C   UNL d   1      21.747 -17.568  -0.880  0.00  0.00     0.029 C 
ATOM      9  C   UNL d   1      22.269 -18.653  -0.209  0.00  0.00     0.036 C 
ATOM     10  C   UNL d   1      23.610 -18.596   0.233  0.00  0.00     0.058 C 
BRANCH   9  11
ATOM     11  N   UNL d   1      21.402 -19.766  -0.082  0.00  0.00    -0.325 N 
ATOM     12  C   UNL d   1      20.247 -19.977  -0.782  0.00  0.00     0.245 C 
ATOM     13  O   UNL d   1      20.191 -19.700  -2.017  0.00  0.00    -0.271 OA
ATOM     14  H   UNL d   1      21.483 -20.315   0.763  0.00  0.00     0.169 HD
BRANCH  12  15
ATOM     15  C   UNL d   1      18.885 -20.480   0.270  0.00  0.00     0.267 C 
BRANCH  15  16
ATOM     16  O   UNL d   1      18.165 -21.812   0.654  0.00  0.00    -0.392 OA
ATOM     17  H   UNL d   1      17.286 -22.076   0.234  0.00  0.00     0.210 HD
ENDBRANCH  15  16
ENDBRANCH  12  15
ENDBRANCH   9  11
ENDBRANCH   3   5
ENDBRANCH   1   3
BRANCH   1  18
ATOM     18  C   UNL d   1      26.870 -16.294  -1.748  0.00  0.00     0.244 C 
ATOM     19  N   UNL d   1      27.976 -15.617  -2.262  0.00  0.00    -0.323 N 
ATOM     20  H   UNL d   1      28.363 -14.984  -1.579  0.00  0.00     0.169 HD
ATOM     21  O   UNL d   1      25.963 -16.717  -2.465  0.00  0.00    -0.271 OA
BRANCH  19  22
ATOM     22  C   UNL d   1      28.123 -15.309  -3.677  0.00  0.00     0.074 C 
ATOM     23  C   UNL d   1      27.241 -14.486  -4.412  0.00  0.00     0.130 C 
ATOM     24  C   UNL d   1      27.442 -14.060  -5.774  0.00  0.00     0.039 C 
ATOM     25  C   UNL d   1      28.568 -14.303  -6.528  0.00  0.00     0.010 C 
ATOM     26  C   UNL d   1      29.522 -15.116  -5.967  0.00  0.00    -0.054 C 
ATOM     27  C   UNL d   1      30.700 -15.309  -7.268  0.00  0.00     0.049 C 
ATOM     28  C   UNL d   1      29.229 -15.789  -4.434  0.00  0.00    -0.027 C 
ATOM     29  C   UNL d   1      30.081 -17.055  -3.538  0.00  0.00     0.051 C 
BRANCH  23  30
ATOM     30  N   UNL d   1      25.904 -14.156  -3.909  0.00  0.00    -0.113 N 
ATOM     31  O   UNL d   1      25.799 -13.750  -2.741  0.00  0.00    -0.532 OA
ATOM     32  O   UNL d   1      24.942 -14.426  -4.648  0.00  0.00    -0.532 OA
ENDBRANCH  23  30
ENDBRANCH  19  22
ENDBRANCH   1  18
TORSDOF 8
ENDMDL
MODEL 2
REMARK VINA RESULT:    -9.403      2.106      2.793
REMARK INTER + INTRA:         -13.354
REMARK INTER:                 -11.789
REMARK INTRA:                  -1.565
REMARK CONF_INDEPENDENT:        2.386
REMARK UNBOUND:                -1.565
REMARK  8 active torsions:
REMARK  status: ('A' for Active; 'I' for Inactive)
REMARK    1  A    between atoms: C_5  and  N_6 
REMARK    2  A    between atoms: C_9  and  N_10 
REMARK       I    between atoms: N_10  and  C_11 
REMARK    3  A    between atoms: C_13  and  C_11 
REMARK    4  A    between atoms: C_13  and  N_15 
REMARK    5  A    between atoms: N_15  and  C_16 
REMARK    6  A    between atoms: C_20  and  N_21 
REMARK       I    between atoms: N_21  and  C_22 
REMARK    7  A    between atoms: C_22  and  C_24 
REMARK    8  A    between atoms: C_24  and  O_25 
ROOT
ATOM      1  C   UNL d   1      26.872 -16.489  -0.298  0.00  0.00     0.170 C 
ATOM      2  C   UNL d   1      28.230 -17.117   0.098  0.00  0.00     0.042 C 
ENDROOT
BRANCH   1   3
ATOM      3  N   UNL d   1      26.010 -17.571  -0.868  0.00  0.00    -0.377 N 
ATOM      4  H   UNL d   1      26.315 -17.832  -1.807  0.00  0.00     0.160 HD
BRANCH   3   5
ATOM      5  C   UNL d   1      24.614 -17.564  -0.786  0.00  0.00     0.030 C 
ATOM      6  C   UNL d   1      23.933 -16.360  -0.944  0.00  0.00     0.029 C 
ATOM      7  C   UNL d   1      22.531 -16.305  -0.895  0.00  0.00     0.004 C 
ATOM      8  C   UNL d   1      21.780 -17.459  -0.741  0.00  0.00     0.029 C 
ATOM      9  C   UNL d   1      22.421 -18.609  -0.335  0.00  0.00     0.036 C 
ATOM     10  C   UNL d   1      23.834 -18.627  -0.315  0.00  0.00     0.058 C 
BRANCH   9  11
ATOM     11  N   UNL d   1      21.575 -19.704  -0.028  0.00  0.00    -0.325 N 
ATOM     12  C   UNL d   1      20.324 -19.926  -0.533  0.00  0.00     0.245 C 
ATOM     13  O   UNL d   1      20.080 -19.699  -1.755  0.00  0.00    -0.271 OA
ATOM     14  H   UNL d   1      21.780 -20.218   0.817  0.00  0.00     0.169 HD
BRANCH  12  15
ATOM     15  C   UNL d   1      19.136 -20.365   0.737  0.00  0.00     0.267 C 
BRANCH  15  16
ATOM     16  O   UNL d   1      17.930 -21.346   0.887  0.00  0.00    -0.392 OA
ATOM     17  H   UNL d   1      17.983 -22.300   0.561  0.00  0.00     0.210 HD
ENDBRANCH  15  16
ENDBRANCH  12  15
ENDBRANCH   9  11
ENDBRANCH   3   5
ENDBRANCH   1   3
BRANCH   1  18
ATOM     18  C   UNL d   1      27.234 -15.363  -1.302  0.00  0.00     0.244 C 
ATOM     19  N   UNL d   1      26.231 -14.457  -1.647  0.00  0.00    -0.323 N 
ATOM     20  H   UNL d   1      25.317 -14.846  -1.474  0.00  0.00     0.169 HD
ATOM     21  O   UNL d   1      28.342 -15.357  -1.839  0.00  0.00    -0.271 OA
BRANCH  19  22
ATOM     22  C   UNL d   1      26.392 -13.469  -2.702  0.00  0.00     0.074 C 
ATOM     23  C   UNL d   1      26.154 -13.715  -4.073  0.00  0.00     0.130 C 
ATOM     24  C   UNL d   1      26.176 -12.718  -5.113  0.00  0.00     0.039 C 
ATOM     25  C   UNL d   1      26.328 -11.364  -4.917  0.00  0.00     0.010 C 
ATOM     26  C   UNL d   1      26.596 -10.953  -3.635  0.00  0.00    -0.054 C 
ATOM     27  C   UNL d   1      26.874  -9.219  -3.819  0.00  0.00     0.049 C 
ATOM     28  C   UNL d   1      26.764 -12.124  -2.415  0.00  0.00    -0.027 C 
ATOM     29  C   UNL d   1      27.354 -11.995  -0.751  0.00  0.00     0.051 C 
BRANCH  23  30
ATOM     30  N   UNL d   1      26.068 -15.081  -4.601  0.00  0.00    -0.113 N 
ATOM     31  O   UNL d   1      25.530 -15.951  -3.898  0.00  0.00    -0.532 OA
ATOM     32  O   UNL d   1      26.655 -15.307  -5.673  0.00  0.00    -0.532 OA
ENDBRANCH  23  30
ENDBRANCH  19  22
ENDBRANCH   1  18
TORSDOF 8
ENDMDL
MODEL 3
REMARK VINA RESULT:    -8.650      2.704      3.794
REMARK INTER + INTRA:         -12.120
REMARK INTER:                 -11.036
REMARK INTRA:                  -1.084
REMARK CONF_INDEPENDENT:        2.386
REMARK UNBOUND:                -1.084
REMARK  8 active torsions:
REMARK  status: ('A' for Active; 'I' for Inactive)
REMARK    1  A    between atoms: C_5  and  N_6 
REMARK    2  A    between atoms: C_9  and  N_10 
REMARK       I    between atoms: N_10  and  C_11 
REMARK    3  A    between atoms: C_13  and  C_11 
REMARK    4  A    between atoms: C_13  and  N_15 
REMARK    5  A    between atoms: N_15  and  C_16 
REMARK    6  A    between atoms: C_20  and  N_21 
REMARK       I    between atoms: N_21  and  C_22 
REMARK    7  A    between atoms: C_22  and  C_24 
REMARK    8  A    between atoms: C_24  and  O_25 
ROOT
ATOM      1  C   UNL d   1      25.619 -14.866  -2.687  0.00  0.00     0.170 C 
ATOM      2  C   UNL d   1      26.934 -14.685  -1.891  0.00  0.00     0.042 C 
ENDROOT
BRANCH   1   3
ATOM      3  N   UNL d   1      25.317 -16.329  -2.758  0.00  0.00    -0.377 N 
ATOM      4  H   UNL d   1      24.722 -16.546  -3.560  0.00  0.00     0.160 HD
BRANCH   3   5
ATOM      5  C   UNL d   1      24.945 -17.091  -1.647  0.00  0.00     0.030 C 
ATOM      6  C   UNL d   1      25.825 -17.198  -0.574  0.00  0.00     0.029 C 
ATOM      7  C   UNL d   1      25.487 -17.931   0.575  0.00  0.00     0.004 C 
ATOM      8  C   UNL d   1      24.241 -18.525   0.698  0.00  0.00     0.029 C 
ATOM      9  C   UNL d   1      23.461 -18.649  -0.431  0.00  0.00     0.036 C 
ATOM     10  C   UNL d   1      23.853 -17.968  -1.605  0.00  0.00     0.058 C 
BRANCH   9  11
ATOM     11  N   UNL d   1      22.281 -19.418  -0.276  0.00  0.00    -0.325 N 
ATOM     12  C   UNL d   1      21.001 -18.940  -0.245  0.00  0.00     0.245 C 
ATOM     13  O   UNL d   1      20.646 -18.015  -1.035  0.00  0.00    -0.271 OA
ATOM     14  H   UNL d   1      22.388 -20.347   0.108  0.00  0.00     0.169 HD
BRANCH  12  15
ATOM     15  C   UNL d   1      20.039 -19.630   1.103  0.00  0.00     0.267 C 
BRANCH  15  16
ATOM     16  O   UNL d   1      20.283 -20.048   2.588  0.00  0.00    -0.392 OA
ATOM     17  H   UNL d   1      20.861 -20.841   2.824  0.00  0.00     0.210 HD
ENDBRANCH  15  16
ENDBRANCH  12  15
ENDBRANCH   9  11
ENDBRANCH   3   5
ENDBRANCH   1   3
BRANCH   1  18
ATOM     18  C   UNL d   1      25.895 -14.201  -4.061  0.00  0.00     0.244 C 
ATOM     19  N   UNL d   1      26.907 -13.242  -4.124  0.00  0.00    -0.323 N 
ATOM     20  H   UNL d   1      27.096 -12.855  -3.212  0.00  0.00     0.169 HD
ATOM     21  O   UNL d   1      25.163 -14.451  -5.019  0.00  0.00    -0.271 OA
BRANCH  19  22
ATOM     22  C   UNL d   1      27.146 -12.426  -5.304  0.00  0.00     0.074 C 
ATOM     23  C   UNL d   1      27.761 -12.892  -6.488  0.00  0.00     0.130 C 
ATOM     24  C   UNL d   1      27.883 -12.141  -7.712  0.00  0.00     0.039 C 
ATOM     25  C   UNL d   1      27.331 -10.902  -7.947  0.00  0.00     0.010 C 
ATOM     26  C   UNL d   1      26.715 -10.290  -6.883  0.00  0.00    -0.054 C 
ATOM     27  C   UNL d   1      26.290  -8.700  -7.524  0.00  0.00     0.049 C 
ATOM     28  C   UNL d   1      26.718 -11.069  -5.373  0.00  0.00    -0.027 C 
ATOM     29  C   UNL d   1      26.271 -10.487  -3.762  0.00  0.00     0.051 C 
BRANCH  23  30
ATOM     30  N   UNL d   1      28.535 -14.137  -6.510  0.00  0.00    -0.113 N 
ATOM     31  O   UNL d   1      29.766 -14.062  -6.649  0.00  0.00    -0.532 OA
ATOM     32  O   UNL d   1      27.890 -15.200  -6.514  0.00  0.00    -0.532 OA
ENDBRANCH  23  30
ENDBRANCH  19  22
ENDBRANCH   1  18
TORSDOF 8
ENDMDL
MODEL 4
REMARK VINA RESULT:    -7.958      3.478      4.590
REMARK INTER + INTRA:         -11.862
REMARK INTER:                 -10.344
REMARK INTRA:                  -1.517
REMARK CONF_INDEPENDENT:        2.386
REMARK UNBOUND:                -1.517
REMARK  8 active torsions:
REMARK  status: ('A' for Active; 'I' for Inactive)
REMARK    1  A    between atoms: C_5  and  N_6 
REMARK    2  A    between atoms: C_9  and  N_10 
REMARK       I    between atoms: N_10  and  C_11 
REMARK    3  A    between atoms: C_13  and  C_11 
REMARK    4  A    between atoms: C_13  and  N_15 
REMARK    5  A    between atoms: N_15  and  C_16 
REMARK    6  A    between atoms: C_20  and  N_21 
REMARK       I    between atoms: N_21  and  C_22 
REMARK    7  A    between atoms: C_22  and  C_24 
REMARK    8  A    between atoms: C_24  and  O_25 
ROOT
ATOM      1  C   UNL d   1      25.986 -14.914  -2.955  0.00  0.00     0.170 C 
ATOM      2  C   UNL d   1      26.875 -15.498  -4.080  0.00  0.00     0.042 C 
ENDROOT
BRANCH   1   3
ATOM      3  N   UNL d   1      24.802 -15.813  -2.786  0.00  0.00    -0.377 N 
ATOM      4  H   UNL d   1      23.928 -15.308  -2.942  0.00  0.00     0.160 HD
BRANCH   3   5
ATOM      5  C   UNL d   1      24.669 -16.715  -1.727  0.00  0.00     0.030 C 
ATOM      6  C   UNL d   1      25.745 -16.911  -0.865  0.00  0.00     0.029 C 
ATOM      7  C   UNL d   1      25.652 -17.787   0.228  0.00  0.00     0.004 C 
ATOM      8  C   UNL d   1      24.466 -18.444   0.513  0.00  0.00     0.029 C 
ATOM      9  C   UNL d   1      23.481 -18.467  -0.451  0.00  0.00     0.036 C 
ATOM     10  C   UNL d   1      23.623 -17.636  -1.585  0.00  0.00     0.058 C 
BRANCH   9  11
ATOM     11  N   UNL d   1      22.369 -19.299  -0.168  0.00  0.00    -0.325 N 
ATOM     12  C   UNL d   1      21.051 -18.951  -0.269  0.00  0.00     0.245 C 
ATOM     13  O   UNL d   1      20.651 -18.246  -1.243  0.00  0.00    -0.271 OA
ATOM     14  H   UNL d   1      22.542 -20.115   0.403  0.00  0.00     0.169 HD
BRANCH  12  15
ATOM     15  C   UNL d   1      20.097 -19.440   1.168  0.00  0.00     0.267 C 
BRANCH  15  16
ATOM     16  O   UNL d   1      20.279 -20.389   2.396  0.00  0.00    -0.392 OA
ATOM     17  H   UNL d   1      21.169 -20.479   2.864  0.00  0.00     0.210 HD
ENDBRANCH  15  16
ENDBRANCH  12  15
ENDBRANCH   9  11
ENDBRANCH   3   5
ENDBRANCH   1   3
BRANCH   1  18
ATOM     18  C   UNL d   1      25.638 -13.479  -3.432  0.00  0.00     0.244 C 
ATOM     19  N   UNL d   1      26.622 -12.498  -3.303  0.00  0.00    -0.323 N 
ATOM     20  H   UNL d   1      27.304 -12.759  -2.608  0.00  0.00     0.169 HD
ATOM     21  O   UNL d   1      24.494 -13.220  -3.806  0.00  0.00    -0.271 OA
BRANCH  19  22
ATOM     22  C   UNL d   1      26.365 -11.088  -3.550  0.00  0.00     0.074 C 
ATOM     23  C   UNL d   1      25.900 -10.561  -4.776  0.00  0.00     0.130 C 
ATOM     24  C   UNL d   1      25.510  -9.192  -4.998  0.00  0.00     0.039 C 
ATOM     25  C   UNL d   1      25.433  -8.217  -4.030  0.00  0.00     0.010 C 
ATOM     26  C   UNL d   1      25.876  -8.558  -2.776  0.00  0.00    -0.054 C 
ATOM     27  C   UNL d   1      25.767  -7.037  -1.884  0.00  0.00     0.049 C 
ATOM     28  C   UNL d   1      26.519 -10.111  -2.525  0.00  0.00    -0.027 C 
ATOM     29  C   UNL d   1      27.406 -10.796  -1.155  0.00  0.00     0.051 C 
BRANCH  23  30
ATOM     30  N   UNL d   1      25.973 -11.337  -6.018  0.00  0.00    -0.113 N 
ATOM     31  O   UNL d   1      26.933 -12.108  -6.174  0.00  0.00    -0.532 OA
ATOM     32  O   UNL d   1      25.132 -11.076  -6.895  0.00  0.00    -0.532 OA
ENDBRANCH  23  30
ENDBRANCH  19  22
ENDBRANCH   1  18
TORSDOF 8
ENDMDL
MODEL 5
REMARK VINA RESULT:    -7.907      2.036      3.310
REMARK INTER + INTRA:         -11.882
REMARK INTER:                 -10.293
REMARK INTRA:                  -1.589
REMARK CONF_INDEPENDENT:        2.386
REMARK UNBOUND:                -1.589
REMARK  8 active torsions:
REMARK  status: ('A' for Active; 'I' for Inactive)
REMARK    1  A    between atoms: C_5  and  N_6 
REMARK    2  A    between atoms: C_9  and  N_10 
REMARK       I    between atoms: N_10  and  C_11 
REMARK    3  A    between atoms: C_13  and  C_11 
REMARK    4  A    between atoms: C_13  and  N_15 
REMARK    5  A    between atoms: N_15  and  C_16 
REMARK    6  A    between atoms: C_20  and  N_21 
REMARK       I    between atoms: N_21  and  C_22 
REMARK    7  A    between atoms: C_22  and  C_24 
REMARK    8  A    between atoms: C_24  and  O_25 
ROOT
ATOM      1  C   UNL d   1      25.390 -14.859  -3.601  0.00  0.00     0.170 C 
ATOM      2  C   UNL d   1      24.762 -13.467  -3.852  0.00  0.00     0.042 C 
ENDROOT
BRANCH   1   3
ATOM      3  N   UNL d   1      25.921 -14.883  -2.202  0.00  0.00    -0.377 N 
ATOM      4  H   UNL d   1      26.851 -14.464  -2.152  0.00  0.00     0.160 HD
BRANCH   3   5
ATOM      5  C   UNL d   1      25.837 -16.002  -1.369  0.00  0.00     0.030 C 
ATOM      6  C   UNL d   1      26.978 -16.435  -0.699  0.00  0.00     0.029 C 
ATOM      7  C   UNL d   1      26.939 -17.538   0.168  0.00  0.00     0.004 C 
ATOM      8  C   UNL d   1      25.748 -18.198   0.425  0.00  0.00     0.029 C 
ATOM      9  C   UNL d   1      24.674 -17.957  -0.404  0.00  0.00     0.036 C 
ATOM     10  C   UNL d   1      24.755 -16.890  -1.327  0.00  0.00     0.058 C 
BRANCH   9  11
ATOM     11  N   UNL d   1      23.545 -18.789  -0.198  0.00  0.00    -0.325 N 
ATOM     12  C   UNL d   1      22.583 -19.092  -1.120  0.00  0.00     0.245 C 
ATOM     13  O   UNL d   1      22.904 -19.326  -2.323  0.00  0.00    -0.271 OA
ATOM     14  H   UNL d   1      23.273 -18.960   0.761  0.00  0.00     0.169 HD
BRANCH  12  15
ATOM     15  C   UNL d   1      20.922 -18.930  -0.462  0.00  0.00     0.267 C 
BRANCH  15  16
ATOM     16  O   UNL d   1      19.580 -18.257  -0.892  0.00  0.00    -0.392 OA
ATOM     17  H   UNL d   1      19.019 -18.634  -1.643  0.00  0.00     0.210 HD
ENDBRANCH  15  16
ENDBRANCH  12  15
ENDBRANCH   9  11
ENDBRANCH   3   5
ENDBRANCH   1   3
BRANCH   1  18
ATOM     18  C   UNL d   1      26.475 -15.007  -4.700  0.00  0.00     0.244 C 
ATOM     19  N   UNL d   1      27.596 -14.180  -4.617  0.00  0.00    -0.323 N 
ATOM     20  H   UNL d   1      27.402 -13.362  -4.061  0.00  0.00     0.169 HD
ATOM     21  O   UNL d   1      26.278 -15.758  -5.656  0.00  0.00    -0.271 OA
BRANCH  19  22
ATOM     22  C   UNL d   1      28.593 -14.099  -5.673  0.00  0.00     0.074 C 
ATOM     23  C   UNL d   1      28.664 -13.060  -6.629  0.00  0.00     0.130 C 
ATOM     24  C   UNL d   1      29.720 -12.889  -7.594  0.00  0.00     0.039 C 
ATOM     25  C   UNL d   1      30.868 -13.646  -7.664  0.00  0.00     0.010 C 
ATOM     26  C   UNL d   1      30.949 -14.722  -6.815  0.00  0.00    -0.054 C 
ATOM     27  C   UNL d   1      32.452 -15.509  -7.306  0.00  0.00     0.049 C 
ATOM     28  C   UNL d   1      29.635 -15.063  -5.793  0.00  0.00    -0.027 C 
ATOM     29  C   UNL d   1      29.279 -16.475  -4.786  0.00  0.00     0.051 C 
BRANCH  23  30
ATOM     30  N   UNL d   1      27.530 -12.161  -6.867  0.00  0.00    -0.113 N 
ATOM     31  O   UNL d   1      26.783 -11.892  -5.913  0.00  0.00    -0.532 OA
ATOM     32  O   UNL d   1      27.317 -11.824  -8.044  0.00  0.00    -0.532 OA
ENDBRANCH  23  30
ENDBRANCH  19  22
ENDBRANCH   1  18
TORSDOF 8
ENDMDL
MODEL 6
REMARK VINA RESULT:    -7.853      2.307      3.155
REMARK INTER + INTRA:         -11.846
REMARK INTER:                 -10.240
REMARK INTRA:                  -1.606
REMARK CONF_INDEPENDENT:        2.386
REMARK UNBOUND:                -1.606
REMARK  8 active torsions:
REMARK  status: ('A' for Active; 'I' for Inactive)
REMARK    1  A    between atoms: C_5  and  N_6 
REMARK    2  A    between atoms: C_9  and  N_10 
REMARK       I    between atoms: N_10  and  C_11 
REMARK    3  A    between atoms: C_13  and  C_11 
REMARK    4  A    between atoms: C_13  and  N_15 
REMARK    5  A    between atoms: N_15  and  C_16 
REMARK    6  A    between atoms: C_20  and  N_21 
REMARK       I    between atoms: N_21  and  C_22 
REMARK    7  A    between atoms: C_22  and  C_24 
REMARK    8  A    between atoms: C_24  and  O_25 
ROOT
ATOM      1  C   UNL d   1      26.121 -15.287  -2.734  0.00  0.00     0.170 C 
ATOM      2  C   UNL d   1      27.565 -15.803  -2.524  0.00  0.00     0.042 C 
ENDROOT
BRANCH   1   3
ATOM      3  N   UNL d   1      25.208 -16.471  -2.782  0.00  0.00    -0.377 N 
ATOM      4  H   UNL d   1      24.405 -16.294  -3.388  0.00  0.00     0.160 HD
BRANCH   3   5
ATOM      5  C   UNL d   1      24.823 -17.190  -1.647  0.00  0.00     0.030 C 
ATOM      6  C   UNL d   1      25.697 -17.269  -0.567  0.00  0.00     0.029 C 
ATOM      7  C   UNL d   1      25.346 -17.958   0.605  0.00  0.00     0.004 C 
ATOM      8  C   UNL d   1      24.093 -18.535   0.741  0.00  0.00     0.029 C 
ATOM      9  C   UNL d   1      23.317 -18.689  -0.387  0.00  0.00     0.036 C 
ATOM     10  C   UNL d   1      23.722 -18.053  -1.581  0.00  0.00     0.058 C 
BRANCH   9  11
ATOM     11  N   UNL d   1      22.128 -19.441  -0.210  0.00  0.00    -0.325 N 
ATOM     12  C   UNL d   1      20.851 -18.953  -0.235  0.00  0.00     0.245 C 
ATOM     13  O   UNL d   1      20.520 -18.075  -1.086  0.00  0.00    -0.271 OA
ATOM     14  H   UNL d   1      22.220 -20.346   0.230  0.00  0.00     0.169 HD
BRANCH  12  15
ATOM     15  C   UNL d   1      19.857 -19.556   1.130  0.00  0.00     0.267 C 
BRANCH  15  16
ATOM     16  O   UNL d   1      20.099 -20.072   2.585  0.00  0.00    -0.392 OA
ATOM     17  H   UNL d   1      21.030 -20.147   2.968  0.00  0.00     0.210 HD
ENDBRANCH  15  16
ENDBRANCH  12  15
ENDBRANCH   9  11
ENDBRANCH   3   5
ENDBRANCH   1   3
BRANCH   1  18
ATOM     18  C   UNL d   1      26.182 -14.470  -4.051  0.00  0.00     0.244 C 
ATOM     19  N   UNL d   1      27.153 -13.472  -4.149  0.00  0.00    -0.323 N 
ATOM     20  H   UNL d   1      27.461 -13.177  -3.235  0.00  0.00     0.169 HD
ATOM     21  O   UNL d   1      25.326 -14.645  -4.919  0.00  0.00    -0.271 OA
BRANCH  19  22
ATOM     22  C   UNL d   1      27.201 -12.526  -5.253  0.00  0.00     0.074 C 
ATOM     23  C   UNL d   1      26.682 -11.212  -5.205  0.00  0.00     0.130 C 
ATOM     24  C   UNL d   1      26.840 -10.218  -6.236  0.00  0.00     0.039 C 
ATOM     25  C   UNL d   1      27.604 -10.361  -7.372  0.00  0.00     0.010 C 
ATOM     26  C   UNL d   1      28.163 -11.596  -7.588  0.00  0.00    -0.054 C 
ATOM     27  C   UNL d   1      28.910 -11.427  -9.179  0.00  0.00     0.049 C 
ATOM     28  C   UNL d   1      27.840 -12.848  -6.484  0.00  0.00    -0.027 C 
ATOM     29  C   UNL d   1      28.157 -14.587  -6.572  0.00  0.00     0.051 C 
BRANCH  23  30
ATOM     30  N   UNL d   1      25.734 -10.802  -4.165  0.00  0.00    -0.113 N 
ATOM     31  O   UNL d   1      25.160  -9.709  -4.291  0.00  0.00    -0.532 OA
ATOM     32  O   UNL d   1      25.660 -11.523  -3.155  0.00  0.00    -0.532 OA
ENDBRANCH  23  30
ENDBRANCH  19  22
ENDBRANCH   1  18
TORSDOF 8
ENDMDL
