MODEL 1
REMARK VINA RESULT:    -8.177      0.000      0.000
REMARK INTER + INTRA:         -11.578
REMARK INTER:                 -10.265
REMARK INTRA:                  -1.314
REMARK CONF_INDEPENDENT:        2.088
REMARK UNBOUND:                -1.314
REMARK  7 active torsions:
REMARK  status: ('A' for Active; 'I' for Inactive)
REMARK    1  A    between atoms: C_2  and  O_3 
REMARK    2  A    between atoms: O_3  and  C_4 
REMARK    3  A    between atoms: C_9  and  C_10 
REMARK    4  A    between atoms: C_10  and  C_11 
REMARK    5  A    between atoms: C_11  and  C_12 
REMARK       I    between atoms: C_12  and  N_14 
REMARK    6  A    between atoms: N_14  and  N_15 
REMARK       I    between atoms: N_15  and  C_16 
REMARK       I    between atoms: C_16  and  N_18 
REMARK    7  A    between atoms: N_18  and  C_19 
ROOT
ATOM      1  C   UNL d   1      24.573 -17.874  -0.842  0.00  0.00     0.236 C 
ATOM      2  O   UNL d   1      25.046 -18.035   0.290  0.00  0.00    -0.272 OA
ATOM      3  N   UNL d   1      23.293 -18.334  -1.190  0.00  0.00    -0.266 N 
ATOM      4  H   UNL d   1      22.840 -18.249  -2.103  0.00  0.00     0.190 HD
ENDROOT
BRANCH   1   5
ATOM      5  C   UNL d   1      25.294 -17.075  -1.895  0.00  0.00     0.109 C 
BRANCH   5   6
ATOM      6  C   UNL d   1      26.214 -15.905  -1.751  0.00  0.00     0.051 C 
BRANCH   6   7
ATOM      7  C   UNL d   1      26.973 -15.580  -3.050  0.00  0.00    -0.024 A 
ATOM      8  C   UNL d   1      28.352 -15.924  -2.967  0.00  0.00     0.010 A 
ATOM      9  C   UNL d   1      29.223 -15.790  -4.044  0.00  0.00     0.001 A 
ATOM     10  C   UNL d   1      28.736 -15.303  -5.246  0.00  0.00     0.003 A 
ATOM     11  C   UNL d   1      27.394 -14.894  -5.345  0.00  0.00     0.037 A 
ATOM     12  C   UNL d   1      26.486 -15.020  -4.267  0.00  0.00     0.075 A 
BRANCH  12  13
ATOM     13  O   UNL d   1      25.162 -14.821  -4.640  0.00  0.00    -0.351 OA
BRANCH  13  14
ATOM     14  C   UNL d   1      24.407 -13.699  -4.168  0.00  0.00     0.171 C 
ATOM     15  C   UNL d   1      25.250 -12.557  -3.623  0.00  0.00     0.034 C 
ENDBRANCH  13  14
ENDBRANCH  12  13
ENDBRANCH   6   7
ENDBRANCH   5   6
ENDBRANCH   1   5
BRANCH   3  16
ATOM     16  N   UNL d   1      22.540 -19.041  -0.210  0.00  0.00    -0.249 N 
ATOM     17  C   UNL d   1      21.159 -18.951  -0.147  0.00  0.00     0.335 C 
ATOM     18  O   UNL d   1      20.509 -18.208  -0.893  0.00  0.00    -0.246 OA
ATOM     19  N   UNL d   1      20.585 -19.789   0.791  0.00  0.00    -0.338 N 
ATOM     20  H   UNL d   1      21.194 -20.327   1.390  0.00  0.00     0.164 HD
ATOM     21  H   UNL d   1      23.096 -19.608   0.420  0.00  0.00     0.192 HD
BRANCH  19  22
ATOM     22  C   UNL d   1      19.130 -19.894   1.012  0.00  0.00     0.078 C 
ATOM     23  C   UNL d   1      18.412 -20.451  -0.219  0.00  0.00     0.032 C 
ATOM     24  C   UNL d   1      18.777 -20.790   2.210  0.00  0.00     0.032 C 
ENDBRANCH  19  22
ENDBRANCH   3  16
TORSDOF 7
ENDMDL
MODEL 2
REMARK VINA RESULT:    -7.830      1.093      2.531
REMARK INTER + INTRA:         -11.317
REMARK INTER:                  -9.918
REMARK INTRA:                  -1.399
REMARK CONF_INDEPENDENT:        2.088
REMARK UNBOUND:                -1.399
REMARK  7 active torsions:
REMARK  status: ('A' for Active; 'I' for Inactive)
REMARK    1  A    between atoms: C_2  and  O_3 
REMARK    2  A    between atoms: O_3  and  C_4 
REMARK    3  A    between atoms: C_9  and  C_10 
REMARK    4  A    between atoms: C_10  and  C_11 
REMARK    5  A    between atoms: C_11  and  C_12 
REMARK       I    between atoms: C_12  and  N_14 
REMARK    6  A    between atoms: N_14  and  N_15 
REMARK       I    between atoms: N_15  and  C_16 
REMARK       I    between atoms: C_16  and  N_18 
REMARK    7  A    between atoms: N_18  and  C_19 
ROOT
ATOM      1  C   UNL d   1      24.227 -17.742  -1.163  0.00  0.00     0.236 C 
ATOM      2  O   UNL d   1      25.008 -18.403  -0.467  0.00  0.00    -0.272 OA
ATOM      3  N   UNL d   1      22.839 -17.940  -1.123  0.00  0.00    -0.266 N 
ATOM      4  H   UNL d   1      22.134 -17.443  -1.673  0.00  0.00     0.190 HD
ENDROOT
BRANCH   1   5
ATOM      5  C   UNL d   1      24.705 -16.602  -2.022  0.00  0.00     0.109 C 
BRANCH   5   6
ATOM      6  C   UNL d   1      26.093 -16.224  -2.432  0.00  0.00     0.051 C 
BRANCH   6   7
ATOM      7  C   UNL d   1      26.136 -14.934  -3.271  0.00  0.00    -0.024 A 
ATOM      8  C   UNL d   1      25.570 -13.825  -2.580  0.00  0.00     0.010 A 
ATOM      9  C   UNL d   1      25.562 -12.537  -3.108  0.00  0.00     0.001 A 
ATOM     10  C   UNL d   1      26.125 -12.320  -4.356  0.00  0.00     0.003 A 
ATOM     11  C   UNL d   1      26.635 -13.403  -5.094  0.00  0.00     0.037 A 
ATOM     12  C   UNL d   1      26.657 -14.721  -4.580  0.00  0.00     0.075 A 
BRANCH  12  13
ATOM     13  O   UNL d   1      27.438 -15.590  -5.334  0.00  0.00    -0.351 OA
BRANCH  13  14
ATOM     14  C   UNL d   1      28.668 -15.168  -5.936  0.00  0.00     0.171 C 
ATOM     15  C   UNL d   1      29.879 -15.258  -5.022  0.00  0.00     0.034 C 
ENDBRANCH  13  14
ENDBRANCH  12  13
ENDBRANCH   6   7
ENDBRANCH   5   6
ENDBRANCH   1   5
BRANCH   3  16
ATOM     16  N   UNL d   1      22.326 -18.964  -0.277  0.00  0.00    -0.249 N 
ATOM     17  C   UNL d   1      20.966 -19.193  -0.151  0.00  0.00     0.335 C 
ATOM     18  O   UNL d   1      20.121 -18.486  -0.713  0.00  0.00    -0.246 OA
ATOM     19  N   UNL d   1      20.653 -20.296   0.623  0.00  0.00    -0.338 N 
ATOM     20  H   UNL d   1      21.405 -20.788   1.083  0.00  0.00     0.164 HD
ATOM     21  H   UNL d   1      23.035 -19.502   0.210  0.00  0.00     0.192 HD
BRANCH  19  22
ATOM     22  C   UNL d   1      19.273 -20.758   0.867  0.00  0.00     0.078 C 
ATOM     23  C   UNL d   1      18.675 -20.110   2.118  0.00  0.00     0.032 C 
ATOM     24  C   UNL d   1      18.334 -20.463  -0.313  0.00  0.00     0.032 C 
ENDBRANCH  19  22
ENDBRANCH   3  16
TORSDOF 7
ENDMDL
MODEL 3
REMARK VINA RESULT:    -7.788      1.361      2.571
REMARK INTER + INTRA:         -11.457
REMARK INTER:                  -9.876
REMARK INTRA:                  -1.581
REMARK CONF_INDEPENDENT:        2.088
REMARK UNBOUND:                -1.581
REMARK  7 active torsions:
REMARK  status: ('A' for Active; 'I' for Inactive)
REMARK    1  A    between atoms: C_2  and  O_3 
REMARK    2  A    between atoms: O_3  and  C_4 
REMARK    3  A    between atoms: C_9  and  C_10 
REMARK    4  A    between atoms: C_10  and  C_11 
REMARK    5  A    between atoms: C_11  and  C_12 
REMARK       I    between atoms: C_12  and  N_14 
REMARK    6  A    between atoms: N_14  and  N_15 
REMARK       I    between atoms: N_15  and  C_16 
REMARK       I    between atoms: C_16  and  N_18 
REMARK    7  A    between atoms: N_18  and  C_19 
ROOT
ATOM      1  C   UNL d   1      25.488 -17.744  -0.108  0.00  0.00     0.236 C 
ATOM      2  O   UNL d   1      25.891 -18.574   0.717  0.00  0.00    -0.272 OA
ATOM      3  N   UNL d   1      24.141 -17.664  -0.492  0.00  0.00    -0.266 N 
ATOM      4  H   UNL d   1      23.736 -17.016  -1.171  0.00  0.00     0.190 HD
ENDROOT
BRANCH   1   5
ATOM      5  C   UNL d   1      26.398 -16.688  -0.676  0.00  0.00     0.109 C 
BRANCH   5   6
ATOM      6  C   UNL d   1      27.048 -16.599  -2.020  0.00  0.00     0.051 C 
BRANCH   6   7
ATOM      7  C   UNL d   1      26.315 -15.639  -2.974  0.00  0.00    -0.024 A 
ATOM      8  C   UNL d   1      25.181 -15.035  -2.361  0.00  0.00     0.010 A 
ATOM      9  C   UNL d   1      24.405 -14.075  -3.003  0.00  0.00     0.001 A 
ATOM     10  C   UNL d   1      24.742 -13.691  -4.291  0.00  0.00     0.003 A 
ATOM     11  C   UNL d   1      25.816 -14.313  -4.951  0.00  0.00     0.037 A 
ATOM     12  C   UNL d   1      26.624 -15.290  -4.321  0.00  0.00     0.075 A 
BRANCH  12  13
ATOM     13  O   UNL d   1      27.783 -15.582  -5.029  0.00  0.00    -0.351 OA
BRANCH  13  14
ATOM     14  C   UNL d   1      28.223 -14.768  -6.123  0.00  0.00     0.171 C 
ATOM     15  C   UNL d   1      29.713 -14.851  -6.411  0.00  0.00     0.034 C 
ENDBRANCH  13  14
ENDBRANCH  12  13
ENDBRANCH   6   7
ENDBRANCH   5   6
ENDBRANCH   1   5
BRANCH   3  16
ATOM     16  N   UNL d   1      23.224 -18.600   0.065  0.00  0.00    -0.249 N 
ATOM     17  C   UNL d   1      21.861 -18.514  -0.171  0.00  0.00     0.335 C 
ATOM     18  O   UNL d   1      21.359 -17.591  -0.824  0.00  0.00    -0.246 OA
ATOM     19  N   UNL d   1      21.134 -19.568   0.354  0.00  0.00    -0.338 N 
ATOM     20  H   UNL d   1      21.620 -20.254   0.914  0.00  0.00     0.164 HD
ATOM     21  H   UNL d   1      23.652 -19.322   0.634  0.00  0.00     0.192 HD
BRANCH  19  22
ATOM     22  C   UNL d   1      19.674 -19.712   0.196  0.00  0.00     0.078 C 
ATOM     23  C   UNL d   1      19.252 -19.602  -1.270  0.00  0.00     0.032 C 
ATOM     24  C   UNL d   1      19.151 -21.051   0.740  0.00  0.00     0.032 C 
ENDBRANCH  19  22
ENDBRANCH   3  16
TORSDOF 7
ENDMDL
MODEL 4
REMARK VINA RESULT:    -7.694      1.133      2.143
REMARK INTER + INTRA:         -11.298
REMARK INTER:                  -9.782
REMARK INTRA:                  -1.516
REMARK CONF_INDEPENDENT:        2.088
REMARK UNBOUND:                -1.516
REMARK  7 active torsions:
REMARK  status: ('A' for Active; 'I' for Inactive)
REMARK    1  A    between atoms: C_2  and  O_3 
REMARK    2  A    between atoms: O_3  and  C_4 
REMARK    3  A    between atoms: C_9  and  C_10 
REMARK    4  A    between atoms: C_10  and  C_11 
REMARK    5  A    between atoms: C_11  and  C_12 
REMARK       I    between atoms: C_12  and  N_14 
REMARK    6  A    between atoms: N_14  and  N_15 
REMARK       I    between atoms: N_15  and  C_16 
REMARK       I    between atoms: C_16  and  N_18 
REMARK    7  A    between atoms: N_18  and  C_19 
ROOT
ATOM      1  C   UNL d   1      24.925 -17.811  -0.656  0.00  0.00     0.236 C 
ATOM      2  O   UNL d   1      25.395 -18.156   0.436  0.00  0.00    -0.272 OA
ATOM      3  N   UNL d   1      23.591 -18.066  -1.009  0.00  0.00    -0.266 N 
ATOM      4  H   UNL d   1      23.134 -17.822  -1.891  0.00  0.00     0.190 HD
ENDROOT
BRANCH   1   5
ATOM      5  C   UNL d   1      25.721 -16.994  -1.637  0.00  0.00     0.109 C 
BRANCH   5   6
ATOM      6  C   UNL d   1      26.848 -16.039  -1.402  0.00  0.00     0.051 C 
BRANCH   6   7
ATOM      7  C   UNL d   1      26.536 -14.616  -1.898  0.00  0.00    -0.024 A 
ATOM      8  C   UNL d   1      27.208 -13.621  -1.133  0.00  0.00     0.010 A 
ATOM      9  C   UNL d   1      27.139 -12.265  -1.440  0.00  0.00     0.001 A 
ATOM     10  C   UNL d   1      26.385 -11.862  -2.531  0.00  0.00     0.003 A 
ATOM     11  C   UNL d   1      25.657 -12.810  -3.271  0.00  0.00     0.037 A 
ATOM     12  C   UNL d   1      25.712 -14.194  -2.982  0.00  0.00     0.075 A 
BRANCH  12  13
ATOM     13  O   UNL d   1      25.150 -14.984  -3.978  0.00  0.00    -0.351 OA
BRANCH  13  14
ATOM     14  C   UNL d   1      25.947 -15.572  -5.013  0.00  0.00     0.171 C 
ATOM     15  C   UNL d   1      27.202 -14.788  -5.364  0.00  0.00     0.034 C 
ENDBRANCH  13  14
ENDBRANCH  12  13
ENDBRANCH   6   7
ENDBRANCH   5   6
ENDBRANCH   1   5
BRANCH   3  16
ATOM     16  N   UNL d   1      22.772 -18.779  -0.088  0.00  0.00    -0.249 N 
ATOM     17  C   UNL d   1      21.390 -18.725  -0.148  0.00  0.00     0.335 C 
ATOM     18  O   UNL d   1      20.789 -18.010  -0.959  0.00  0.00    -0.246 OA
ATOM     19  N   UNL d   1      20.756 -19.567   0.749  0.00  0.00    -0.338 N 
ATOM     20  H   UNL d   1      21.324 -20.080   1.407  0.00  0.00     0.164 HD
ATOM     21  H   UNL d   1      23.285 -19.323   0.597  0.00  0.00     0.192 HD
BRANCH  19  22
ATOM     22  C   UNL d   1      19.291 -19.708   0.843  0.00  0.00     0.078 C 
ATOM     23  C   UNL d   1      18.676 -20.105  -0.501  0.00  0.00     0.032 C 
ATOM     24  C   UNL d   1      18.863 -20.753   1.886  0.00  0.00     0.032 C 
ENDBRANCH  19  22
ENDBRANCH   3  16
TORSDOF 7
ENDMDL
MODEL 5
REMARK VINA RESULT:    -7.171      1.263      2.120
REMARK INTER + INTRA:         -10.738
REMARK INTER:                  -9.259
REMARK INTRA:                  -1.479
REMARK CONF_INDEPENDENT:        2.088
REMARK UNBOUND:                -1.479
REMARK  7 active torsions:
REMARK  status: ('A' for Active; 'I' for Inactive)
REMARK    1  A    between atoms: C_2  and  O_3 
REMARK    2  A    between atoms: O_3  and  C_4 
REMARK    3  A    between atoms: C_9  and  C_10 
REMARK    4  A    between atoms: C_10  and  C_11 
REMARK    5  A    between atoms: C_11  and  C_12 
REMARK       I    between atoms: C_12  and  N_14 
REMARK    6  A    between atoms: N_14  and  N_15 
REMARK       I    between atoms: N_15  and  C_16 
REMARK       I    between atoms: C_16  and  N_18 
REMARK    7  A    between atoms: N_18  and  C_19 
ROOT
ATOM      1  C   UNL d   1      23.968 -17.864  -0.921  0.00  0.00     0.236 C 
ATOM      2  O   UNL d   1      24.725 -18.400  -0.102  0.00  0.00    -0.272 OA
ATOM      3  N   UNL d   1      22.601 -18.172  -0.989  0.00  0.00    -0.266 N 
ATOM      4  H   UNL d   1      21.917 -17.781  -1.641  0.00  0.00     0.190 HD
ENDROOT
BRANCH   1   5
ATOM      5  C   UNL d   1      24.440 -16.761  -1.829  0.00  0.00     0.109 C 
BRANCH   5   6
ATOM      6  C   UNL d   1      25.357 -15.612  -1.551  0.00  0.00     0.051 C 
BRANCH   6   7
ATOM      7  C   UNL d   1      26.844 -16.001  -1.642  0.00  0.00    -0.024 A 
ATOM      8  C   UNL d   1      27.238 -16.867  -0.584  0.00  0.00     0.010 A 
ATOM      9  C   UNL d   1      28.516 -17.411  -0.498  0.00  0.00     0.001 A 
ATOM     10  C   UNL d   1      29.447 -17.098  -1.476  0.00  0.00     0.003 A 
ATOM     11  C   UNL d   1      29.111 -16.195  -2.501  0.00  0.00     0.037 A 
ATOM     12  C   UNL d   1      27.819 -15.630  -2.614  0.00  0.00     0.075 A 
BRANCH  12  13
ATOM     13  O   UNL d   1      27.606 -14.987  -3.828  0.00  0.00    -0.351 OA
BRANCH  13  14
ATOM     14  C   UNL d   1      26.360 -15.091  -4.527  0.00  0.00     0.171 C 
ATOM     15  C   UNL d   1      25.601 -13.780  -4.659  0.00  0.00     0.034 C 
ENDBRANCH  13  14
ENDBRANCH  12  13
ENDBRANCH   6   7
ENDBRANCH   5   6
ENDBRANCH   1   5
BRANCH   3  16
ATOM     16  N   UNL d   1      22.088 -19.164  -0.106  0.00  0.00    -0.249 N 
ATOM     17  C   UNL d   1      20.727 -19.385   0.030  0.00  0.00     0.335 C 
ATOM     18  O   UNL d   1      19.882 -18.697  -0.555  0.00  0.00    -0.246 OA
ATOM     19  N   UNL d   1      20.412 -20.460   0.843  0.00  0.00    -0.338 N 
ATOM     20  H   UNL d   1      21.164 -20.937   1.320  0.00  0.00     0.164 HD
ATOM     21  H   UNL d   1      22.796 -19.686   0.399  0.00  0.00     0.192 HD
BRANCH  19  22
ATOM     22  C   UNL d   1      19.031 -20.909   1.106  0.00  0.00     0.078 C 
ATOM     23  C   UNL d   1      18.371 -20.084   2.212  0.00  0.00     0.032 C 
ATOM     24  C   UNL d   1      18.137 -20.829  -0.142  0.00  0.00     0.032 C 
ENDBRANCH  19  22
ENDBRANCH   3  16
TORSDOF 7
ENDMDL
MODEL 6
REMARK VINA RESULT:    -7.167      1.831      2.823
REMARK INTER + INTRA:         -10.853
REMARK INTER:                  -9.255
REMARK INTRA:                  -1.598
REMARK CONF_INDEPENDENT:        2.088
REMARK UNBOUND:                -1.598
REMARK  7 active torsions:
REMARK  status: ('A' for Active; 'I' for Inactive)
REMARK    1  A    between atoms: C_2  and  O_3 
REMARK    2  A    between atoms: O_3  and  C_4 
REMARK    3  A    between atoms: C_9  and  C_10 
REMARK    4  A    between atoms: C_10  and  C_11 
REMARK    5  A    between atoms: C_11  and  C_12 
REMARK       I    between atoms: C_12  and  N_14 
REMARK    6  A    between atoms: N_14  and  N_15 
REMARK       I    between atoms: N_15  and  C_16 
REMARK       I    between atoms: C_16  and  N_18 
REMARK    7  A    between atoms: N_18  and  C_19 
ROOT
ATOM      1  C   UNL d   1      24.945 -17.813  -0.477  0.00  0.00     0.236 C 
ATOM      2  O   UNL d   1      25.404 -18.209   0.603  0.00  0.00    -0.272 OA
ATOM      3  N   UNL d   1      23.607 -18.021  -0.842  0.00  0.00    -0.266 N 
ATOM      4  H   UNL d   1      23.159 -17.735  -1.716  0.00  0.00     0.190 HD
ENDROOT
BRANCH   1   5
ATOM      5  C   UNL d   1      25.766 -16.982  -1.427  0.00  0.00     0.109 C 
BRANCH   5   6
ATOM      6  C   UNL d   1      25.392 -16.374  -2.741  0.00  0.00     0.051 C 
BRANCH   6   7
ATOM      7  C   UNL d   1      25.721 -14.872  -2.818  0.00  0.00    -0.024 A 
ATOM      8  C   UNL d   1      25.456 -14.330  -4.107  0.00  0.00     0.010 A 
ATOM      9  C   UNL d   1      25.606 -12.977  -4.397  0.00  0.00     0.001 A 
ATOM     10  C   UNL d   1      26.033 -12.120  -3.395  0.00  0.00     0.003 A 
ATOM     11  C   UNL d   1      26.364 -12.631  -2.128  0.00  0.00     0.037 A 
ATOM     12  C   UNL d   1      26.219 -14.001  -1.806  0.00  0.00     0.075 A 
BRANCH  12  13
ATOM     13  O   UNL d   1      26.335 -14.260  -0.445  0.00  0.00    -0.351 OA
BRANCH  13  14
ATOM     14  C   UNL d   1      27.595 -14.183   0.232  0.00  0.00     0.171 C 
ATOM     15  C   UNL d   1      28.324 -15.511   0.359  0.00  0.00     0.034 C 
ENDBRANCH  13  14
ENDBRANCH  12  13
ENDBRANCH   6   7
ENDBRANCH   5   6
ENDBRANCH   1   5
BRANCH   3  16
ATOM     16  N   UNL d   1      22.768 -18.746   0.051  0.00  0.00    -0.249 N 
ATOM     17  C   UNL d   1      21.387 -18.719  -0.062  0.00  0.00     0.335 C 
ATOM     18  O   UNL d   1      20.804 -18.019  -0.899  0.00  0.00    -0.246 OA
ATOM     19  N   UNL d   1      20.737 -19.568   0.816  0.00  0.00    -0.338 N 
ATOM     20  H   UNL d   1      21.289 -20.068   1.498  0.00  0.00     0.164 HD
ATOM     21  H   UNL d   1      23.265 -19.277   0.758  0.00  0.00     0.192 HD
BRANCH  19  22
ATOM     22  C   UNL d   1      19.271 -19.737   0.855  0.00  0.00     0.078 C 
ATOM     23  C   UNL d   1      18.707 -20.080  -0.525  0.00  0.00     0.032 C 
ATOM     24  C   UNL d   1      18.829 -20.837   1.833  0.00  0.00     0.032 C 
ENDBRANCH  19  22
ENDBRANCH   3  16
TORSDOF 7
ENDMDL
MODEL 7
REMARK VINA RESULT:    -7.157      1.504      2.626
REMARK INTER + INTRA:         -10.748
REMARK INTER:                  -9.246
REMARK INTRA:                  -1.502
REMARK CONF_INDEPENDENT:        2.088
REMARK UNBOUND:                -1.502
REMARK  7 active torsions:
REMARK  status: ('A' for Active; 'I' for Inactive)
REMARK    1  A    between atoms: C_2  and  O_3 
REMARK    2  A    between atoms: O_3  and  C_4 
REMARK    3  A    between atoms: C_9  and  C_10 
REMARK    4  A    between atoms: C_10  and  C_11 
REMARK    5  A    between atoms: C_11  and  C_12 
REMARK       I    between atoms: C_12  and  N_14 
REMARK    6  A    between atoms: N_14  and  N_15 
REMARK       I    between atoms: N_15  and  C_16 
REMARK       I    between atoms: C_16  and  N_18 
REMARK    7  A    between atoms: N_18  and  C_19 
ROOT
ATOM      1  C   UNL d   1      23.973 -18.094  -0.980  0.00  0.00     0.236 C 
ATOM      2  O   UNL d   1      24.684 -18.526  -0.064  0.00  0.00    -0.272 OA
ATOM      3  N   UNL d   1      22.608 -18.403  -1.076  0.00  0.00    -0.266 N 
ATOM      4  H   UNL d   1      21.961 -18.094  -1.806  0.00  0.00     0.190 HD
ENDROOT
BRANCH   1   5
ATOM      5  C   UNL d   1      24.500 -17.115  -1.995  0.00  0.00     0.109 C 
BRANCH   5   6
ATOM      6  C   UNL d   1      24.908 -15.686  -1.831  0.00  0.00     0.051 C 
BRANCH   6   7
ATOM      7  C   UNL d   1      26.135 -15.314  -2.683  0.00  0.00    -0.024 A 
ATOM      8  C   UNL d   1      25.794 -15.095  -4.048  0.00  0.00     0.010 A 
ATOM      9  C   UNL d   1      26.724 -14.677  -4.995  0.00  0.00     0.001 A 
ATOM     10  C   UNL d   1      28.036 -14.466  -4.600  0.00  0.00     0.003 A 
ATOM     11  C   UNL d   1      28.422 -14.734  -3.275  0.00  0.00     0.037 A 
ATOM     12  C   UNL d   1      27.497 -15.158  -2.292  0.00  0.00     0.075 A 
BRANCH  12  13
ATOM     13  O   UNL d   1      28.008 -15.107  -1.000  0.00  0.00    -0.351 OA
BRANCH  13  14
ATOM     14  C   UNL d   1      27.552 -15.995   0.027  0.00  0.00     0.171 C 
ATOM     15  C   UNL d   1      27.780 -17.469  -0.269  0.00  0.00     0.034 C 
ENDBRANCH  13  14
ENDBRANCH  12  13
ENDBRANCH   6   7
ENDBRANCH   5   6
ENDBRANCH   1   5
BRANCH   3  16
ATOM     16  N   UNL d   1      22.042 -19.274  -0.103  0.00  0.00    -0.249 N 
ATOM     17  C   UNL d   1      20.677 -19.494  -0.027  0.00  0.00     0.335 C 
ATOM     18  O   UNL d   1      19.869 -18.903  -0.754  0.00  0.00    -0.246 OA
ATOM     19  N   UNL d   1      20.314 -20.453   0.902  0.00  0.00    -0.338 N 
ATOM     20  H   UNL d   1      21.035 -20.851   1.486  0.00  0.00     0.164 HD
ATOM     21  H   UNL d   1      22.718 -19.713   0.513  0.00  0.00     0.192 HD
BRANCH  19  22
ATOM     22  C   UNL d   1      18.922 -20.882   1.132  0.00  0.00     0.078 C 
ATOM     23  C   UNL d   1      18.237 -20.025   2.198  0.00  0.00     0.032 C 
ATOM     24  C   UNL d   1      18.066 -20.823  -0.144  0.00  0.00     0.032 C 
ENDBRANCH  19  22
ENDBRANCH   3  16
TORSDOF 7
ENDMDL
MODEL 8
REMARK VINA RESULT:    -6.870      1.890      2.367
REMARK INTER + INTRA:         -10.253
REMARK INTER:                  -8.958
REMARK INTRA:                  -1.295
REMARK CONF_INDEPENDENT:        2.088
REMARK UNBOUND:                -1.295
REMARK  7 active torsions:
REMARK  status: ('A' for Active; 'I' for Inactive)
REMARK    1  A    between atoms: C_2  and  O_3 
REMARK    2  A    between atoms: O_3  and  C_4 
REMARK    3  A    between atoms: C_9  and  C_10 
REMARK    4  A    between atoms: C_10  and  C_11 
REMARK    5  A    between atoms: C_11  and  C_12 
REMARK       I    between atoms: C_12  and  N_14 
REMARK    6  A    between atoms: N_14  and  N_15 
REMARK       I    between atoms: N_15  and  C_16 
REMARK       I    between atoms: C_16  and  N_18 
REMARK    7  A    between atoms: N_18  and  C_19 
ROOT
ATOM      1  C   UNL d   1      24.598 -17.899  -0.884  0.00  0.00     0.236 C 
ATOM      2  O   UNL d   1      25.071 -18.107   0.241  0.00  0.00    -0.272 OA
ATOM      3  N   UNL d   1      23.310 -18.323  -1.243  0.00  0.00    -0.266 N 
ATOM      4  H   UNL d   1      22.856 -18.198  -2.151  0.00  0.00     0.190 HD
ENDROOT
BRANCH   1   5
ATOM      5  C   UNL d   1      25.332 -17.078  -1.910  0.00  0.00     0.109 C 
BRANCH   5   6
ATOM      6  C   UNL d   1      25.072 -15.686  -2.393  0.00  0.00     0.051 C 
BRANCH   6   7
ATOM      7  C   UNL d   1      25.979 -14.642  -1.718  0.00  0.00    -0.024 A 
ATOM      8  C   UNL d   1      26.239 -14.957  -0.355  0.00  0.00     0.010 A 
ATOM      9  C   UNL d   1      27.093 -14.199   0.440  0.00  0.00     0.001 A 
ATOM     10  C   UNL d   1      27.716 -13.090  -0.111  0.00  0.00     0.003 A 
ATOM     11  C   UNL d   1      27.434 -12.713  -1.436  0.00  0.00     0.037 A 
ATOM     12  C   UNL d   1      26.571 -13.467  -2.267  0.00  0.00     0.075 A 
BRANCH  12  13
ATOM     13  O   UNL d   1      26.633 -13.092  -3.604  0.00  0.00    -0.351 OA
BRANCH  13  14
ATOM     14  C   UNL d   1      25.666 -12.208  -4.184  0.00  0.00     0.171 C 
ATOM     15  C   UNL d   1      25.902 -10.736  -3.890  0.00  0.00     0.034 C 
ENDBRANCH  13  14
ENDBRANCH  12  13
ENDBRANCH   6   7
ENDBRANCH   5   6
ENDBRANCH   1   5
BRANCH   3  16
ATOM     16  N   UNL d   1      22.546 -19.048  -0.286  0.00  0.00    -0.249 N 
ATOM     17  C   UNL d   1      21.171 -18.912  -0.197  0.00  0.00     0.335 C 
ATOM     18  O   UNL d   1      20.537 -18.111  -0.895  0.00  0.00    -0.246 OA
ATOM     19  N   UNL d   1      20.579 -19.774   0.710  0.00  0.00    -0.338 N 
ATOM     20  H   UNL d   1      21.178 -20.362   1.273  0.00  0.00     0.164 HD
ATOM     21  H   UNL d   1      23.090 -19.665   0.307  0.00  0.00     0.192 HD
BRANCH  19  22
ATOM     22  C   UNL d   1      19.125 -19.837   0.949  0.00  0.00     0.078 C 
ATOM     23  C   UNL d   1      18.408 -20.631  -0.145  0.00  0.00     0.032 C 
ATOM     24  C   UNL d   1      18.776 -20.476   2.303  0.00  0.00     0.032 C 
ENDBRANCH  19  22
ENDBRANCH   3  16
TORSDOF 7
ENDMDL
MODEL 9
REMARK VINA RESULT:    -6.862      3.923      8.792
REMARK INTER + INTRA:         -10.518
REMARK INTER:                  -8.950
REMARK INTRA:                  -1.568
REMARK CONF_INDEPENDENT:        2.088
REMARK UNBOUND:                -1.568
REMARK  7 active torsions:
REMARK  status: ('A' for Active; 'I' for Inactive)
REMARK    1  A    between atoms: C_2  and  O_3 
REMARK    2  A    between atoms: O_3  and  C_4 
REMARK    3  A    between atoms: C_9  and  C_10 
REMARK    4  A    between atoms: C_10  and  C_11 
REMARK    5  A    between atoms: C_11  and  C_12 
REMARK       I    between atoms: C_12  and  N_14 
REMARK    6  A    between atoms: N_14  and  N_15 
REMARK       I    between atoms: N_15  and  C_16 
REMARK       I    between atoms: C_16  and  N_18 
REMARK    7  A    between atoms: N_18  and  C_19 
ROOT
ATOM      1  C   UNL d   1      25.498 -14.418  -3.382  0.00  0.00     0.236 C 
ATOM      2  O   UNL d   1      24.977 -14.725  -4.462  0.00  0.00    -0.272 OA
ATOM      3  N   UNL d   1      25.670 -13.082  -2.988  0.00  0.00    -0.266 N 
ATOM      4  H   UNL d   1      26.100 -12.750  -2.121  0.00  0.00     0.190 HD
ENDROOT
BRANCH   1   5
ATOM      5  C   UNL d   1      25.885 -15.459  -2.366  0.00  0.00     0.109 C 
BRANCH   5   6
ATOM      6  C   UNL d   1      25.505 -15.583  -0.925  0.00  0.00     0.051 C 
BRANCH   6   7
ATOM      7  C   UNL d   1      24.508 -16.728  -0.668  0.00  0.00    -0.024 A 
ATOM      8  C   UNL d   1      23.163 -16.334  -0.917  0.00  0.00     0.010 A 
ATOM      9  C   UNL d   1      22.094 -17.220  -0.824  0.00  0.00     0.001 A 
ATOM     10  C   UNL d   1      22.341 -18.537  -0.473  0.00  0.00     0.003 A 
ATOM     11  C   UNL d   1      23.649 -18.946  -0.157  0.00  0.00     0.037 A 
ATOM     12  C   UNL d   1      24.755 -18.067  -0.246  0.00  0.00     0.075 A 
BRANCH  12  13
ATOM     13  O   UNL d   1      25.980 -18.718  -0.161  0.00  0.00    -0.351 OA
BRANCH  13  14
ATOM     14  C   UNL d   1      27.028 -18.243   0.694  0.00  0.00     0.171 C 
ATOM     15  C   UNL d   1      27.969 -17.244   0.041  0.00  0.00     0.034 C 
ENDBRANCH  13  14
ENDBRANCH  12  13
ENDBRANCH   6   7
ENDBRANCH   5   6
ENDBRANCH   1   5
BRANCH   3  16
ATOM     16  N   UNL d   1      25.261 -12.055  -3.886  0.00  0.00    -0.249 N 
ATOM     17  C   UNL d   1      25.531 -10.720  -3.637  0.00  0.00     0.335 C 
ATOM     18  O   UNL d   1      26.084 -10.338  -2.598  0.00  0.00    -0.246 OA
ATOM     19  N   UNL d   1      25.162  -9.872  -4.666  0.00  0.00    -0.338 N 
ATOM     20  H   UNL d   1      24.673 -10.264  -5.458  0.00  0.00     0.164 HD
ATOM     21  H   UNL d   1      24.769 -12.386  -4.709  0.00  0.00     0.192 HD
BRANCH  19  22
ATOM     22  C   UNL d   1      25.385  -8.414  -4.644  0.00  0.00     0.078 C 
ATOM     23  C   UNL d   1      26.871  -8.069  -4.761  0.00  0.00     0.032 C 
ATOM     24  C   UNL d   1      24.640  -7.685  -5.773  0.00  0.00     0.032 C 
ENDBRANCH  19  22
ENDBRANCH   3  16
TORSDOF 7
ENDMDL
