MODEL 1
REMARK VINA RESULT:   -30.158      0.000      0.000
REMARK INTER + INTRA:         -34.447
REMARK INTER:                 -32.842
REMARK INTRA:                  -1.605
REMARK CONF_INDEPENDENT:        2.685
REMARK UNBOUND:                -1.605
REMARK  9 active torsions:
REMARK  status: ('A' for Active; 'I' for Inactive)
REMARK    1  A    between atoms: C_2  and  C_3 
REMARK    2  A    between atoms: C_3  and  C_4 
REMARK    3  A    between atoms: C_4  and  C_5 
REMARK    4  A    between atoms: C_5  and  C_7 
REMARK    5  A    between atoms: C_7  and  C_8 
REMARK    6  A    between atoms: C_8  and  C_9 
REMARK       I    between atoms: C_9  and  N_11 
REMARK    7  A    between atoms: N_11  and  C_12 
REMARK    8  A    between atoms: N_20  and  N_21 
REMARK       I    between atoms: N_21  and  C_22 
REMARK       I    between atoms: C_22  and  N_24 
REMARK    9  A    between atoms: N_24  and  N_25 
ROOT
ATOM      1  C   UNL d   1      27.360 -16.542  -0.705  0.00  0.00     0.132 C 
ATOM      2  O   UNL d   1      27.971 -16.020   0.234  0.00  0.00    -0.298 OA
ENDROOT
BRANCH   1   3
ATOM      3  C   UNL d   1      26.492 -17.795  -0.574  0.00  0.00     0.134 C 
BRANCH   3   4
ATOM      4  C   UNL d   1      24.926 -17.740  -0.265  0.00  0.00     0.039 C 
ATOM      5  N   UNL d   1      24.306 -18.888  -0.081  0.00  0.00    -0.179 NA
BRANCH   4   6
ATOM      6  C   UNL d   1      24.085 -16.448  -0.170  0.00  0.00     0.052 C 
ATOM      7  C   UNL d   1      23.005 -16.199  -1.149  0.00  0.00     0.011 C 
ENDBRANCH   4   6
BRANCH   5   8
ATOM      8  N   UNL d   1      22.924 -18.891   0.187  0.00  0.00    -0.228 N 
ATOM      9  C   UNL d   1      21.979 -19.099  -0.820  0.00  0.00     0.350 C 
ATOM     10  O   UNL d   1      22.237 -19.305  -2.004  0.00  0.00    -0.244 OA
ATOM     11  N   UNL d   1      20.648 -19.014  -0.364  0.00  0.00    -0.274 N 
ATOM     12  H   UNL d   1      20.420 -18.986   0.624  0.00  0.00     0.185 HD
ATOM     13  H   UNL d   1      22.591 -18.755   1.130  0.00  0.00     0.194 HD
BRANCH  11  14
ATOM     14  N   UNL d   1      19.581 -19.321  -1.267  0.00  0.00    -0.246 NA
ATOM     15  H   UNL d   1      19.990 -19.332  -2.214  0.00  0.00     0.143 HD
ATOM     16  H   UNL d   1      18.925 -18.536  -1.288  0.00  0.00     0.143 HD
ENDBRANCH  11  14
ENDBRANCH   5   8
ENDBRANCH   3   4
ENDBRANCH   1   3
BRANCH   1  17
ATOM     17  C   UNL d   1      27.611 -15.737  -1.924  0.00  0.00     0.088 C 
BRANCH  17  18
ATOM     18  C   UNL d   1      26.197 -15.657  -2.667  0.00  0.00     0.110 C 
BRANCH  18  19
ATOM     19  C   UNL d   1      26.343 -14.996  -3.978  0.00  0.00     0.222 C 
ATOM     20  O   UNL d   1      25.522 -15.237  -4.861  0.00  0.00    -0.273 OA
ATOM     21  N   UNL d   1      27.419 -14.124  -4.085  0.00  0.00    -0.326 N 
ATOM     22  H   UNL d   1      28.229 -14.243  -3.489  0.00  0.00     0.169 HD
BRANCH  21  23
ATOM     23  C   UNL d   1      27.541 -13.339  -5.253  0.00  0.00     0.046 A 
ATOM     24  C   UNL d   1      28.341 -13.816  -6.317  0.00  0.00    -0.035 A 
ATOM     25  C   UNL d   1      28.957 -15.195  -6.350  0.00  0.00     0.050 C 
ATOM     26  C   UNL d   1      28.572 -12.991  -7.421  0.00  0.00     0.009 A 
ATOM     27  C   UNL d   1      27.999 -11.728  -7.495  0.00  0.00     0.001 A 
ATOM     28  C   UNL d   1      27.170 -11.280  -6.470  0.00  0.00     0.009 A 
ATOM     29  C   UNL d   1      26.912 -12.080  -5.343  0.00  0.00    -0.035 A 
ATOM     30  C   UNL d   1      26.051 -11.503  -4.254  0.00  0.00     0.050 C 
ENDBRANCH  21  23
ENDBRANCH  18  19
ENDBRANCH  17  18
ENDBRANCH   1  17
TORSDOF 9
ENDMDL
MODEL 2
REMARK VINA RESULT:   -30.048      1.882      3.423
REMARK INTER + INTRA:         -35.165
REMARK INTER:                 -32.733
REMARK INTRA:                  -2.432
REMARK CONF_INDEPENDENT:        2.685
REMARK UNBOUND:                -2.432
REMARK  9 active torsions:
REMARK  status: ('A' for Active; 'I' for Inactive)
REMARK    1  A    between atoms: C_2  and  C_3 
REMARK    2  A    between atoms: C_3  and  C_4 
REMARK    3  A    between atoms: C_4  and  C_5 
REMARK    4  A    between atoms: C_5  and  C_7 
REMARK    5  A    between atoms: C_7  and  C_8 
REMARK    6  A    between atoms: C_8  and  C_9 
REMARK       I    between atoms: C_9  and  N_11 
REMARK    7  A    between atoms: N_11  and  C_12 
REMARK    8  A    between atoms: N_20  and  N_21 
REMARK       I    between atoms: N_21  and  C_22 
REMARK       I    between atoms: C_22  and  N_24 
REMARK    9  A    between atoms: N_24  and  N_25 
ROOT
ATOM      1  C   UNL d   1      25.932 -14.270  -2.008  0.00  0.00     0.132 C 
ATOM      2  O   UNL d   1      26.740 -13.357  -2.215  0.00  0.00    -0.298 OA
ENDROOT
BRANCH   1   3
ATOM      3  C   UNL d   1      25.912 -15.132  -0.745  0.00  0.00     0.134 C 
BRANCH   3   4
ATOM      4  C   UNL d   1      25.159 -16.538  -0.663  0.00  0.00     0.039 C 
ATOM      5  N   UNL d   1      23.844 -16.525  -0.750  0.00  0.00    -0.179 NA
BRANCH   4   6
ATOM      6  C   UNL d   1      25.851 -17.907  -0.487  0.00  0.00     0.052 C 
ATOM      7  C   UNL d   1      26.637 -18.182   0.736  0.00  0.00     0.011 C 
ENDBRANCH   4   6
BRANCH   5   8
ATOM      8  N   UNL d   1      23.135 -17.739  -0.676  0.00  0.00    -0.228 N 
ATOM      9  C   UNL d   1      21.758 -17.801  -0.897  0.00  0.00     0.350 C 
ATOM     10  O   UNL d   1      21.040 -16.846  -1.180  0.00  0.00    -0.244 OA
ATOM     11  N   UNL d   1      21.223 -19.094  -0.727  0.00  0.00    -0.274 N 
ATOM     12  H   UNL d   1      21.816 -19.913  -0.635  0.00  0.00     0.185 HD
ATOM     13  H   UNL d   1      23.624 -18.598  -0.474  0.00  0.00     0.194 HD
BRANCH  11  14
ATOM     14  N   UNL d   1      19.845 -19.325  -1.036  0.00  0.00    -0.246 NA
ATOM     15  H   UNL d   1      19.827 -19.931  -1.871  0.00  0.00     0.143 HD
ATOM     16  H   UNL d   1      19.423 -18.449  -1.356  0.00  0.00     0.143 HD
ENDBRANCH  11  14
ENDBRANCH   5   8
ENDBRANCH   3   4
ENDBRANCH   1   3
BRANCH   1  17
ATOM     17  C   UNL d   1      25.016 -14.346  -3.171  0.00  0.00     0.088 C 
BRANCH  17  18
ATOM     18  C   UNL d   1      25.859 -13.770  -4.402  0.00  0.00     0.110 C 
BRANCH  18  19
ATOM     19  C   UNL d   1      26.805 -14.789  -4.897  0.00  0.00     0.222 C 
ATOM     20  O   UNL d   1      26.434 -15.573  -5.769  0.00  0.00    -0.273 OA
ATOM     21  N   UNL d   1      28.070 -14.750  -4.326  0.00  0.00    -0.326 N 
ATOM     22  H   UNL d   1      28.197 -14.353  -3.403  0.00  0.00     0.169 HD
BRANCH  21  23
ATOM     23  C   UNL d   1      29.077 -15.591  -4.852  0.00  0.00     0.046 A 
ATOM     24  C   UNL d   1      29.472 -15.423  -6.199  0.00  0.00    -0.035 A 
ATOM     25  C   UNL d   1      28.996 -14.292  -7.078  0.00  0.00     0.050 C 
ATOM     26  C   UNL d   1      30.373 -16.331  -6.764  0.00  0.00     0.009 A 
ATOM     27  C   UNL d   1      30.901 -17.370  -6.008  0.00  0.00     0.001 A 
ATOM     28  C   UNL d   1      30.549 -17.503  -4.668  0.00  0.00     0.009 A 
ATOM     29  C   UNL d   1      29.649 -16.610  -4.062  0.00  0.00    -0.035 A 
ATOM     30  C   UNL d   1      29.276 -16.854  -2.626  0.00  0.00     0.050 C 
ENDBRANCH  21  23
ENDBRANCH  18  19
ENDBRANCH  17  18
ENDBRANCH   1  17
TORSDOF 9
ENDMDL
MODEL 3
REMARK VINA RESULT:   -30.023      4.341      6.709
REMARK INTER + INTRA:         -34.511
REMARK INTER:                 -32.708
REMARK INTRA:                  -1.803
REMARK CONF_INDEPENDENT:        2.685
REMARK UNBOUND:                -1.803
REMARK  9 active torsions:
REMARK  status: ('A' for Active; 'I' for Inactive)
REMARK    1  A    between atoms: C_2  and  C_3 
REMARK    2  A    between atoms: C_3  and  C_4 
REMARK    3  A    between atoms: C_4  and  C_5 
REMARK    4  A    between atoms: C_5  and  C_7 
REMARK    5  A    between atoms: C_7  and  C_8 
REMARK    6  A    between atoms: C_8  and  C_9 
REMARK       I    between atoms: C_9  and  N_11 
REMARK    7  A    between atoms: N_11  and  C_12 
REMARK    8  A    between atoms: N_20  and  N_21 
REMARK       I    between atoms: N_21  and  C_22 
REMARK       I    between atoms: C_22  and  N_24 
REMARK    9  A    between atoms: N_24  and  N_25 
ROOT
ATOM      1  C   UNL d   1      27.473 -16.617  -0.587  0.00  0.00     0.132 C 
ATOM      2  O   UNL d   1      28.079 -16.221  -1.589  0.00  0.00    -0.298 OA
ENDROOT
BRANCH   1   3
ATOM      3  C   UNL d   1      26.529 -17.820  -0.571  0.00  0.00     0.134 C 
BRANCH   3   4
ATOM      4  C   UNL d   1      24.956 -17.688  -0.333  0.00  0.00     0.039 C 
ATOM      5  N   UNL d   1      24.309 -18.772   0.047  0.00  0.00    -0.179 NA
BRANCH   4   6
ATOM      6  C   UNL d   1      24.136 -16.393  -0.517  0.00  0.00     0.052 C 
ATOM      7  C   UNL d   1      24.292 -15.591  -1.750  0.00  0.00     0.011 C 
ENDBRANCH   4   6
BRANCH   5   8
ATOM      8  N   UNL d   1      22.920 -18.707   0.263  0.00  0.00    -0.228 N 
ATOM      9  C   UNL d   1      22.004 -18.980  -0.754  0.00  0.00     0.350 C 
ATOM     10  O   UNL d   1      22.294 -19.303  -1.903  0.00  0.00    -0.244 OA
ATOM     11  N   UNL d   1      20.661 -18.811  -0.358  0.00  0.00    -0.274 N 
ATOM     12  H   UNL d   1      20.401 -18.684   0.615  0.00  0.00     0.185 HD
ATOM     13  H   UNL d   1      22.560 -18.473   1.176  0.00  0.00     0.194 HD
BRANCH  11  14
ATOM     14  N   UNL d   1      19.616 -19.169  -1.267  0.00  0.00    -0.246 NA
ATOM     15  H   UNL d   1      20.073 -19.570  -2.100  0.00  0.00     0.143 HD
ATOM     16  H   UNL d   1      19.169 -18.316  -1.614  0.00  0.00     0.143 HD
ENDBRANCH  11  14
ENDBRANCH   5   8
ENDBRANCH   3   4
ENDBRANCH   1   3
BRANCH   1  17
ATOM     17  C   UNL d   1      27.841 -15.740   0.550  0.00  0.00     0.088 C 
BRANCH  17  18
ATOM     18  C   UNL d   1      27.161 -14.330   0.224  0.00  0.00     0.110 C 
BRANCH  18  19
ATOM     19  C   UNL d   1      26.957 -13.559   1.467  0.00  0.00     0.222 C 
ATOM     20  O   UNL d   1      25.829 -13.149   1.735  0.00  0.00    -0.273 OA
ATOM     21  N   UNL d   1      28.092 -13.383   2.247  0.00  0.00    -0.326 N 
ATOM     22  H   UNL d   1      29.011 -13.415   1.821  0.00  0.00     0.169 HD
BRANCH  21  23
ATOM     23  C   UNL d   1      27.953 -12.790   3.522  0.00  0.00     0.046 A 
ATOM     24  C   UNL d   1      27.788 -11.388   3.609  0.00  0.00    -0.035 A 
ATOM     25  C   UNL d   1      27.593 -10.490   2.410  0.00  0.00     0.050 C 
ATOM     26  C   UNL d   1      27.778 -10.778   4.866  0.00  0.00     0.009 A 
ATOM     27  C   UNL d   1      27.897 -11.537   6.023  0.00  0.00     0.001 A 
ATOM     28  C   UNL d   1      28.009 -12.922   5.937  0.00  0.00     0.009 A 
ATOM     29  C   UNL d   1      28.021 -13.574   4.692  0.00  0.00    -0.035 A 
ATOM     30  C   UNL d   1      28.201 -15.066   4.681  0.00  0.00     0.050 C 
ENDBRANCH  21  23
ENDBRANCH  18  19
ENDBRANCH  17  18
ENDBRANCH   1  17
TORSDOF 9
ENDMDL
MODEL 4
REMARK VINA RESULT:   -29.814      1.130      1.898
REMARK INTER + INTRA:         -34.831
REMARK INTER:                 -32.499
REMARK INTRA:                  -2.332
REMARK CONF_INDEPENDENT:        2.685
REMARK UNBOUND:                -2.332
REMARK  9 active torsions:
REMARK  status: ('A' for Active; 'I' for Inactive)
REMARK    1  A    between atoms: C_2  and  C_3 
REMARK    2  A    between atoms: C_3  and  C_4 
REMARK    3  A    between atoms: C_4  and  C_5 
REMARK    4  A    between atoms: C_5  and  C_7 
REMARK    5  A    between atoms: C_7  and  C_8 
REMARK    6  A    between atoms: C_8  and  C_9 
REMARK       I    between atoms: C_9  and  N_11 
REMARK    7  A    between atoms: N_11  and  C_12 
REMARK    8  A    between atoms: N_20  and  N_21 
REMARK       I    between atoms: N_21  and  C_22 
REMARK       I    between atoms: C_22  and  N_24 
REMARK    9  A    between atoms: N_24  and  N_25 
ROOT
ATOM      1  C   UNL d   1      27.282 -16.576  -0.966  0.00  0.00     0.132 C 
ATOM      2  O   UNL d   1      28.492 -16.583  -1.222  0.00  0.00    -0.298 OA
ENDROOT
BRANCH   1   3
ATOM      3  C   UNL d   1      26.473 -17.823  -0.604  0.00  0.00     0.134 C 
BRANCH   3   4
ATOM      4  C   UNL d   1      24.910 -17.781  -0.282  0.00  0.00     0.039 C 
ATOM      5  N   UNL d   1      24.298 -18.935  -0.108  0.00  0.00    -0.179 NA
BRANCH   4   6
ATOM      6  C   UNL d   1      24.062 -16.496  -0.162  0.00  0.00     0.052 C 
ATOM      7  C   UNL d   1      23.077 -16.163  -1.214  0.00  0.00     0.011 C 
ENDBRANCH   4   6
BRANCH   5   8
ATOM      8  N   UNL d   1      22.918 -18.950   0.171  0.00  0.00    -0.228 N 
ATOM      9  C   UNL d   1      21.966 -19.119  -0.835  0.00  0.00     0.350 C 
ATOM     10  O   UNL d   1      22.213 -19.276  -2.028  0.00  0.00    -0.244 OA
ATOM     11  N   UNL d   1      20.638 -19.054  -0.365  0.00  0.00    -0.274 N 
ATOM     12  H   UNL d   1      20.419 -19.066   0.626  0.00  0.00     0.185 HD
ATOM     13  H   UNL d   1      22.594 -18.853   1.122  0.00  0.00     0.194 HD
BRANCH  11  14
ATOM     14  N   UNL d   1      19.564 -19.325  -1.270  0.00  0.00    -0.246 NA
ATOM     15  H   UNL d   1      19.993 -19.664  -2.145  0.00  0.00     0.143 HD
ATOM     16  H   UNL d   1      19.120 -18.442  -1.536  0.00  0.00     0.143 HD
ENDBRANCH  11  14
ENDBRANCH   5   8
ENDBRANCH   3   4
ENDBRANCH   1   3
BRANCH   1  17
ATOM     17  C   UNL d   1      26.799 -15.178  -1.060  0.00  0.00     0.088 C 
BRANCH  17  18
ATOM     18  C   UNL d   1      25.800 -15.167  -2.308  0.00  0.00     0.110 C 
BRANCH  18  19
ATOM     19  C   UNL d   1      26.545 -15.386  -3.563  0.00  0.00     0.222 C 
ATOM     20  O   UNL d   1      25.940 -15.800  -4.551  0.00  0.00    -0.273 OA
ATOM     21  N   UNL d   1      27.897 -15.076  -3.511  0.00  0.00    -0.326 N 
ATOM     22  H   UNL d   1      28.388 -15.096  -2.625  0.00  0.00     0.169 HD
BRANCH  21  23
ATOM     23  C   UNL d   1      28.648 -15.113  -4.708  0.00  0.00     0.046 A 
ATOM     24  C   UNL d   1      29.557 -16.176  -4.911  0.00  0.00    -0.035 A 
ATOM     25  C   UNL d   1      29.670 -17.371  -3.995  0.00  0.00     0.050 C 
ATOM     26  C   UNL d   1      30.396 -16.153  -6.030  0.00  0.00     0.009 A 
ATOM     27  C   UNL d   1      30.320 -15.117  -6.951  0.00  0.00     0.001 A 
ATOM     28  C   UNL d   1      29.389 -14.097  -6.776  0.00  0.00     0.009 A 
ATOM     29  C   UNL d   1      28.526 -14.085  -5.666  0.00  0.00    -0.035 A 
ATOM     30  C   UNL d   1      27.587 -12.920  -5.518  0.00  0.00     0.050 C 
ENDBRANCH  21  23
ENDBRANCH  18  19
ENDBRANCH  17  18
ENDBRANCH   1  17
TORSDOF 9
ENDMDL
MODEL 5
REMARK VINA RESULT:   -29.794      0.627      1.876
REMARK INTER + INTRA:         -34.207
REMARK INTER:                 -32.478
REMARK INTRA:                  -1.728
REMARK CONF_INDEPENDENT:        2.685
REMARK UNBOUND:                -1.728
REMARK  9 active torsions:
REMARK  status: ('A' for Active; 'I' for Inactive)
REMARK    1  A    between atoms: C_2  and  C_3 
REMARK    2  A    between atoms: C_3  and  C_4 
REMARK    3  A    between atoms: C_4  and  C_5 
REMARK    4  A    between atoms: C_5  and  C_7 
REMARK    5  A    between atoms: C_7  and  C_8 
REMARK    6  A    between atoms: C_8  and  C_9 
REMARK       I    between atoms: C_9  and  N_11 
REMARK    7  A    between atoms: N_11  and  C_12 
REMARK    8  A    between atoms: N_20  and  N_21 
REMARK       I    between atoms: N_21  and  C_22 
REMARK       I    between atoms: C_22  and  N_24 
REMARK    9  A    between atoms: N_24  and  N_25 
ROOT
ATOM      1  C   UNL d   1      27.480 -16.341  -0.516  0.00  0.00     0.132 C 
ATOM      2  O   UNL d   1      28.322 -16.005   0.323  0.00  0.00    -0.298 OA
ENDROOT
BRANCH   1   3
ATOM      3  C   UNL d   1      26.681 -17.644  -0.460  0.00  0.00     0.134 C 
BRANCH   3   4
ATOM      4  C   UNL d   1      25.105 -17.688  -0.204  0.00  0.00     0.039 C 
ATOM      5  N   UNL d   1      24.574 -18.855   0.096  0.00  0.00    -0.179 NA
BRANCH   4   6
ATOM      6  C   UNL d   1      24.158 -16.470  -0.286  0.00  0.00     0.052 C 
ATOM      7  C   UNL d   1      23.765 -15.930  -1.605  0.00  0.00     0.011 C 
ENDBRANCH   4   6
BRANCH   5   8
ATOM      8  N   UNL d   1      23.187 -18.945   0.322  0.00  0.00    -0.228 N 
ATOM      9  C   UNL d   1      22.274 -19.037  -0.730  0.00  0.00     0.350 C 
ATOM     10  O   UNL d   1      22.565 -19.058  -1.923  0.00  0.00    -0.244 OA
ATOM     11  N   UNL d   1      20.931 -19.066  -0.304  0.00  0.00    -0.274 N 
ATOM     12  H   UNL d   1      20.680 -19.191   0.672  0.00  0.00     0.185 HD
ATOM     13  H   UNL d   1      22.829 -18.961   1.265  0.00  0.00     0.194 HD
BRANCH  11  14
ATOM     14  N   UNL d   1      19.897 -19.275  -1.270  0.00  0.00    -0.246 NA
ATOM     15  H   UNL d   1      20.362 -19.357  -2.187  0.00  0.00     0.143 HD
ATOM     16  H   UNL d   1      19.338 -18.421  -1.351  0.00  0.00     0.143 HD
ENDBRANCH  11  14
ENDBRANCH   5   8
ENDBRANCH   3   4
ENDBRANCH   1   3
BRANCH   1  17
ATOM     17  C   UNL d   1      27.390 -15.267  -1.534  0.00  0.00     0.088 C 
BRANCH  17  18
ATOM     18  C   UNL d   1      26.598 -15.922  -2.759  0.00  0.00     0.110 C 
BRANCH  18  19
ATOM     19  C   UNL d   1      26.320 -14.905  -3.792  0.00  0.00     0.222 C 
ATOM     20  O   UNL d   1      25.204 -14.871  -4.309  0.00  0.00    -0.273 OA
ATOM     21  N   UNL d   1      27.372 -14.045  -4.076  0.00  0.00    -0.326 N 
ATOM     22  H   UNL d   1      28.327 -14.338  -3.903  0.00  0.00     0.169 HD
BRANCH  21  23
ATOM     23  C   UNL d   1      27.140 -12.952  -4.940  0.00  0.00     0.046 A 
ATOM     24  C   UNL d   1      26.242 -11.938  -4.533  0.00  0.00    -0.035 A 
ATOM     25  C   UNL d   1      25.626 -11.866  -3.156  0.00  0.00     0.050 C 
ATOM     26  C   UNL d   1      25.908 -10.921  -5.432  0.00  0.00     0.009 A 
ATOM     27  C   UNL d   1      26.471 -10.882  -6.701  0.00  0.00     0.001 A 
ATOM     28  C   UNL d   1      27.394 -11.853  -7.082  0.00  0.00     0.009 A 
ATOM     29  C   UNL d   1      27.758 -12.891  -6.207  0.00  0.00    -0.035 A 
ATOM     30  C   UNL d   1      28.717 -13.932  -6.712  0.00  0.00     0.050 C 
ENDBRANCH  21  23
ENDBRANCH  18  19
ENDBRANCH  17  18
ENDBRANCH   1  17
TORSDOF 9
ENDMDL
MODEL 6
REMARK VINA RESULT:   -29.688      1.173      2.469
REMARK INTER + INTRA:         -34.534
REMARK INTER:                 -32.373
REMARK INTRA:                  -2.161
REMARK CONF_INDEPENDENT:        2.685
REMARK UNBOUND:                -2.161
REMARK  9 active torsions:
REMARK  status: ('A' for Active; 'I' for Inactive)
REMARK    1  A    between atoms: C_2  and  C_3 
REMARK    2  A    between atoms: C_3  and  C_4 
REMARK    3  A    between atoms: C_4  and  C_5 
REMARK    4  A    between atoms: C_5  and  C_7 
REMARK    5  A    between atoms: C_7  and  C_8 
REMARK    6  A    between atoms: C_8  and  C_9 
REMARK       I    between atoms: C_9  and  N_11 
REMARK    7  A    between atoms: N_11  and  C_12 
REMARK    8  A    between atoms: N_20  and  N_21 
REMARK       I    between atoms: N_21  and  C_22 
REMARK       I    between atoms: C_22  and  N_24 
REMARK    9  A    between atoms: N_24  and  N_25 
ROOT
ATOM      1  C   UNL d   1      27.428 -16.763  -0.881  0.00  0.00     0.132 C 
ATOM      2  O   UNL d   1      28.610 -16.823  -1.237  0.00  0.00    -0.298 OA
ENDROOT
BRANCH   1   3
ATOM      3  C   UNL d   1      26.539 -17.985  -0.640  0.00  0.00     0.134 C 
BRANCH   3   4
ATOM      4  C   UNL d   1      24.981 -17.874  -0.308  0.00  0.00     0.039 C 
ATOM      5  N   UNL d   1      24.324 -18.999  -0.111  0.00  0.00    -0.179 NA
BRANCH   4   6
ATOM      6  C   UNL d   1      24.187 -16.554  -0.205  0.00  0.00     0.052 C 
ATOM      7  C   UNL d   1      23.101 -16.270  -1.167  0.00  0.00     0.011 C 
ENDBRANCH   4   6
BRANCH   5   8
ATOM      8  N   UNL d   1      22.947 -18.953   0.177  0.00  0.00    -0.228 N 
ATOM      9  C   UNL d   1      21.981 -19.081  -0.822  0.00  0.00     0.350 C 
ATOM     10  O   UNL d   1      22.214 -19.250  -2.017  0.00  0.00    -0.244 OA
ATOM     11  N   UNL d   1      20.661 -18.957  -0.344  0.00  0.00    -0.274 N 
ATOM     12  H   UNL d   1      20.448 -18.959   0.648  0.00  0.00     0.185 HD
ATOM     13  H   UNL d   1      22.633 -18.842   1.130  0.00  0.00     0.194 HD
BRANCH  11  14
ATOM     14  N   UNL d   1      19.570 -19.181  -1.241  0.00  0.00    -0.246 NA
ATOM     15  H   UNL d   1      19.961 -19.657  -2.069  0.00  0.00     0.143 HD
ATOM     16  H   UNL d   1      19.244 -18.281  -1.603  0.00  0.00     0.143 HD
ENDBRANCH  11  14
ENDBRANCH   5   8
ENDBRANCH   3   4
ENDBRANCH   1   3
BRANCH   1  17
ATOM     17  C   UNL d   1      27.066 -15.334  -0.726  0.00  0.00     0.088 C 
BRANCH  17  18
ATOM     18  C   UNL d   1      26.052 -15.031  -1.924  0.00  0.00     0.110 C 
BRANCH  18  19
ATOM     19  C   UNL d   1      26.695 -15.308  -3.223  0.00  0.00     0.222 C 
ATOM     20  O   UNL d   1      26.002 -15.701  -4.160  0.00  0.00    -0.273 OA
ATOM     21  N   UNL d   1      28.063 -15.071  -3.269  0.00  0.00    -0.326 N 
ATOM     22  H   UNL d   1      28.612 -15.106  -2.418  0.00  0.00     0.169 HD
BRANCH  21  23
ATOM     23  C   UNL d   1      28.725 -15.166  -4.513  0.00  0.00     0.046 A 
ATOM     24  C   UNL d   1      28.411 -14.232  -5.528  0.00  0.00    -0.035 A 
ATOM     25  C   UNL d   1      27.518 -13.033  -5.316  0.00  0.00     0.050 C 
ATOM     26  C   UNL d   1      28.965 -14.395  -6.801  0.00  0.00     0.009 A 
ATOM     27  C   UNL d   1      29.839 -15.442  -7.066  0.00  0.00     0.001 A 
ATOM     28  C   UNL d   1      30.186 -16.330  -6.052  0.00  0.00     0.009 A 
ATOM     29  C   UNL d   1      29.653 -16.200  -4.758  0.00  0.00    -0.035 A 
ATOM     30  C   UNL d   1      30.033 -17.232  -3.734  0.00  0.00     0.050 C 
ENDBRANCH  21  23
ENDBRANCH  18  19
ENDBRANCH  17  18
ENDBRANCH   1  17
TORSDOF 9
ENDMDL
MODEL 7
REMARK VINA RESULT:   -29.381      1.894      2.374
REMARK INTER + INTRA:         -34.631
REMARK INTER:                 -32.066
REMARK INTRA:                  -2.565
REMARK CONF_INDEPENDENT:        2.685
REMARK UNBOUND:                -2.565
REMARK  9 active torsions:
REMARK  status: ('A' for Active; 'I' for Inactive)
REMARK    1  A    between atoms: C_2  and  C_3 
REMARK    2  A    between atoms: C_3  and  C_4 
REMARK    3  A    between atoms: C_4  and  C_5 
REMARK    4  A    between atoms: C_5  and  C_7 
REMARK    5  A    between atoms: C_7  and  C_8 
REMARK    6  A    between atoms: C_8  and  C_9 
REMARK       I    between atoms: C_9  and  N_11 
REMARK    7  A    between atoms: N_11  and  C_12 
REMARK    8  A    between atoms: N_20  and  N_21 
REMARK       I    between atoms: N_21  and  C_22 
REMARK       I    between atoms: C_22  and  N_24 
REMARK    9  A    between atoms: N_24  and  N_25 
ROOT
ATOM      1  C   UNL d   1      27.693 -17.053   0.027  0.00  0.00     0.132 C 
ATOM      2  O   UNL d   1      28.471 -17.416  -0.862  0.00  0.00    -0.298 OA
ENDROOT
BRANCH   1   3
ATOM      3  C   UNL d   1      26.473 -17.856   0.481  0.00  0.00     0.134 C 
BRANCH   3   4
ATOM      4  C   UNL d   1      25.137 -17.974  -0.386  0.00  0.00     0.039 C 
ATOM      5  N   UNL d   1      24.347 -19.000  -0.142  0.00  0.00    -0.179 NA
BRANCH   4   6
ATOM      6  C   UNL d   1      24.703 -16.982  -1.487  0.00  0.00     0.052 C 
ATOM      7  C   UNL d   1      23.630 -16.002  -1.216  0.00  0.00     0.011 C 
ENDBRANCH   4   6
BRANCH   5   8
ATOM      8  N   UNL d   1      23.161 -19.150  -0.886  0.00  0.00    -0.228 N 
ATOM      9  C   UNL d   1      21.918 -18.777  -0.372  0.00  0.00     0.350 C 
ATOM     10  O   UNL d   1      21.726 -18.286   0.737  0.00  0.00    -0.244 OA
ATOM     11  N   UNL d   1      20.846 -19.053  -1.246  0.00  0.00    -0.274 N 
ATOM     12  H   UNL d   1      20.998 -19.324  -2.212  0.00  0.00     0.185 HD
ATOM     13  H   UNL d   1      23.196 -19.522  -1.823  0.00  0.00     0.194 HD
BRANCH  11  14
ATOM     14  N   UNL d   1      19.530 -18.616  -0.895  0.00  0.00    -0.246 NA
ATOM     15  H   UNL d   1      19.411 -17.677  -1.307  0.00  0.00     0.143 HD
ATOM     16  H   UNL d   1      19.491 -18.452   0.115  0.00  0.00     0.143 HD
ENDBRANCH  11  14
ENDBRANCH   5   8
ENDBRANCH   3   4
ENDBRANCH   1   3
BRANCH   1  17
ATOM     17  C   UNL d   1      28.167 -15.751   0.552  0.00  0.00     0.088 C 
BRANCH  17  18
ATOM     18  C   UNL d   1      27.062 -14.691   0.091  0.00  0.00     0.110 C 
BRANCH  18  19
ATOM     19  C   UNL d   1      27.229 -14.364  -1.339  0.00  0.00     0.222 C 
ATOM     20  O   UNL d   1      27.314 -13.183  -1.674  0.00  0.00    -0.273 OA
ATOM     21  N   UNL d   1      27.296 -15.457  -2.193  0.00  0.00    -0.326 N 
ATOM     22  H   UNL d   1      26.870 -16.336  -1.925  0.00  0.00     0.169 HD
BRANCH  21  23
ATOM     23  C   UNL d   1      27.607 -15.236  -3.553  0.00  0.00     0.046 A 
ATOM     24  C   UNL d   1      28.913 -15.525  -4.011  0.00  0.00    -0.035 A 
ATOM     25  C   UNL d   1      29.966 -16.207  -3.170  0.00  0.00     0.050 C 
ATOM     26  C   UNL d   1      29.267 -15.190  -5.321  0.00  0.00     0.009 A 
ATOM     27  C   UNL d   1      28.343 -14.607  -6.179  0.00  0.00     0.001 A 
ATOM     28  C   UNL d   1      27.043 -14.370  -5.741  0.00  0.00     0.009 A 
ATOM     29  C   UNL d   1      26.646 -14.694  -4.432  0.00  0.00    -0.035 A 
ATOM     30  C   UNL d   1      25.242 -14.356  -4.019  0.00  0.00     0.050 C 
ENDBRANCH  21  23
ENDBRANCH  18  19
ENDBRANCH  17  18
ENDBRANCH   1  17
TORSDOF 9
ENDMDL
MODEL 8
REMARK VINA RESULT:   -29.320      1.804      2.345
REMARK INTER + INTRA:         -34.689
REMARK INTER:                 -32.004
REMARK INTRA:                  -2.685
REMARK CONF_INDEPENDENT:        2.685
REMARK UNBOUND:                -2.685
REMARK  9 active torsions:
REMARK  status: ('A' for Active; 'I' for Inactive)
REMARK    1  A    between atoms: C_2  and  C_3 
REMARK    2  A    between atoms: C_3  and  C_4 
REMARK    3  A    between atoms: C_4  and  C_5 
REMARK    4  A    between atoms: C_5  and  C_7 
REMARK    5  A    between atoms: C_7  and  C_8 
REMARK    6  A    between atoms: C_8  and  C_9 
REMARK       I    between atoms: C_9  and  N_11 
REMARK    7  A    between atoms: N_11  and  C_12 
REMARK    8  A    between atoms: N_20  and  N_21 
REMARK       I    between atoms: N_21  and  C_22 
REMARK       I    between atoms: C_22  and  N_24 
REMARK    9  A    between atoms: N_24  and  N_25 
ROOT
ATOM      1  C   UNL d   1      27.594 -16.755  -0.230  0.00  0.00     0.132 C 
ATOM      2  O   UNL d   1      27.291 -15.729   0.388  0.00  0.00    -0.298 OA
ENDROOT
BRANCH   1   3
ATOM      3  C   UNL d   1      26.595 -17.840  -0.639  0.00  0.00     0.134 C 
BRANCH   3   4
ATOM      4  C   UNL d   1      25.022 -17.710  -0.394  0.00  0.00     0.039 C 
ATOM      5  N   UNL d   1      24.389 -18.778   0.047  0.00  0.00    -0.179 NA
BRANCH   4   6
ATOM      6  C   UNL d   1      24.189 -16.433  -0.638  0.00  0.00     0.052 C 
ATOM      7  C   UNL d   1      24.304 -15.713  -1.924  0.00  0.00     0.011 C 
ENDBRANCH   4   6
BRANCH   5   8
ATOM      8  N   UNL d   1      23.001 -18.714   0.271  0.00  0.00    -0.228 N 
ATOM      9  C   UNL d   1      22.079 -18.957  -0.749  0.00  0.00     0.350 C 
ATOM     10  O   UNL d   1      22.363 -19.251  -1.908  0.00  0.00    -0.244 OA
ATOM     11  N   UNL d   1      20.739 -18.795  -0.342  0.00  0.00    -0.274 N 
ATOM     12  H   UNL d   1      20.484 -18.693   0.634  0.00  0.00     0.185 HD
ATOM     13  H   UNL d   1      22.646 -18.504   1.192  0.00  0.00     0.194 HD
BRANCH  11  14
ATOM     14  N   UNL d   1      19.689 -19.125  -1.255  0.00  0.00    -0.246 NA
ATOM     15  H   UNL d   1      20.136 -19.568  -2.073  0.00  0.00     0.143 HD
ATOM     16  H   UNL d   1      19.288 -18.261  -1.630  0.00  0.00     0.143 HD
ENDBRANCH  11  14
ENDBRANCH   5   8
ENDBRANCH   3   4
ENDBRANCH   1   3
BRANCH   1  17
ATOM     17  C   UNL d   1      29.051 -16.719  -0.498  0.00  0.00     0.088 C 
BRANCH  17  18
ATOM     18  C   UNL d   1      29.178 -16.631  -2.090  0.00  0.00     0.110 C 
BRANCH  18  19
ATOM     19  C   UNL d   1      28.701 -15.320  -2.571  0.00  0.00     0.222 C 
ATOM     20  O   UNL d   1      29.511 -14.536  -3.065  0.00  0.00    -0.273 OA
ATOM     21  N   UNL d   1      27.338 -15.098  -2.432  0.00  0.00    -0.326 N 
ATOM     22  H   UNL d   1      26.814 -15.593  -1.720  0.00  0.00     0.169 HD
BRANCH  21  23
ATOM     23  C   UNL d   1      26.779 -13.933  -3.004  0.00  0.00     0.046 A 
ATOM     24  C   UNL d   1      26.411 -13.951  -4.369  0.00  0.00    -0.035 A 
ATOM     25  C   UNL d   1      26.430 -15.195  -5.227  0.00  0.00     0.050 C 
ATOM     26  C   UNL d   1      25.978 -12.769  -4.976  0.00  0.00     0.009 A 
ATOM     27  C   UNL d   1      25.880 -11.592  -4.245  0.00  0.00     0.001 A 
ATOM     28  C   UNL d   1      26.195 -11.587  -2.889  0.00  0.00     0.009 A 
ATOM     29  C   UNL d   1      26.632 -12.756  -2.241  0.00  0.00    -0.035 A 
ATOM     30  C   UNL d   1      27.006 -12.656  -0.789  0.00  0.00     0.050 C 
ENDBRANCH  21  23
ENDBRANCH  18  19
ENDBRANCH  17  18
ENDBRANCH   1  17
TORSDOF 9
ENDMDL
MODEL 9
REMARK VINA RESULT:   -29.171      2.137      2.876
REMARK INTER + INTRA:         -34.733
REMARK INTER:                 -31.856
REMARK INTRA:                  -2.877
REMARK CONF_INDEPENDENT:        2.685
REMARK UNBOUND:                -2.877
REMARK  9 active torsions:
REMARK  status: ('A' for Active; 'I' for Inactive)
REMARK    1  A    between atoms: C_2  and  C_3 
REMARK    2  A    between atoms: C_3  and  C_4 
REMARK    3  A    between atoms: C_4  and  C_5 
REMARK    4  A    between atoms: C_5  and  C_7 
REMARK    5  A    between atoms: C_7  and  C_8 
REMARK    6  A    between atoms: C_8  and  C_9 
REMARK       I    between atoms: C_9  and  N_11 
REMARK    7  A    between atoms: N_11  and  C_12 
REMARK    8  A    between atoms: N_20  and  N_21 
REMARK       I    between atoms: N_21  and  C_22 
REMARK       I    between atoms: C_22  and  N_24 
REMARK    9  A    between atoms: N_24  and  N_25 
ROOT
ATOM      1  C   UNL d   1      27.608 -16.697   0.286  0.00  0.00     0.132 C 
ATOM      2  O   UNL d   1      27.374 -15.533   0.629  0.00  0.00    -0.298 OA
ENDROOT
BRANCH   1   3
ATOM      3  C   UNL d   1      26.616 -17.852   0.430  0.00  0.00     0.134 C 
BRANCH   3   4
ATOM      4  C   UNL d   1      25.301 -17.985  -0.466  0.00  0.00     0.039 C 
ATOM      5  N   UNL d   1      24.431 -18.914  -0.127  0.00  0.00    -0.179 NA
BRANCH   4   6
ATOM      6  C   UNL d   1      24.974 -17.113  -1.699  0.00  0.00     0.052 C 
ATOM      7  C   UNL d   1      24.092 -15.936  -1.555  0.00  0.00     0.011 C 
ENDBRANCH   4   6
BRANCH   5   8
ATOM      8  N   UNL d   1      23.259 -19.075  -0.892  0.00  0.00    -0.228 N 
ATOM      9  C   UNL d   1      21.994 -18.806  -0.365  0.00  0.00     0.350 C 
ATOM     10  O   UNL d   1      21.770 -18.406   0.774  0.00  0.00    -0.244 OA
ATOM     11  N   UNL d   1      20.945 -19.076  -1.267  0.00  0.00    -0.274 N 
ATOM     12  H   UNL d   1      21.117 -19.269  -2.248  0.00  0.00     0.185 HD
ATOM     13  H   UNL d   1      23.320 -19.377  -1.853  0.00  0.00     0.194 HD
BRANCH  11  14
ATOM     14  N   UNL d   1      19.605 -18.736  -0.899  0.00  0.00    -0.246 NA
ATOM     15  H   UNL d   1      19.421 -17.798  -1.286  0.00  0.00     0.143 HD
ATOM     16  H   UNL d   1      19.561 -18.599   0.115  0.00  0.00     0.143 HD
ENDBRANCH  11  14
ENDBRANCH   5   8
ENDBRANCH   3   4
ENDBRANCH   1   3
BRANCH   1  17
ATOM     17  C   UNL d   1      28.977 -16.743  -0.282  0.00  0.00     0.088 C 
BRANCH  17  18
ATOM     18  C   UNL d   1      28.766 -16.850  -1.863  0.00  0.00     0.110 C 
BRANCH  18  19
ATOM     19  C   UNL d   1      28.443 -15.525  -2.428  0.00  0.00     0.222 C 
ATOM     20  O   UNL d   1      29.302 -14.926  -3.073  0.00  0.00    -0.273 OA
ATOM     21  N   UNL d   1      27.151 -15.077  -2.185  0.00  0.00    -0.326 N 
ATOM     22  H   UNL d   1      26.639 -15.419  -1.381  0.00  0.00     0.169 HD
BRANCH  21  23
ATOM     23  C   UNL d   1      26.715 -13.891  -2.817  0.00  0.00     0.046 A 
ATOM     24  C   UNL d   1      26.853 -12.661  -2.133  0.00  0.00    -0.035 A 
ATOM     25  C   UNL d   1      27.584 -12.509  -0.820  0.00  0.00     0.050 C 
ATOM     26  C   UNL d   1      26.309 -11.503  -2.695  0.00  0.00     0.009 A 
ATOM     27  C   UNL d   1      25.666 -11.545  -3.925  0.00  0.00     0.001 A 
ATOM     28  C   UNL d   1      25.576 -12.748  -4.621  0.00  0.00     0.009 A 
ATOM     29  C   UNL d   1      26.112 -13.935  -4.091  0.00  0.00    -0.035 A 
ATOM     30  C   UNL d   1      25.925 -15.202  -4.877  0.00  0.00     0.050 C 
ENDBRANCH  21  23
ENDBRANCH  18  19
ENDBRANCH  17  18
ENDBRANCH   1  17
TORSDOF 9
ENDMDL
