MODEL 1
REMARK VINA RESULT:    -9.244      0.000      0.000
REMARK INTER + INTRA:         -13.359
REMARK INTER:                 -11.332
REMARK INTRA:                  -2.027
REMARK CONF_INDEPENDENT:        2.088
REMARK UNBOUND:                -2.027
REMARK  7 active torsions:
REMARK  status: ('A' for Active; 'I' for Inactive)
REMARK    1  A    between atoms: C_12  and  N_13 
REMARK       I    between atoms: N_13  and  C_14 
REMARK    2  A    between atoms: C_14  and  C_16 
REMARK    3  A    between atoms: C_16  and  S_17 
REMARK    4  A    between atoms: S_17  and  C_18 
REMARK    5  A    between atoms: C_21  and  C_22 
REMARK    6  A    between atoms: C_22  and  C_23 
REMARK    7  A    between atoms: N_28  and  C_29 
ROOT
ATOM      1  C   UNL d   1      29.768 -17.082  -2.396  0.00  0.00     0.180 C 
ENDROOT
BRANCH   1   2
ATOM      2  C   UNL d   1      29.296 -16.612  -3.780  0.00  0.00     0.229 C 
ATOM      3  N   UNL d   1      28.194 -15.781  -3.800  0.00  0.00    -0.330 N 
ATOM      4  H   UNL d   1      27.745 -15.439  -2.963  0.00  0.00     0.165 HD
ATOM      5  O   UNL d   1      29.820 -16.991  -4.825  0.00  0.00    -0.273 OA
BRANCH   3   6
ATOM      6  C   UNL d   1      27.661 -15.391  -5.079  0.00  0.00     0.264 A 
ATOM      7  O   UNL d   1      28.782 -15.073  -5.928  0.00  0.00    -0.353 OA
ATOM      8  C   UNL d   1      28.643 -13.720  -6.424  0.00  0.00     0.152 A 
ATOM      9  C   UNL d   1      27.407 -13.202  -5.781  0.00  0.00    -0.017 A 
ATOM     10  C   UNL d   1      29.912 -12.978  -6.032  0.00  0.00     0.044 C 
ATOM     11  C   UNL d   1      26.883 -14.151  -5.012  0.00  0.00     0.066 A 
ATOM     12  C   UNL d   1      26.804 -11.859  -5.974  0.00  0.00     0.105 A 
ATOM     13  C   UNL d   1      25.642 -13.946  -4.288  0.00  0.00     0.266 A 
ATOM     14  N   UNL d   1      25.054 -12.713  -4.444  0.00  0.00    -0.287 N 
ATOM     15  O   UNL d   1      25.161 -14.817  -3.560  0.00  0.00    -0.266 OA
ATOM     16  N   UNL d   1      25.532 -11.659  -5.256  0.00  0.00    -0.229 NA
ATOM     17  H   UNL d   1      24.217 -12.555  -3.889  0.00  0.00     0.184 HD
ATOM     18  H   UNL d   1      24.807 -11.413  -5.934  0.00  0.00     0.147 HD
ATOM     19  C   UNL d   1      27.737 -10.761  -5.478  0.00  0.00     0.033 C 
ENDBRANCH   3   6
ENDBRANCH   1   2
BRANCH   1  20
ATOM     20  S   UNL d   1      29.738 -15.653  -1.216  0.00  0.00    -0.118 SA
BRANCH  20  21
ATOM     21  C   UNL d   1      28.764 -16.197   0.225  0.00  0.00     0.244 C 
ATOM     22  N   UNL d   1      28.285 -17.560  -0.004  0.00  0.00    -0.183 NA
ATOM     23  N   UNL d   1      27.109 -17.590  -0.702  0.00  0.00    -0.185 NA
ATOM     24  H   UNL d   1      28.983 -18.233  -0.314  0.00  0.00     0.152 HD
ATOM     25  C   UNL d   1      26.569 -16.418  -0.521  0.00  0.00     0.123 C 
ATOM     26  N   UNL d   1      27.442 -15.560   0.253  0.00  0.00    -0.336 N 
BRANCH  25  27
ATOM     27  C   UNL d   1      25.206 -15.996  -1.033  0.00  0.00     0.126 C 
BRANCH  27  28
ATOM     28  C   UNL d   1      24.174 -17.049  -0.720  0.00  0.00    -0.011 A 
ATOM     29  C   UNL d   1      24.390 -18.410  -0.601  0.00  0.00     0.015 A 
ATOM     30  C   UNL d   1      23.183 -19.148  -0.475  0.00  0.00     0.008 A 
ATOM     31  C   UNL d   1      22.081 -18.326  -0.416  0.00  0.00     0.050 A 
ATOM     32  S   UNL d   1      22.513 -16.670  -0.523  0.00  0.00    -0.106 SA
ENDBRANCH  27  28
ENDBRANCH  25  27
BRANCH  26  33
ATOM     33  C   UNL d   1      27.015 -14.438   1.089  0.00  0.00     0.088 C 
ATOM     34  C   UNL d   1      27.779 -14.339   2.426  0.00  0.00     0.025 C 
ATOM     35  C   UNL d   1      27.400 -13.056   3.193  0.00  0.00     0.002 C 
ATOM     36  C   UNL d   1      27.601 -11.798   2.349  0.00  0.00     0.000 C 
ATOM     37  C   UNL d   1      26.824 -11.902   1.042  0.00  0.00     0.002 C 
ATOM     38  C   UNL d   1      27.217 -13.161   0.296  0.00  0.00     0.025 C 
ENDBRANCH  26  33
ENDBRANCH  20  21
ENDBRANCH   1  20
TORSDOF 7
ENDMDL
MODEL 2
REMARK VINA RESULT:    -8.199      3.889      8.272
REMARK INTER + INTRA:         -13.284
REMARK INTER:                 -10.287
REMARK INTRA:                  -2.997
REMARK CONF_INDEPENDENT:        2.088
REMARK UNBOUND:                -2.997
REMARK  7 active torsions:
REMARK  status: ('A' for Active; 'I' for Inactive)
REMARK    1  A    between atoms: C_12  and  N_13 
REMARK       I    between atoms: N_13  and  C_14 
REMARK    2  A    between atoms: C_14  and  C_16 
REMARK    3  A    between atoms: C_16  and  S_17 
REMARK    4  A    between atoms: S_17  and  C_18 
REMARK    5  A    between atoms: C_21  and  C_22 
REMARK    6  A    between atoms: C_22  and  C_23 
REMARK    7  A    between atoms: N_28  and  C_29 
ROOT
ATOM      1  C   UNL d   1      28.527 -10.318   1.199  0.00  0.00     0.180 C 
ENDROOT
BRANCH   1   2
ATOM      2  C   UNL d   1      27.733 -10.683   2.462  0.00  0.00     0.229 C 
ATOM      3  N   UNL d   1      28.470 -10.869   3.615  0.00  0.00    -0.330 N 
ATOM      4  H   UNL d   1      29.467 -10.720   3.662  0.00  0.00     0.165 HD
ATOM      5  O   UNL d   1      26.517 -10.862   2.455  0.00  0.00    -0.273 OA
BRANCH   3   6
ATOM      6  C   UNL d   1      27.778 -11.302   4.800  0.00  0.00     0.264 A 
ATOM      7  O   UNL d   1      28.250 -10.486   5.891  0.00  0.00    -0.353 OA
ATOM      8  C   UNL d   1      28.784 -11.337   6.933  0.00  0.00     0.152 A 
ATOM      9  C   UNL d   1      28.672 -12.719   6.395  0.00  0.00    -0.017 A 
ATOM     10  C   UNL d   1      30.211 -10.877   7.186  0.00  0.00     0.044 C 
ATOM     11  C   UNL d   1      28.123 -12.673   5.186  0.00  0.00     0.066 A 
ATOM     12  C   UNL d   1      29.065 -13.973   7.086  0.00  0.00     0.105 A 
ATOM     13  C   UNL d   1      27.850 -13.881   4.428  0.00  0.00     0.266 A 
ATOM     14  N   UNL d   1      28.199 -15.063   5.038  0.00  0.00    -0.287 N 
ATOM     15  O   UNL d   1      27.357 -13.844   3.299  0.00  0.00    -0.266 OA
ATOM     16  N   UNL d   1      28.766 -15.200   6.325  0.00  0.00    -0.229 NA
ATOM     17  H   UNL d   1      28.058 -15.901   4.479  0.00  0.00     0.184 HD
ATOM     18  H   UNL d   1      28.156 -15.796   6.890  0.00  0.00     0.147 HD
ATOM     19  C   UNL d   1      30.564 -14.007   7.355  0.00  0.00     0.033 C 
ENDBRANCH   3   6
ENDBRANCH   1   2
BRANCH   1  20
ATOM     20  S   UNL d   1      28.714 -11.821   0.131  0.00  0.00    -0.118 SA
BRANCH  20  21
ATOM     21  C   UNL d   1      27.026 -12.371  -0.282  0.00  0.00     0.244 C 
ATOM     22  N   UNL d   1      26.441 -13.041   0.879  0.00  0.00    -0.183 NA
ATOM     23  N   UNL d   1      26.767 -14.368   0.937  0.00  0.00    -0.185 NA
ATOM     24  H   UNL d   1      26.512 -12.545   1.764  0.00  0.00     0.152 HD
ATOM     25  C   UNL d   1      27.086 -14.699  -0.282  0.00  0.00     0.123 C 
ATOM     26  N   UNL d   1      27.044 -13.547  -1.160  0.00  0.00    -0.336 N 
BRANCH  25  27
ATOM     27  C   UNL d   1      27.441 -16.100  -0.744  0.00  0.00     0.126 C 
BRANCH  27  28
ATOM     28  C   UNL d   1      26.219 -16.982  -0.747  0.00  0.00    -0.011 A 
ATOM     29  C   UNL d   1      25.183 -16.957  -1.662  0.00  0.00     0.015 A 
ATOM     30  C   UNL d   1      24.098 -17.794  -1.286  0.00  0.00     0.008 A 
ATOM     31  C   UNL d   1      24.369 -18.500  -0.136  0.00  0.00     0.050 A 
ATOM     32  S   UNL d   1      25.926 -18.139   0.484  0.00  0.00    -0.106 SA
ENDBRANCH  27  28
ENDBRANCH  25  27
BRANCH  26  33
ATOM     33  C   UNL d   1      26.809 -13.581  -2.604  0.00  0.00     0.088 C 
ATOM     34  C   UNL d   1      27.742 -14.552  -3.357  0.00  0.00     0.025 C 
ATOM     35  C   UNL d   1      27.349 -14.665  -4.844  0.00  0.00     0.002 C 
ATOM     36  C   UNL d   1      25.884 -15.057  -5.025  0.00  0.00     0.000 C 
ATOM     37  C   UNL d   1      24.975 -14.076  -4.294  0.00  0.00     0.002 C 
ATOM     38  C   UNL d   1      25.366 -13.987  -2.833  0.00  0.00     0.025 C 
ENDBRANCH  26  33
ENDBRANCH  20  21
ENDBRANCH   1  20
TORSDOF 7
ENDMDL
MODEL 3
REMARK VINA RESULT:    -8.115      2.530      6.376
REMARK INTER + INTRA:         -12.970
REMARK INTER:                 -10.203
REMARK INTRA:                  -2.767
REMARK CONF_INDEPENDENT:        2.088
REMARK UNBOUND:                -2.767
REMARK  7 active torsions:
REMARK  status: ('A' for Active; 'I' for Inactive)
REMARK    1  A    between atoms: C_12  and  N_13 
REMARK       I    between atoms: N_13  and  C_14 
REMARK    2  A    between atoms: C_14  and  C_16 
REMARK    3  A    between atoms: C_16  and  S_17 
REMARK    4  A    between atoms: S_17  and  C_18 
REMARK    5  A    between atoms: C_21  and  C_22 
REMARK    6  A    between atoms: C_22  and  C_23 
REMARK    7  A    between atoms: N_28  and  C_29 
ROOT
ATOM      1  C   UNL d   1      27.671 -12.270  -2.983  0.00  0.00     0.180 C 
ENDROOT
BRANCH   1   2
ATOM      2  C   UNL d   1      27.708 -12.615  -1.486  0.00  0.00     0.229 C 
ATOM      3  N   UNL d   1      26.667 -13.388  -1.012  0.00  0.00    -0.330 N 
ATOM      4  H   UNL d   1      25.944 -13.766  -1.607  0.00  0.00     0.165 HD
ATOM      5  O   UNL d   1      28.575 -12.189  -0.727  0.00  0.00    -0.273 OA
BRANCH   3   6
ATOM      6  C   UNL d   1      26.612 -13.658   0.401  0.00  0.00     0.264 A 
ATOM      7  O   UNL d   1      26.312 -12.411   1.061  0.00  0.00    -0.353 OA
ATOM      8  C   UNL d   1      27.345 -12.119   2.032  0.00  0.00     0.152 A 
ATOM      9  C   UNL d   1      28.330 -13.223   1.887  0.00  0.00    -0.017 A 
ATOM     10  C   UNL d   1      27.891 -10.742   1.688  0.00  0.00     0.044 C 
ATOM     11  C   UNL d   1      27.908 -14.065   0.949  0.00  0.00     0.066 A 
ATOM     12  C   UNL d   1      29.577 -13.407   2.673  0.00  0.00     0.105 A 
ATOM     13  C   UNL d   1      28.649 -15.268   0.617  0.00  0.00     0.266 A 
ATOM     14  N   UNL d   1      29.809 -15.472   1.327  0.00  0.00    -0.287 N 
ATOM     15  O   UNL d   1      28.271 -16.044  -0.264  0.00  0.00    -0.266 OA
ATOM     16  N   UNL d   1      30.316 -14.641   2.351  0.00  0.00    -0.229 NA
ATOM     17  H   UNL d   1      30.353 -16.286   1.050  0.00  0.00     0.184 HD
ATOM     18  H   UNL d   1      30.417 -15.196   3.204  0.00  0.00     0.147 HD
ATOM     19  C   UNL d   1      30.553 -12.263   2.432  0.00  0.00     0.033 C 
ENDBRANCH   3   6
ENDBRANCH   1   2
BRANCH   1  20
ATOM     20  S   UNL d   1      25.915 -12.010  -3.513  0.00  0.00    -0.118 SA
BRANCH  20  21
ATOM     21  C   UNL d   1      25.436 -13.497  -4.453  0.00  0.00     0.244 C 
ATOM     22  N   UNL d   1      24.191 -14.032  -3.903  0.00  0.00    -0.183 NA
ATOM     23  N   UNL d   1      24.405 -14.874  -2.846  0.00  0.00    -0.185 NA
ATOM     24  H   UNL d   1      23.437 -13.363  -3.770  0.00  0.00     0.152 HD
ATOM     25  C   UNL d   1      25.634 -15.287  -2.976  0.00  0.00     0.123 C 
ATOM     26  N   UNL d   1      26.279 -14.647  -4.105  0.00  0.00    -0.336 N 
BRANCH  25  27
ATOM     27  C   UNL d   1      26.311 -16.311  -2.085  0.00  0.00     0.126 C 
BRANCH  27  28
ATOM     28  C   UNL d   1      25.284 -17.162  -1.383  0.00  0.00    -0.011 A 
ATOM     29  C   UNL d   1      24.029 -17.502  -1.853  0.00  0.00     0.015 A 
ATOM     30  C   UNL d   1      23.239 -18.168  -0.878  0.00  0.00     0.008 A 
ATOM     31  C   UNL d   1      23.941 -18.395   0.284  0.00  0.00     0.050 A 
ATOM     32  S   UNL d   1      25.543 -17.793   0.190  0.00  0.00    -0.106 SA
ENDBRANCH  27  28
ENDBRANCH  25  27
BRANCH  26  33
ATOM     33  C   UNL d   1      27.393 -15.199  -4.877  0.00  0.00     0.088 C 
ATOM     34  C   UNL d   1      27.779 -14.341  -6.100  0.00  0.00     0.025 C 
ATOM     35  C   UNL d   1      29.051 -14.882  -6.783  0.00  0.00     0.002 C 
ATOM     36  C   UNL d   1      30.220 -15.008  -5.808  0.00  0.00     0.000 C 
ATOM     37  C   UNL d   1      29.830 -15.876  -4.617  0.00  0.00     0.002 C 
ATOM     38  C   UNL d   1      28.587 -15.324  -3.951  0.00  0.00     0.025 C 
ENDBRANCH  26  33
ENDBRANCH  20  21
ENDBRANCH   1  20
TORSDOF 7
ENDMDL
MODEL 4
REMARK VINA RESULT:    -7.835      1.785      4.188
REMARK INTER + INTRA:         -12.911
REMARK INTER:                  -9.923
REMARK INTRA:                  -2.988
REMARK CONF_INDEPENDENT:        2.088
REMARK UNBOUND:                -2.988
REMARK  7 active torsions:
REMARK  status: ('A' for Active; 'I' for Inactive)
REMARK    1  A    between atoms: C_12  and  N_13 
REMARK       I    between atoms: N_13  and  C_14 
REMARK    2  A    between atoms: C_14  and  C_16 
REMARK    3  A    between atoms: C_16  and  S_17 
REMARK    4  A    between atoms: S_17  and  C_18 
REMARK    5  A    between atoms: C_21  and  C_22 
REMARK    6  A    between atoms: C_22  and  C_23 
REMARK    7  A    between atoms: N_28  and  C_29 
ROOT
ATOM      1  C   UNL d   1      30.140 -15.572  -2.805  0.00  0.00     0.180 C 
ENDROOT
BRANCH   1   2
ATOM      2  C   UNL d   1      29.340 -14.906  -3.935  0.00  0.00     0.229 C 
ATOM      3  N   UNL d   1      28.523 -15.736  -4.676  0.00  0.00    -0.330 N 
ATOM      4  H   UNL d   1      28.396 -16.716  -4.467  0.00  0.00     0.165 HD
ATOM      5  O   UNL d   1      29.453 -13.715  -4.218  0.00  0.00    -0.273 OA
BRANCH   3   6
ATOM      6  C   UNL d   1      27.826 -15.174  -5.803  0.00  0.00     0.264 A 
ATOM      7  O   UNL d   1      28.826 -14.672  -6.713  0.00  0.00    -0.353 OA
ATOM      8  C   UNL d   1      28.589 -13.265  -6.961  0.00  0.00     0.152 A 
ATOM      9  C   UNL d   1      27.427 -12.915  -6.102  0.00  0.00    -0.017 A 
ATOM     10  C   UNL d   1      29.875 -12.536  -6.603  0.00  0.00     0.044 C 
ATOM     11  C   UNL d   1      27.028 -13.999  -5.443  0.00  0.00     0.066 A 
ATOM     12  C   UNL d   1      26.769 -11.588  -6.001  0.00  0.00     0.105 A 
ATOM     13  C   UNL d   1      25.881 -13.970  -4.555  0.00  0.00     0.266 A 
ATOM     14  N   UNL d   1      25.244 -12.757  -4.438  0.00  0.00    -0.287 N 
ATOM     15  O   UNL d   1      25.516 -14.968  -3.929  0.00  0.00    -0.266 OA
ATOM     16  N   UNL d   1      25.589 -11.566  -5.116  0.00  0.00    -0.229 NA
ATOM     17  H   UNL d   1      24.476 -12.729  -3.771  0.00  0.00     0.184 HD
ATOM     18  H   UNL d   1      24.780 -11.249  -5.655  0.00  0.00     0.147 HD
ATOM     19  C   UNL d   1      27.724 -10.540  -5.444  0.00  0.00     0.033 C 
ENDBRANCH   3   6
ENDBRANCH   1   2
BRANCH   1  20
ATOM     20  S   UNL d   1      29.114 -15.609  -1.262  0.00  0.00    -0.118 SA
BRANCH  20  21
ATOM     21  C   UNL d   1      27.466 -14.984  -1.726  0.00  0.00     0.244 C 
ATOM     22  N   UNL d   1      27.553 -13.548  -1.990  0.00  0.00    -0.183 NA
ATOM     23  N   UNL d   1      27.423 -12.797  -0.854  0.00  0.00    -0.185 NA
ATOM     24  H   UNL d   1      28.300 -13.253  -2.614  0.00  0.00     0.152 HD
ATOM     25  C   UNL d   1      26.803 -13.564  -0.002  0.00  0.00     0.123 C 
ATOM     26  N   UNL d   1      26.581 -14.883  -0.559  0.00  0.00    -0.336 N 
BRANCH  25  27
ATOM     27  C   UNL d   1      26.354 -13.146   1.384  0.00  0.00     0.126 C 
BRANCH  27  28
ATOM     28  C   UNL d   1      27.406 -13.490   2.408  0.00  0.00    -0.011 A 
ATOM     29  C   UNL d   1      28.748 -13.722   2.169  0.00  0.00     0.015 A 
ATOM     30  C   UNL d   1      29.436 -14.195   3.319  0.00  0.00     0.008 A 
ATOM     31  C   UNL d   1      28.621 -14.229   4.427  0.00  0.00     0.050 A 
ATOM     32  S   UNL d   1      27.030 -13.701   4.067  0.00  0.00    -0.106 SA
ENDBRANCH  27  28
ENDBRANCH  25  27
BRANCH  26  33
ATOM     33  C   UNL d   1      25.511 -15.804  -0.174  0.00  0.00     0.088 C 
ATOM     34  C   UNL d   1      24.455 -16.018  -1.278  0.00  0.00     0.025 C 
ATOM     35  C   UNL d   1      23.442 -17.110  -0.880  0.00  0.00     0.002 C 
ATOM     36  C   UNL d   1      24.127 -18.425  -0.509  0.00  0.00     0.000 C 
ATOM     37  C   UNL d   1      25.151 -18.200   0.598  0.00  0.00     0.002 C 
ATOM     38  C   UNL d   1      26.145 -17.134   0.185  0.00  0.00     0.025 C 
ENDBRANCH  26  33
ENDBRANCH  20  21
ENDBRANCH   1  20
TORSDOF 7
ENDMDL
MODEL 5
REMARK VINA RESULT:    -7.679      1.867      4.187
REMARK INTER + INTRA:         -13.105
REMARK INTER:                  -9.767
REMARK INTRA:                  -3.338
REMARK CONF_INDEPENDENT:        2.088
REMARK UNBOUND:                -3.338
REMARK  7 active torsions:
REMARK  status: ('A' for Active; 'I' for Inactive)
REMARK    1  A    between atoms: C_12  and  N_13 
REMARK       I    between atoms: N_13  and  C_14 
REMARK    2  A    between atoms: C_14  and  C_16 
REMARK    3  A    between atoms: C_16  and  S_17 
REMARK    4  A    between atoms: S_17  and  C_18 
REMARK    5  A    between atoms: C_21  and  C_22 
REMARK    6  A    between atoms: C_22  and  C_23 
REMARK    7  A    between atoms: N_28  and  C_29 
ROOT
ATOM      1  C   UNL d   1      30.402 -17.104  -4.187  0.00  0.00     0.180 C 
ENDROOT
BRANCH   1   2
ATOM      2  C   UNL d   1      29.791 -16.030  -5.101  0.00  0.00     0.229 C 
ATOM      3  N   UNL d   1      29.784 -14.741  -4.608  0.00  0.00    -0.330 N 
ATOM      4  H   UNL d   1      30.205 -14.484  -3.726  0.00  0.00     0.165 HD
ATOM      5  O   UNL d   1      29.280 -16.294  -6.187  0.00  0.00    -0.273 OA
BRANCH   3   6
ATOM      6  C   UNL d   1      29.139 -13.719  -5.389  0.00  0.00     0.264 A 
ATOM      7  O   UNL d   1      29.830 -12.481  -5.125  0.00  0.00    -0.353 OA
ATOM      8  C   UNL d   1      28.886 -11.497  -4.639  0.00  0.00     0.152 A 
ATOM      9  C   UNL d   1      27.588 -12.217  -4.559  0.00  0.00    -0.017 A 
ATOM     10  C   UNL d   1      29.415 -11.007  -3.300  0.00  0.00     0.044 C 
ATOM     11  C   UNL d   1      27.759 -13.471  -4.965  0.00  0.00     0.066 A 
ATOM     12  C   UNL d   1      26.284 -11.648  -4.134  0.00  0.00     0.105 A 
ATOM     13  C   UNL d   1      26.650 -14.406  -5.035  0.00  0.00     0.266 A 
ATOM     14  N   UNL d   1      25.426 -13.913  -4.651  0.00  0.00    -0.287 N 
ATOM     15  O   UNL d   1      26.806 -15.575  -5.395  0.00  0.00    -0.266 OA
ATOM     16  N   UNL d   1      25.155 -12.592  -4.228  0.00  0.00    -0.229 NA
ATOM     17  H   UNL d   1      24.665 -14.588  -4.647  0.00  0.00     0.184 HD
ATOM     18  H   UNL d   1      24.441 -12.191  -4.841  0.00  0.00     0.147 HD
ATOM     19  C   UNL d   1      26.328 -11.196  -2.680  0.00  0.00     0.033 C 
ENDBRANCH   3   6
ENDBRANCH   1   2
BRANCH   1  20
ATOM     20  S   UNL d   1      29.908 -16.775  -2.432  0.00  0.00    -0.118 SA
BRANCH  20  21
ATOM     21  C   UNL d   1      28.392 -15.765  -2.505  0.00  0.00     0.244 C 
ATOM     22  N   UNL d   1      28.714 -14.387  -2.133  0.00  0.00    -0.183 NA
ATOM     23  N   UNL d   1      28.678 -14.189  -0.780  0.00  0.00    -0.185 NA
ATOM     24  H   UNL d   1      29.514 -13.972  -2.604  0.00  0.00     0.152 HD
ATOM     25  C   UNL d   1      27.923 -15.141  -0.311  0.00  0.00     0.123 C 
ATOM     26  N   UNL d   1      27.507 -16.041  -1.368  0.00  0.00    -0.336 N 
BRANCH  25  27
ATOM     27  C   UNL d   1      27.512 -15.296   1.141  0.00  0.00     0.126 C 
BRANCH  27  28
ATOM     28  C   UNL d   1      27.290 -13.946   1.774  0.00  0.00    -0.011 A 
ATOM     29  C   UNL d   1      26.661 -12.856   1.201  0.00  0.00     0.015 A 
ATOM     30  C   UNL d   1      26.769 -11.681   1.991  0.00  0.00     0.008 A 
ATOM     31  C   UNL d   1      27.405 -11.923   3.188  0.00  0.00     0.050 A 
ATOM     32  S   UNL d   1      27.874 -13.566   3.340  0.00  0.00    -0.106 SA
ENDBRANCH  27  28
ENDBRANCH  25  27
BRANCH  26  33
ATOM     33  C   UNL d   1      26.294 -16.859  -1.364  0.00  0.00     0.088 C 
ATOM     34  C   UNL d   1      26.224 -17.852  -0.185  0.00  0.00     0.025 C 
ATOM     35  C   UNL d   1      24.862 -18.574  -0.142  0.00  0.00     0.002 C 
ATOM     36  C   UNL d   1      23.690 -17.594  -0.107  0.00  0.00     0.000 C 
ATOM     37  C   UNL d   1      23.762 -16.634  -1.289  0.00  0.00     0.002 C 
ATOM     38  C   UNL d   1      25.100 -15.925  -1.309  0.00  0.00     0.025 C 
ENDBRANCH  26  33
ENDBRANCH  20  21
ENDBRANCH   1  20
TORSDOF 7
ENDMDL
MODEL 6
REMARK VINA RESULT:    -7.642      2.582      5.880
REMARK INTER + INTRA:         -13.259
REMARK INTER:                  -9.730
REMARK INTRA:                  -3.528
REMARK CONF_INDEPENDENT:        2.088
REMARK UNBOUND:                -3.528
REMARK  7 active torsions:
REMARK  status: ('A' for Active; 'I' for Inactive)
REMARK    1  A    between atoms: C_12  and  N_13 
REMARK       I    between atoms: N_13  and  C_14 
REMARK    2  A    between atoms: C_14  and  C_16 
REMARK    3  A    between atoms: C_16  and  S_17 
REMARK    4  A    between atoms: S_17  and  C_18 
REMARK    5  A    between atoms: C_21  and  C_22 
REMARK    6  A    between atoms: C_22  and  C_23 
REMARK    7  A    between atoms: N_28  and  C_29 
ROOT
ATOM      1  C   UNL d   1      27.146 -10.733  -4.486  0.00  0.00     0.180 C 
ENDROOT
BRANCH   1   2
ATOM      2  C   UNL d   1      28.246 -10.948  -3.436  0.00  0.00     0.229 C 
ATOM      3  N   UNL d   1      28.041 -11.978  -2.539  0.00  0.00    -0.330 N 
ATOM      4  H   UNL d   1      27.251 -12.605  -2.589  0.00  0.00     0.165 HD
ATOM      5  O   UNL d   1      29.231 -10.220  -3.345  0.00  0.00    -0.273 OA
BRANCH   3   6
ATOM      6  C   UNL d   1      29.000 -12.158  -1.481  0.00  0.00     0.264 A 
ATOM      7  O   UNL d   1      30.268 -12.450  -2.102  0.00  0.00    -0.353 OA
ATOM      8  C   UNL d   1      30.769 -13.714  -1.603  0.00  0.00     0.152 A 
ATOM      9  C   UNL d   1      29.708 -14.213  -0.689  0.00  0.00    -0.017 A 
ATOM     10  C   UNL d   1      31.018 -14.595  -2.817  0.00  0.00     0.044 C 
ATOM     11  C   UNL d   1      28.713 -13.332  -0.653  0.00  0.00     0.066 A 
ATOM     12  C   UNL d   1      29.738 -15.470   0.101  0.00  0.00     0.105 A 
ATOM     13  C   UNL d   1      27.550 -13.532   0.192  0.00  0.00     0.266 A 
ATOM     14  N   UNL d   1      27.545 -14.686   0.940  0.00  0.00    -0.287 N 
ATOM     15  O   UNL d   1      26.616 -12.727   0.217  0.00  0.00    -0.266 OA
ATOM     16  N   UNL d   1      28.567 -15.661   0.976  0.00  0.00    -0.229 NA
ATOM     17  H   UNL d   1      26.701 -14.848   1.486  0.00  0.00     0.184 HD
ATOM     18  H   UNL d   1      28.891 -15.761   1.941  0.00  0.00     0.147 HD
ATOM     19  C   UNL d   1      29.780 -16.691  -0.809  0.00  0.00     0.033 C 
ENDBRANCH   3   6
ENDBRANCH   1   2
BRANCH   1  20
ATOM     20  S   UNL d   1      25.639 -11.699  -4.009  0.00  0.00    -0.118 SA
BRANCH  20  21
ATOM     21  C   UNL d   1      25.756 -13.296  -4.880  0.00  0.00     0.244 C 
ATOM     22  N   UNL d   1      24.586 -14.110  -4.550  0.00  0.00    -0.183 NA
ATOM     23  N   UNL d   1      24.755 -14.825  -3.397  0.00  0.00    -0.185 NA
ATOM     24  H   UNL d   1      23.683 -13.652  -4.640  0.00  0.00     0.152 HD
ATOM     25  C   UNL d   1      26.044 -14.914  -3.231  0.00  0.00     0.123 C 
ATOM     26  N   UNL d   1      26.751 -14.177  -4.258  0.00  0.00    -0.336 N 
BRANCH  25  27
ATOM     27  C   UNL d   1      26.732 -15.693  -2.126  0.00  0.00     0.126 C 
BRANCH  27  28
ATOM     28  C   UNL d   1      25.769 -16.657  -1.480  0.00  0.00    -0.011 A 
ATOM     29  C   UNL d   1      24.589 -17.133  -2.019  0.00  0.00     0.015 A 
ATOM     30  C   UNL d   1      23.825 -17.887  -1.088  0.00  0.00     0.008 A 
ATOM     31  C   UNL d   1      24.482 -18.039   0.112  0.00  0.00     0.050 A 
ATOM     32  S   UNL d   1      26.010 -17.260   0.107  0.00  0.00    -0.106 SA
ENDBRANCH  27  28
ENDBRANCH  25  27
BRANCH  26  33
ATOM     33  C   UNL d   1      28.109 -14.455  -4.729  0.00  0.00     0.088 C 
ATOM     34  C   UNL d   1      28.490 -15.948  -4.662  0.00  0.00     0.025 C 
ATOM     35  C   UNL d   1      29.865 -16.203  -5.312  0.00  0.00     0.002 C 
ATOM     36  C   UNL d   1      29.931 -15.681  -6.746  0.00  0.00     0.000 C 
ATOM     37  C   UNL d   1      29.573 -14.201  -6.792  0.00  0.00     0.002 C 
ATOM     38  C   UNL d   1      28.215 -13.970  -6.161  0.00  0.00     0.025 C 
ENDBRANCH  26  33
ENDBRANCH  20  21
ENDBRANCH   1  20
TORSDOF 7
ENDMDL
MODEL 7
REMARK VINA RESULT:    -7.185      2.671      5.651
REMARK INTER + INTRA:         -13.273
REMARK INTER:                  -9.273
REMARK INTRA:                  -4.000
REMARK CONF_INDEPENDENT:        2.088
REMARK UNBOUND:                -4.000
REMARK  7 active torsions:
REMARK  status: ('A' for Active; 'I' for Inactive)
REMARK    1  A    between atoms: C_12  and  N_13 
REMARK       I    between atoms: N_13  and  C_14 
REMARK    2  A    between atoms: C_14  and  C_16 
REMARK    3  A    between atoms: C_16  and  S_17 
REMARK    4  A    between atoms: S_17  and  C_18 
REMARK    5  A    between atoms: C_21  and  C_22 
REMARK    6  A    between atoms: C_22  and  C_23 
REMARK    7  A    between atoms: N_28  and  C_29 
ROOT
ATOM      1  C   UNL d   1      27.742 -13.966  -0.804  0.00  0.00     0.180 C 
ENDROOT
BRANCH   1   2
ATOM      2  C   UNL d   1      29.151 -14.123  -1.397  0.00  0.00     0.229 C 
ATOM      3  N   UNL d   1      29.225 -14.704  -2.647  0.00  0.00    -0.330 N 
ATOM      4  H   UNL d   1      28.411 -14.962  -3.186  0.00  0.00     0.165 HD
ATOM      5  O   UNL d   1      30.169 -13.811  -0.784  0.00  0.00    -0.273 OA
BRANCH   3   6
ATOM      6  C   UNL d   1      30.530 -14.955  -3.201  0.00  0.00     0.264 A 
ATOM      7  O   UNL d   1      30.508 -14.494  -4.567  0.00  0.00    -0.353 OA
ATOM      8  C   UNL d   1      30.870 -15.584  -5.450  0.00  0.00     0.152 A 
ATOM      9  C   UNL d   1      31.053 -16.757  -4.555  0.00  0.00    -0.017 A 
ATOM     10  C   UNL d   1      29.735 -15.730  -6.451  0.00  0.00     0.044 C 
ATOM     11  C   UNL d   1      30.836 -16.385  -3.297  0.00  0.00     0.066 A 
ATOM     12  C   UNL d   1      31.452 -18.127  -4.962  0.00  0.00     0.105 A 
ATOM     13  C   UNL d   1      30.983 -17.315  -2.193  0.00  0.00     0.266 A 
ATOM     14  N   UNL d   1      31.354 -18.595  -2.532  0.00  0.00    -0.287 N 
ATOM     15  O   UNL d   1      30.767 -16.980  -1.026  0.00  0.00    -0.266 OA
ATOM     16  N   UNL d   1      31.624 -19.065  -3.837  0.00  0.00    -0.229 NA
ATOM     17  H   UNL d   1      31.400 -19.256  -1.760  0.00  0.00     0.184 HD
ATOM     18  H   UNL d   1      32.577 -19.436  -3.862  0.00  0.00     0.147 HD
ATOM     19  C   UNL d   1      30.405 -18.758  -5.872  0.00  0.00     0.033 C 
ENDBRANCH   3   6
ENDBRANCH   1   2
BRANCH   1  20
ATOM     20  S   UNL d   1      27.611 -14.966   0.750  0.00  0.00    -0.118 SA
BRANCH  20  21
ATOM     21  C   UNL d   1      27.221 -16.670   0.233  0.00  0.00     0.244 C 
ATOM     22  N   UNL d   1      28.156 -17.080  -0.814  0.00  0.00    -0.183 NA
ATOM     23  N   UNL d   1      27.743 -16.700  -2.062  0.00  0.00    -0.185 NA
ATOM     24  H   UNL d   1      29.142 -16.918  -0.623  0.00  0.00     0.152 HD
ATOM     25  C   UNL d   1      26.457 -16.523  -1.961  0.00  0.00     0.123 C 
ATOM     26  N   UNL d   1      26.012 -16.718  -0.596  0.00  0.00    -0.336 N 
BRANCH  25  27
ATOM     27  C   UNL d   1      25.530 -16.175  -3.110  0.00  0.00     0.126 C 
BRANCH  27  28
ATOM     28  C   UNL d   1      25.934 -14.864  -3.737  0.00  0.00    -0.011 A 
ATOM     29  C   UNL d   1      25.446 -13.610  -3.419  0.00  0.00     0.015 A 
ATOM     30  C   UNL d   1      25.901 -12.602  -4.311  0.00  0.00     0.008 A 
ATOM     31  C   UNL d   1      26.791 -13.098  -5.236  0.00  0.00     0.050 A 
ATOM     32  S   UNL d   1      27.062 -14.778  -5.024  0.00  0.00    -0.106 SA
ENDBRANCH  27  28
ENDBRANCH  25  27
BRANCH  26  33
ATOM     33  C   UNL d   1      24.669 -17.129  -0.186  0.00  0.00     0.088 C 
ATOM     34  C   UNL d   1      23.543 -16.323  -0.867  0.00  0.00     0.025 C 
ATOM     35  C   UNL d   1      22.155 -16.898  -0.520  0.00  0.00     0.002 C 
ATOM     36  C   UNL d   1      22.047 -18.385  -0.854  0.00  0.00     0.000 C 
ATOM     37  C   UNL d   1      23.152 -19.170  -0.157  0.00  0.00     0.002 C 
ATOM     38  C   UNL d   1      24.509 -18.600  -0.518  0.00  0.00     0.025 C 
ENDBRANCH  26  33
ENDBRANCH  20  21
ENDBRANCH   1  20
TORSDOF 7
ENDMDL
MODEL 8
REMARK VINA RESULT:    -6.624      2.860      5.364
REMARK INTER + INTRA:         -13.585
REMARK INTER:                  -8.712
REMARK INTRA:                  -4.872
REMARK CONF_INDEPENDENT:        2.088
REMARK UNBOUND:                -4.872
REMARK  7 active torsions:
REMARK  status: ('A' for Active; 'I' for Inactive)
REMARK    1  A    between atoms: C_12  and  N_13 
REMARK       I    between atoms: N_13  and  C_14 
REMARK    2  A    between atoms: C_14  and  C_16 
REMARK    3  A    between atoms: C_16  and  S_17 
REMARK    4  A    between atoms: S_17  and  C_18 
REMARK    5  A    between atoms: C_21  and  C_22 
REMARK    6  A    between atoms: C_22  and  C_23 
REMARK    7  A    between atoms: N_28  and  C_29 
ROOT
ATOM      1  C   UNL d   1      28.947 -14.549   1.901  0.00  0.00     0.180 C 
ENDROOT
BRANCH   1   2
ATOM      2  C   UNL d   1      30.059 -14.392   0.852  0.00  0.00     0.229 C 
ATOM      3  N   UNL d   1      29.690 -14.592  -0.463  0.00  0.00    -0.330 N 
ATOM      4  H   UNL d   1      28.738 -14.772  -0.749  0.00  0.00     0.165 HD
ATOM      5  O   UNL d   1      31.228 -14.161   1.152  0.00  0.00    -0.273 OA
BRANCH   3   6
ATOM      6  C   UNL d   1      30.718 -14.547  -1.470  0.00  0.00     0.264 A 
ATOM      7  O   UNL d   1      30.571 -13.296  -2.172  0.00  0.00    -0.353 OA
ATOM      8  C   UNL d   1      30.398 -13.555  -3.586  0.00  0.00     0.152 A 
ATOM      9  C   UNL d   1      30.383 -15.036  -3.706  0.00  0.00    -0.017 A 
ATOM     10  C   UNL d   1      29.100 -12.879  -3.999  0.00  0.00     0.044 C 
ATOM     11  C   UNL d   1      30.543 -15.574  -2.501  0.00  0.00     0.066 A 
ATOM     12  C   UNL d   1      30.252 -15.822  -4.959  0.00  0.00     0.105 A 
ATOM     13  C   UNL d   1      30.611 -17.011  -2.312  0.00  0.00     0.266 A 
ATOM     14  N   UNL d   1      30.495 -17.772  -3.451  0.00  0.00    -0.287 N 
ATOM     15  O   UNL d   1      30.742 -17.516  -1.194  0.00  0.00    -0.266 OA
ATOM     16  N   UNL d   1      30.344 -17.281  -4.768  0.00  0.00    -0.229 NA
ATOM     17  H   UNL d   1      30.485 -18.778  -3.305  0.00  0.00     0.184 HD
ATOM     18  H   UNL d   1      31.112 -17.640  -5.341  0.00  0.00     0.147 HD
ATOM     19  C   UNL d   1      28.904 -15.575  -5.625  0.00  0.00     0.033 C 
ENDBRANCH   3   6
ENDBRANCH   1   2
BRANCH   1  20
ATOM     20  S   UNL d   1      27.308 -14.683   1.047  0.00  0.00    -0.118 SA
BRANCH  20  21
ATOM     21  C   UNL d   1      27.106 -16.437   0.594  0.00  0.00     0.244 C 
ATOM     22  N   UNL d   1      28.173 -16.820  -0.331  0.00  0.00    -0.183 NA
ATOM     23  N   UNL d   1      27.862 -16.537  -1.633  0.00  0.00    -0.185 NA
ATOM     24  H   UNL d   1      29.118 -16.568  -0.053  0.00  0.00     0.152 HD
ATOM     25  C   UNL d   1      26.562 -16.462  -1.670  0.00  0.00     0.123 C 
ATOM     26  N   UNL d   1      25.996 -16.625  -0.347  0.00  0.00    -0.336 N 
BRANCH  25  27
ATOM     27  C   UNL d   1      25.735 -16.249  -2.923  0.00  0.00     0.126 C 
BRANCH  27  28
ATOM     28  C   UNL d   1      25.808 -14.810  -3.366  0.00  0.00    -0.011 A 
ATOM     29  C   UNL d   1      25.754 -13.691  -2.556  0.00  0.00     0.015 A 
ATOM     30  C   UNL d   1      25.672 -12.481  -3.297  0.00  0.00     0.008 A 
ATOM     31  C   UNL d   1      25.751 -12.702  -4.653  0.00  0.00     0.050 A 
ATOM     32  S   UNL d   1      25.913 -14.369  -5.020  0.00  0.00    -0.106 SA
ENDBRANCH  27  28
ENDBRANCH  25  27
BRANCH  26  33
ATOM     33  C   UNL d   1      24.653 -17.125  -0.048  0.00  0.00     0.088 C 
ATOM     34  C   UNL d   1      23.530 -16.326  -0.742  0.00  0.00     0.025 C 
ATOM     35  C   UNL d   1      22.155 -16.987  -0.520  0.00  0.00     0.002 C 
ATOM     36  C   UNL d   1      22.141 -18.451  -0.957  0.00  0.00     0.000 C 
ATOM     37  C   UNL d   1      23.242 -19.231  -0.247  0.00  0.00     0.002 C 
ATOM     38  C   UNL d   1      24.586 -18.575  -0.486  0.00  0.00     0.025 C 
ENDBRANCH  26  33
ENDBRANCH  20  21
ENDBRANCH   1  20
TORSDOF 7
ENDMDL
