MODEL 1
REMARK VINA RESULT:    -9.785      0.000      0.000
REMARK INTER + INTRA:         -17.230
REMARK INTER:                 -14.558
REMARK INTRA:                  -2.673
REMARK CONF_INDEPENDENT:        4.773
REMARK UNBOUND:                -2.673
REMARK  16 active torsions:
REMARK  status: ('A' for Active; 'I' for Inactive)
REMARK    1  A    between atoms: C_2  and  C_3 
REMARK       I    between atoms: C_2  and  N_18 
REMARK    2  A    between atoms: C_3  and  C_4 
REMARK    3  A    between atoms: C_4  and  C_5 
REMARK    4  A    between atoms: C_5  and  C_6 
REMARK    5  A    between atoms: C_6  and  O_8 
REMARK    6  A    between atoms: O_8  and  C_9 
REMARK    7  A    between atoms: C_9  and  C_10 
REMARK    8  A    between atoms: C_10  and  C_11 
REMARK    9  A    between atoms: C_11  and  C_12 
REMARK   10  A    between atoms: N_18  and  C_19 
REMARK   11  A    between atoms: C_19  and  N_21 
REMARK   12  A    between atoms: N_21  and  C_22 
REMARK   13  A    between atoms: C_26  and  O_27 
REMARK   14  A    between atoms: O_27  and  C_28 
REMARK   15  A    between atoms: C_28  and  C_29 
REMARK   16  A    between atoms: C_29  and  C_30 
ROOT
ATOM      1  O   UNL d   1      25.889 -11.539  -3.269  0.00  0.00    -0.273 OA
ATOM      2  C   UNL d   1      25.975 -12.601  -2.656  0.00  0.00     0.223 C 
ATOM      3  N   UNL d   1      26.849 -12.719  -1.558  0.00  0.00    -0.304 N 
ATOM      4  H   UNL d   1      27.358 -11.853  -1.422  0.00  0.00     0.171 HD
ENDROOT
BRANCH   3   5
ATOM      5  C   UNL d   1      27.041 -13.758  -0.617  0.00  0.00     0.178 C 
ATOM      6  S   UNL d   1      27.054 -13.539   1.066  0.00  0.00    -0.040 SA
BRANCH   5   7
ATOM      7  N   UNL d   1      27.253 -15.025  -1.202  0.00  0.00    -0.333 N 
ATOM      8  H   UNL d   1      28.094 -15.200  -1.739  0.00  0.00     0.168 HD
BRANCH   7   9
ATOM      9  C   UNL d   1      26.532 -16.179  -0.754  0.00  0.00     0.036 A 
ATOM     10  C   UNL d   1      27.114 -17.191   0.000  0.00  0.00     0.029 A 
ATOM     11  C   UNL d   1      26.310 -18.251   0.457  0.00  0.00     0.005 A 
ATOM     12  C   UNL d   1      24.926 -18.265   0.219  0.00  0.00     0.037 A 
ATOM     13  C   UNL d   1      24.342 -17.260  -0.541  0.00  0.00     0.070 A 
ATOM     14  C   UNL d   1      25.166 -16.265  -1.054  0.00  0.00     0.066 A 
BRANCH  13  15
ATOM     15  O   UNL d   1      22.988 -17.324  -0.749  0.00  0.00    -0.351 OA
BRANCH  15  16
ATOM     16  C   UNL d   1      22.346 -18.500  -0.232  0.00  0.00     0.180 C 
BRANCH  16  17
ATOM     17  C   UNL d   1      20.990 -18.695  -0.906  0.00  0.00     0.065 C 
BRANCH  17  18
ATOM     18  C   UNL d   1      20.036 -19.428   0.007  0.00  0.00    -0.056 A 
ATOM     19  C   UNL d   1      20.295 -19.531   1.378  0.00  0.00     0.007 A 
ATOM     20  C   UNL d   1      19.480 -20.324   2.190  0.00  0.00     0.001 A 
ATOM     21  C   UNL d   1      18.357 -20.953   1.653  0.00  0.00     0.000 A 
ATOM     22  C   UNL d   1      18.070 -20.827   0.297  0.00  0.00     0.001 A 
ATOM     23  C   UNL d   1      18.907 -20.072  -0.523  0.00  0.00     0.007 A 
ENDBRANCH  17  18
ENDBRANCH  16  17
ENDBRANCH  15  16
ENDBRANCH  13  15
ENDBRANCH   7   9
ENDBRANCH   5   7
ENDBRANCH   3   5
BRANCH   2  24
ATOM     24  C   UNL d   1      25.168 -13.834  -3.026  0.00  0.00     0.103 C 
BRANCH  24  25
ATOM     25  C   UNL d   1      24.844 -14.077  -4.476  0.00  0.00     0.019 C 
BRANCH  25  26
ATOM     26  C   UNL d   1      25.528 -15.364  -4.986  0.00  0.00     0.111 C 
BRANCH  26  27
ATOM     27  C   UNL d   1      27.020 -15.226  -4.818  0.00  0.00     0.258 C 
ATOM     28  O   UNL d   1      27.631 -15.589  -3.808  0.00  0.00    -0.265 OA
BRANCH  27  29
ATOM     29  O   UNL d   1      27.618 -14.659  -5.901  0.00  0.00    -0.321 OA
BRANCH  29  30
ATOM     30  C   UNL d   1      29.048 -14.572  -5.760  0.00  0.00     0.179 C 
BRANCH  30  31
ATOM     31  C   UNL d   1      29.731 -15.558  -6.698  0.00  0.00     0.031 C 
BRANCH  31  32
ATOM     32  C   UNL d   1      30.903 -16.266  -6.004  0.00  0.00     0.041 C 
BRANCH  32  33
ATOM     33  C   UNL d   1      30.913 -17.744  -6.309  0.00  0.00    -0.058 A 
ATOM     34  C   UNL d   1      31.217 -18.204  -7.596  0.00  0.00     0.007 A 
ATOM     35  C   UNL d   1      31.109 -19.562  -7.903  0.00  0.00     0.001 A 
ATOM     36  C   UNL d   1      30.776 -20.479  -6.907  0.00  0.00     0.000 A 
ATOM     37  C   UNL d   1      30.510 -20.035  -5.615  0.00  0.00     0.001 A 
ATOM     38  C   UNL d   1      30.573 -18.674  -5.317  0.00  0.00     0.007 A 
ENDBRANCH  32  33
ENDBRANCH  31  32
ENDBRANCH  30  31
ENDBRANCH  29  30
ENDBRANCH  27  29
ENDBRANCH  26  27
ENDBRANCH  25  26
ENDBRANCH  24  25
ENDBRANCH   2  24
TORSDOF 16
ENDMDL
MODEL 2
REMARK VINA RESULT:    -9.431      1.978      9.671
REMARK INTER + INTRA:         -15.884
REMARK INTER:                 -14.204
REMARK INTRA:                  -1.681
REMARK CONF_INDEPENDENT:        4.773
REMARK UNBOUND:                -1.681
REMARK  16 active torsions:
REMARK  status: ('A' for Active; 'I' for Inactive)
REMARK    1  A    between atoms: C_2  and  C_3 
REMARK       I    between atoms: C_2  and  N_18 
REMARK    2  A    between atoms: C_3  and  C_4 
REMARK    3  A    between atoms: C_4  and  C_5 
REMARK    4  A    between atoms: C_5  and  C_6 
REMARK    5  A    between atoms: C_6  and  O_8 
REMARK    6  A    between atoms: O_8  and  C_9 
REMARK    7  A    between atoms: C_9  and  C_10 
REMARK    8  A    between atoms: C_10  and  C_11 
REMARK    9  A    between atoms: C_11  and  C_12 
REMARK   10  A    between atoms: N_18  and  C_19 
REMARK   11  A    between atoms: C_19  and  N_21 
REMARK   12  A    between atoms: N_21  and  C_22 
REMARK   13  A    between atoms: C_26  and  O_27 
REMARK   14  A    between atoms: O_27  and  C_28 
REMARK   15  A    between atoms: C_28  and  C_29 
REMARK   16  A    between atoms: C_29  and  C_30 
ROOT
ATOM      1  O   UNL d   1      24.328 -14.073  -4.301  0.00  0.00    -0.273 OA
ATOM      2  C   UNL d   1      25.198 -13.349  -3.821  0.00  0.00     0.223 C 
ATOM      3  N   UNL d   1      25.523 -12.124  -4.435  0.00  0.00    -0.304 N 
ATOM      4  H   UNL d   1      24.974 -12.000  -5.279  0.00  0.00     0.171 HD
ENDROOT
BRANCH   3   5
ATOM      5  C   UNL d   1      26.368 -11.064  -4.030  0.00  0.00     0.178 C 
ATOM      6  S   UNL d   1      26.016  -9.983  -2.770  0.00  0.00    -0.040 SA
BRANCH   5   7
ATOM      7  N   UNL d   1      27.551 -10.956  -4.792  0.00  0.00    -0.333 N 
ATOM      8  H   UNL d   1      28.318 -10.385  -4.456  0.00  0.00     0.168 HD
BRANCH   7   9
ATOM      9  C   UNL d   1      27.865 -11.910  -5.814  0.00  0.00     0.036 A 
ATOM     10  C   UNL d   1      28.161 -11.549  -7.124  0.00  0.00     0.029 A 
ATOM     11  C   UNL d   1      28.528 -12.550  -8.041  0.00  0.00     0.005 A 
ATOM     12  C   UNL d   1      28.665 -13.888  -7.638  0.00  0.00     0.037 A 
ATOM     13  C   UNL d   1      28.362 -14.254  -6.332  0.00  0.00     0.070 A 
ATOM     14  C   UNL d   1      27.920 -13.264  -5.462  0.00  0.00     0.066 A 
BRANCH  13  15
ATOM     15  O   UNL d   1      28.504 -15.574  -5.992  0.00  0.00    -0.351 OA
BRANCH  15  16
ATOM     16  C   UNL d   1      29.801 -15.940  -5.494  0.00  0.00     0.180 C 
BRANCH  16  17
ATOM     17  C   UNL d   1      30.399 -17.048  -6.357  0.00  0.00     0.065 C 
BRANCH  17  18
ATOM     18  C   UNL d   1      30.603 -18.308  -5.550  0.00  0.00    -0.056 A 
ATOM     19  C   UNL d   1      31.020 -18.243  -4.215  0.00  0.00     0.007 A 
ATOM     20  C   UNL d   1      31.336 -19.413  -3.520  0.00  0.00     0.001 A 
ATOM     21  C   UNL d   1      31.163 -20.656  -4.125  0.00  0.00     0.000 A 
ATOM     22  C   UNL d   1      30.714 -20.733  -5.441  0.00  0.00     0.001 A 
ATOM     23  C   UNL d   1      30.439 -19.565  -6.151  0.00  0.00     0.007 A 
ENDBRANCH  17  18
ENDBRANCH  16  17
ENDBRANCH  15  16
ENDBRANCH  13  15
ENDBRANCH   7   9
ENDBRANCH   5   7
ENDBRANCH   3   5
BRANCH   2  24
ATOM     24  C   UNL d   1      25.971 -13.712  -2.564  0.00  0.00     0.103 C 
BRANCH  24  25
ATOM     25  C   UNL d   1      26.679 -15.039  -2.508  0.00  0.00     0.019 C 
BRANCH  25  26
ATOM     26  C   UNL d   1      25.684 -16.204  -2.696  0.00  0.00     0.111 C 
BRANCH  26  27
ATOM     27  C   UNL d   1      25.215 -16.671  -1.341  0.00  0.00     0.258 C 
ATOM     28  O   UNL d   1      25.919 -16.645  -0.327  0.00  0.00    -0.265 OA
BRANCH  27  29
ATOM     29  O   UNL d   1      23.931 -17.124  -1.360  0.00  0.00    -0.321 OA
BRANCH  29  30
ATOM     30  C   UNL d   1      23.724 -18.231  -0.462  0.00  0.00     0.179 C 
BRANCH  30  31
ATOM     31  C   UNL d   1      22.364 -18.115   0.213  0.00  0.00     0.031 C 
BRANCH  31  32
ATOM     32  C   UNL d   1      21.248 -18.669  -0.683  0.00  0.00     0.041 C 
BRANCH  32  33
ATOM     33  C   UNL d   1      20.268 -19.500   0.106  0.00  0.00    -0.058 A 
ATOM     34  C   UNL d   1      19.154 -20.075  -0.519  0.00  0.00     0.007 A 
ATOM     35  C   UNL d   1      18.188 -20.742   0.237  0.00  0.00     0.001 A 
ATOM     36  C   UNL d   1      18.368 -20.911   1.609  0.00  0.00     0.000 A 
ATOM     37  C   UNL d   1      19.492 -20.377   2.233  0.00  0.00     0.001 A 
ATOM     38  C   UNL d   1      20.435 -19.671   1.487  0.00  0.00     0.007 A 
ENDBRANCH  32  33
ENDBRANCH  31  32
ENDBRANCH  30  31
ENDBRANCH  29  30
ENDBRANCH  27  29
ENDBRANCH  26  27
ENDBRANCH  25  26
ENDBRANCH  24  25
ENDBRANCH   2  24
TORSDOF 16
ENDMDL
MODEL 3
REMARK VINA RESULT:    -9.422      3.834      7.025
REMARK INTER + INTRA:         -16.302
REMARK INTER:                 -14.194
REMARK INTRA:                  -2.107
REMARK CONF_INDEPENDENT:        4.773
REMARK UNBOUND:                -2.107
REMARK  16 active torsions:
REMARK  status: ('A' for Active; 'I' for Inactive)
REMARK    1  A    between atoms: C_2  and  C_3 
REMARK       I    between atoms: C_2  and  N_18 
REMARK    2  A    between atoms: C_3  and  C_4 
REMARK    3  A    between atoms: C_4  and  C_5 
REMARK    4  A    between atoms: C_5  and  C_6 
REMARK    5  A    between atoms: C_6  and  O_8 
REMARK    6  A    between atoms: O_8  and  C_9 
REMARK    7  A    between atoms: C_9  and  C_10 
REMARK    8  A    between atoms: C_10  and  C_11 
REMARK    9  A    between atoms: C_11  and  C_12 
REMARK   10  A    between atoms: N_18  and  C_19 
REMARK   11  A    between atoms: C_19  and  N_21 
REMARK   12  A    between atoms: N_21  and  C_22 
REMARK   13  A    between atoms: C_26  and  O_27 
REMARK   14  A    between atoms: O_27  and  C_28 
REMARK   15  A    between atoms: C_28  and  C_29 
REMARK   16  A    between atoms: C_29  and  C_30 
ROOT
ATOM      1  O   UNL d   1      26.648 -10.696  -3.908  0.00  0.00    -0.273 OA
ATOM      2  C   UNL d   1      26.705 -11.905  -3.688  0.00  0.00     0.223 C 
ATOM      3  N   UNL d   1      25.555 -12.707  -3.825  0.00  0.00    -0.304 N 
ATOM      4  H   UNL d   1      24.758 -12.134  -4.078  0.00  0.00     0.171 HD
ENDROOT
BRANCH   3   5
ATOM      5  C   UNL d   1      25.374 -14.109  -3.765  0.00  0.00     0.178 C 
ATOM      6  S   UNL d   1      25.922 -15.199  -4.944  0.00  0.00    -0.040 SA
BRANCH   5   7
ATOM      7  N   UNL d   1      24.661 -14.543  -2.627  0.00  0.00    -0.333 N 
ATOM      8  H   UNL d   1      23.710 -14.228  -2.476  0.00  0.00     0.168 HD
BRANCH   7   9
ATOM      9  C   UNL d   1      25.074 -15.700  -1.889  0.00  0.00     0.036 A 
ATOM     10  C   UNL d   1      26.362 -15.862  -1.392  0.00  0.00     0.029 A 
ATOM     11  C   UNL d   1      26.657 -16.998  -0.617  0.00  0.00     0.005 A 
ATOM     12  C   UNL d   1      25.659 -17.929  -0.286  0.00  0.00     0.037 A 
ATOM     13  C   UNL d   1      24.373 -17.775  -0.789  0.00  0.00     0.070 A 
ATOM     14  C   UNL d   1      24.121 -16.690  -1.621  0.00  0.00     0.066 A 
BRANCH  13  15
ATOM     15  O   UNL d   1      23.437 -18.715  -0.442  0.00  0.00    -0.351 OA
BRANCH  15  16
ATOM     16  C   UNL d   1      22.164 -18.189  -0.037  0.00  0.00     0.180 C 
BRANCH  16  17
ATOM     17  C   UNL d   1      21.048 -18.822  -0.865  0.00  0.00     0.065 C 
BRANCH  17  18
ATOM     18  C   UNL d   1      20.109 -19.612   0.014  0.00  0.00    -0.056 A 
ATOM     19  C   UNL d   1      18.963 -20.212  -0.520  0.00  0.00     0.007 A 
ATOM     20  C   UNL d   1      18.031 -20.824   0.322  0.00  0.00     0.001 A 
ATOM     21  C   UNL d   1      18.277 -20.911   1.692  0.00  0.00     0.000 A 
ATOM     22  C   UNL d   1      19.432 -20.350   2.229  0.00  0.00     0.001 A 
ATOM     23  C   UNL d   1      20.341 -19.700   1.396  0.00  0.00     0.007 A 
ENDBRANCH  17  18
ENDBRANCH  16  17
ENDBRANCH  15  16
ENDBRANCH  13  15
ENDBRANCH   7   9
ENDBRANCH   5   7
ENDBRANCH   3   5
BRANCH   2  24
ATOM     24  C   UNL d   1      27.983 -12.606  -3.262  0.00  0.00     0.103 C 
BRANCH  24  25
ATOM     25  C   UNL d   1      28.293 -12.714  -1.793  0.00  0.00     0.019 C 
BRANCH  25  26
ATOM     26  C   UNL d   1      27.010 -12.574  -0.947  0.00  0.00     0.111 C 
BRANCH  26  27
ATOM     27  C   UNL d   1      27.391 -12.206   0.465  0.00  0.00     0.258 C 
ATOM     28  O   UNL d   1      28.002 -11.175   0.762  0.00  0.00    -0.265 OA
BRANCH  27  29
ATOM     29  O   UNL d   1      26.988 -13.136   1.374  0.00  0.00    -0.321 OA
BRANCH  29  30
ATOM     30  C   UNL d   1      27.776 -14.340   1.318  0.00  0.00     0.179 C 
BRANCH  30  31
ATOM     31  C   UNL d   1      28.144 -14.795   2.724  0.00  0.00     0.031 C 
BRANCH  31  32
ATOM     32  C   UNL d   1      27.339 -14.033   3.785  0.00  0.00     0.041 C 
BRANCH  32  33
ATOM     33  C   UNL d   1      28.171 -13.750   5.011  0.00  0.00    -0.058 A 
ATOM     34  C   UNL d   1      29.318 -14.506   5.286  0.00  0.00     0.007 A 
ATOM     35  C   UNL d   1      30.015 -14.319   6.481  0.00  0.00     0.001 A 
ATOM     36  C   UNL d   1      29.621 -13.322   7.371  0.00  0.00     0.000 A 
ATOM     37  C   UNL d   1      28.506 -12.538   7.089  0.00  0.00     0.001 A 
ATOM     38  C   UNL d   1      27.781 -12.754   5.918  0.00  0.00     0.007 A 
ENDBRANCH  32  33
ENDBRANCH  31  32
ENDBRANCH  30  31
ENDBRANCH  29  30
ENDBRANCH  27  29
ENDBRANCH  26  27
ENDBRANCH  25  26
ENDBRANCH  24  25
ENDBRANCH   2  24
TORSDOF 16
ENDMDL
MODEL 4
REMARK VINA RESULT:    -9.363      1.359      2.035
REMARK INTER + INTRA:         -16.367
REMARK INTER:                 -14.135
REMARK INTRA:                  -2.231
REMARK CONF_INDEPENDENT:        4.773
REMARK UNBOUND:                -2.231
REMARK  16 active torsions:
REMARK  status: ('A' for Active; 'I' for Inactive)
REMARK    1  A    between atoms: C_2  and  C_3 
REMARK       I    between atoms: C_2  and  N_18 
REMARK    2  A    between atoms: C_3  and  C_4 
REMARK    3  A    between atoms: C_4  and  C_5 
REMARK    4  A    between atoms: C_5  and  C_6 
REMARK    5  A    between atoms: C_6  and  O_8 
REMARK    6  A    between atoms: O_8  and  C_9 
REMARK    7  A    between atoms: C_9  and  C_10 
REMARK    8  A    between atoms: C_10  and  C_11 
REMARK    9  A    between atoms: C_11  and  C_12 
REMARK   10  A    between atoms: N_18  and  C_19 
REMARK   11  A    between atoms: C_19  and  N_21 
REMARK   12  A    between atoms: N_21  and  C_22 
REMARK   13  A    between atoms: C_26  and  O_27 
REMARK   14  A    between atoms: O_27  and  C_28 
REMARK   15  A    between atoms: C_28  and  C_29 
REMARK   16  A    between atoms: C_29  and  C_30 
ROOT
ATOM      1  O   UNL d   1      30.440 -14.334  -1.690  0.00  0.00    -0.273 OA
ATOM      2  C   UNL d   1      29.346 -14.156  -1.156  0.00  0.00     0.223 C 
ATOM      3  N   UNL d   1      29.097 -14.656   0.137  0.00  0.00    -0.304 N 
ATOM      4  H   UNL d   1      29.905 -15.165   0.476  0.00  0.00     0.171 HD
ENDROOT
BRANCH   3   5
ATOM      5  C   UNL d   1      28.002 -14.484   1.016  0.00  0.00     0.178 C 
ATOM      6  S   UNL d   1      28.144 -14.111   2.665  0.00  0.00    -0.040 SA
BRANCH   5   7
ATOM      7  N   UNL d   1      26.744 -14.677   0.404  0.00  0.00    -0.333 N 
ATOM      8  H   UNL d   1      26.306 -13.916  -0.101  0.00  0.00     0.168 HD
BRANCH   7   9
ATOM      9  C   UNL d   1      26.244 -15.992   0.135  0.00  0.00     0.036 A 
ATOM     10  C   UNL d   1      26.931 -17.150   0.481  0.00  0.00     0.029 A 
ATOM     11  C   UNL d   1      26.328 -18.399   0.242  0.00  0.00     0.005 A 
ATOM     12  C   UNL d   1      25.026 -18.488  -0.275  0.00  0.00     0.037 A 
ATOM     13  C   UNL d   1      24.339 -17.333  -0.629  0.00  0.00     0.070 A 
ATOM     14  C   UNL d   1      24.983 -16.112  -0.463  0.00  0.00     0.066 A 
BRANCH  13  15
ATOM     15  O   UNL d   1      23.074 -17.475  -1.136  0.00  0.00    -0.351 OA
BRANCH  15  16
ATOM     16  C   UNL d   1      22.437 -18.729  -0.846  0.00  0.00     0.180 C 
BRANCH  16  17
ATOM     17  C   UNL d   1      20.952 -18.655  -1.192  0.00  0.00     0.065 C 
BRANCH  17  18
ATOM     18  C   UNL d   1      20.119 -19.350  -0.141  0.00  0.00    -0.056 A 
ATOM     19  C   UNL d   1      20.501 -19.328   1.205  0.00  0.00     0.007 A 
ATOM     20  C   UNL d   1      19.801 -20.086   2.147  0.00  0.00     0.001 A 
ATOM     21  C   UNL d   1      18.670 -20.805   1.766  0.00  0.00     0.000 A 
ATOM     22  C   UNL d   1      18.259 -20.804   0.436  0.00  0.00     0.001 A 
ATOM     23  C   UNL d   1      18.982 -20.083  -0.514  0.00  0.00     0.007 A 
ENDBRANCH  17  18
ENDBRANCH  16  17
ENDBRANCH  15  16
ENDBRANCH  13  15
ENDBRANCH   7   9
ENDBRANCH   5   7
ENDBRANCH   3   5
BRANCH   2  24
ATOM     24  C   UNL d   1      28.211 -13.405  -1.832  0.00  0.00     0.103 C 
BRANCH  24  25
ATOM     25  C   UNL d   1      27.061 -14.194  -2.401  0.00  0.00     0.019 C 
BRANCH  25  26
ATOM     26  C   UNL d   1      27.548 -15.168  -3.494  0.00  0.00     0.111 C 
BRANCH  26  27
ATOM     27  C   UNL d   1      26.544 -15.185  -4.618  0.00  0.00     0.258 C 
ATOM     28  O   UNL d   1      25.321 -15.182  -4.444  0.00  0.00    -0.265 OA
BRANCH  27  29
ATOM     29  O   UNL d   1      27.133 -15.203  -5.846  0.00  0.00    -0.321 OA
BRANCH  29  30
ATOM     30  C   UNL d   1      28.300 -14.362  -5.910  0.00  0.00     0.179 C 
BRANCH  30  31
ATOM     31  C   UNL d   1      29.325 -14.955  -6.868  0.00  0.00     0.031 C 
BRANCH  31  32
ATOM     32  C   UNL d   1      30.617 -15.340  -6.134  0.00  0.00     0.041 C 
BRANCH  32  33
ATOM     33  C   UNL d   1      30.572 -16.768  -5.650  0.00  0.00    -0.058 A 
ATOM     34  C   UNL d   1      30.738 -17.066  -4.292  0.00  0.00     0.007 A 
ATOM     35  C   UNL d   1      30.815 -18.393  -3.866  0.00  0.00     0.001 A 
ATOM     36  C   UNL d   1      30.644 -19.431  -4.780  0.00  0.00     0.000 A 
ATOM     37  C   UNL d   1      30.438 -19.145  -6.127  0.00  0.00     0.001 A 
ATOM     38  C   UNL d   1      30.407 -17.820  -6.561  0.00  0.00     0.007 A 
ENDBRANCH  32  33
ENDBRANCH  31  32
ENDBRANCH  30  31
ENDBRANCH  29  30
ENDBRANCH  27  29
ENDBRANCH  26  27
ENDBRANCH  25  26
ENDBRANCH  24  25
ENDBRANCH   2  24
TORSDOF 16
ENDMDL
MODEL 5
REMARK VINA RESULT:    -8.764      1.402      2.387
REMARK INTER + INTRA:         -17.206
REMARK INTER:                 -13.537
REMARK INTRA:                  -3.669
REMARK CONF_INDEPENDENT:        4.773
REMARK UNBOUND:                -3.669
REMARK  16 active torsions:
REMARK  status: ('A' for Active; 'I' for Inactive)
REMARK    1  A    between atoms: C_2  and  C_3 
REMARK       I    between atoms: C_2  and  N_18 
REMARK    2  A    between atoms: C_3  and  C_4 
REMARK    3  A    between atoms: C_4  and  C_5 
REMARK    4  A    between atoms: C_5  and  C_6 
REMARK    5  A    between atoms: C_6  and  O_8 
REMARK    6  A    between atoms: O_8  and  C_9 
REMARK    7  A    between atoms: C_9  and  C_10 
REMARK    8  A    between atoms: C_10  and  C_11 
REMARK    9  A    between atoms: C_11  and  C_12 
REMARK   10  A    between atoms: N_18  and  C_19 
REMARK   11  A    between atoms: C_19  and  N_21 
REMARK   12  A    between atoms: N_21  and  C_22 
REMARK   13  A    between atoms: C_26  and  O_27 
REMARK   14  A    between atoms: O_27  and  C_28 
REMARK   15  A    between atoms: C_28  and  C_29 
REMARK   16  A    between atoms: C_29  and  C_30 
ROOT
ATOM      1  O   UNL d   1      25.907 -11.457  -3.199  0.00  0.00    -0.273 OA
ATOM      2  C   UNL d   1      26.031 -12.551  -2.653  0.00  0.00     0.223 C 
ATOM      3  N   UNL d   1      26.890 -12.701  -1.546  0.00  0.00    -0.304 N 
ATOM      4  H   UNL d   1      27.357 -11.824  -1.346  0.00  0.00     0.171 HD
ENDROOT
BRANCH   3   5
ATOM      5  C   UNL d   1      27.114 -13.789  -0.670  0.00  0.00     0.178 C 
ATOM      6  S   UNL d   1      27.308 -13.644   1.010  0.00  0.00    -0.040 SA
BRANCH   5   7
ATOM      7  N   UNL d   1      27.189 -15.039  -1.321  0.00  0.00    -0.333 N 
ATOM      8  H   UNL d   1      27.949 -15.229  -1.964  0.00  0.00     0.168 HD
BRANCH   7   9
ATOM      9  C   UNL d   1      26.472 -16.177  -0.827  0.00  0.00     0.036 A 
ATOM     10  C   UNL d   1      27.063 -17.167  -0.051  0.00  0.00     0.029 A 
ATOM     11  C   UNL d   1      26.264 -18.210   0.450  0.00  0.00     0.005 A 
ATOM     12  C   UNL d   1      24.877 -18.229   0.233  0.00  0.00     0.037 A 
ATOM     13  C   UNL d   1      24.284 -17.246  -0.549  0.00  0.00     0.070 A 
ATOM     14  C   UNL d   1      25.103 -16.269  -1.104  0.00  0.00     0.066 A 
BRANCH  13  15
ATOM     15  O   UNL d   1      22.928 -17.314  -0.737  0.00  0.00    -0.351 OA
BRANCH  15  16
ATOM     16  C   UNL d   1      22.297 -18.495  -0.218  0.00  0.00     0.180 C 
BRANCH  16  17
ATOM     17  C   UNL d   1      20.948 -18.711  -0.898  0.00  0.00     0.065 C 
BRANCH  17  18
ATOM     18  C   UNL d   1      20.004 -19.465   0.008  0.00  0.00    -0.056 A 
ATOM     19  C   UNL d   1      20.289 -19.622   1.369  0.00  0.00     0.007 A 
ATOM     20  C   UNL d   1      19.481 -20.435   2.168  0.00  0.00     0.001 A 
ATOM     21  C   UNL d   1      18.340 -21.029   1.633  0.00  0.00     0.000 A 
ATOM     22  C   UNL d   1      18.026 -20.849   0.289  0.00  0.00     0.001 A 
ATOM     23  C   UNL d   1      18.856 -20.075  -0.521  0.00  0.00     0.007 A 
ENDBRANCH  17  18
ENDBRANCH  16  17
ENDBRANCH  15  16
ENDBRANCH  13  15
ENDBRANCH   7   9
ENDBRANCH   5   7
ENDBRANCH   3   5
BRANCH   2  24
ATOM     24  C   UNL d   1      25.289 -13.793  -3.117  0.00  0.00     0.103 C 
BRANCH  24  25
ATOM     25  C   UNL d   1      25.135 -14.032  -4.596  0.00  0.00     0.019 C 
BRANCH  25  26
ATOM     26  C   UNL d   1      25.839 -15.338  -5.020  0.00  0.00     0.111 C 
BRANCH  26  27
ATOM     27  C   UNL d   1      27.330 -15.117  -5.006  0.00  0.00     0.258 C 
ATOM     28  O   UNL d   1      27.978 -14.885  -3.980  0.00  0.00    -0.265 OA
BRANCH  27  29
ATOM     29  O   UNL d   1      27.883 -15.204  -6.247  0.00  0.00    -0.321 OA
BRANCH  29  30
ATOM     30  C   UNL d   1      29.314 -15.042  -6.226  0.00  0.00     0.179 C 
BRANCH  30  31
ATOM     31  C   UNL d   1      29.983 -16.331  -5.770  0.00  0.00     0.031 C 
BRANCH  31  32
ATOM     32  C   UNL d   1      31.176 -16.044  -4.847  0.00  0.00     0.041 C 
BRANCH  32  33
ATOM     33  C   UNL d   1      30.781 -16.128  -3.393  0.00  0.00    -0.058 A 
ATOM     34  C   UNL d   1      31.011 -15.050  -2.529  0.00  0.00     0.007 A 
ATOM     35  C   UNL d   1      30.754 -15.176  -1.163  0.00  0.00     0.001 A 
ATOM     36  C   UNL d   1      30.191 -16.349  -0.662  0.00  0.00     0.000 A 
ATOM     37  C   UNL d   1      29.922 -17.412  -1.520  0.00  0.00     0.001 A 
ATOM     38  C   UNL d   1      30.221 -17.305  -2.878  0.00  0.00     0.007 A 
ENDBRANCH  32  33
ENDBRANCH  31  32
ENDBRANCH  30  31
ENDBRANCH  29  30
ENDBRANCH  27  29
ENDBRANCH  26  27
ENDBRANCH  25  26
ENDBRANCH  24  25
ENDBRANCH   2  24
TORSDOF 16
ENDMDL
MODEL 6
REMARK VINA RESULT:    -8.594      2.379      3.920
REMARK INTER + INTRA:         -16.403
REMARK INTER:                 -13.367
REMARK INTRA:                  -3.036
REMARK CONF_INDEPENDENT:        4.773
REMARK UNBOUND:                -3.036
REMARK  16 active torsions:
REMARK  status: ('A' for Active; 'I' for Inactive)
REMARK    1  A    between atoms: C_2  and  C_3 
REMARK       I    between atoms: C_2  and  N_18 
REMARK    2  A    between atoms: C_3  and  C_4 
REMARK    3  A    between atoms: C_4  and  C_5 
REMARK    4  A    between atoms: C_5  and  C_6 
REMARK    5  A    between atoms: C_6  and  O_8 
REMARK    6  A    between atoms: O_8  and  C_9 
REMARK    7  A    between atoms: C_9  and  C_10 
REMARK    8  A    between atoms: C_10  and  C_11 
REMARK    9  A    between atoms: C_11  and  C_12 
REMARK   10  A    between atoms: N_18  and  C_19 
REMARK   11  A    between atoms: C_19  and  N_21 
REMARK   12  A    between atoms: N_21  and  C_22 
REMARK   13  A    between atoms: C_26  and  O_27 
REMARK   14  A    between atoms: O_27  and  C_28 
REMARK   15  A    between atoms: C_28  and  C_29 
REMARK   16  A    between atoms: C_29  and  C_30 
ROOT
ATOM      1  O   UNL d   1      30.126 -13.881   1.412  0.00  0.00    -0.273 OA
ATOM      2  C   UNL d   1      30.098 -14.559   0.387  0.00  0.00     0.223 C 
ATOM      3  N   UNL d   1      29.966 -15.959   0.462  0.00  0.00    -0.304 N 
ATOM      4  H   UNL d   1      29.941 -16.255   1.432  0.00  0.00     0.171 HD
ENDROOT
BRANCH   3   5
ATOM      5  C   UNL d   1      29.778 -16.941  -0.538  0.00  0.00     0.178 C 
ATOM      6  S   UNL d   1      30.737 -17.089  -1.931  0.00  0.00    -0.040 SA
BRANCH   5   7
ATOM      7  N   UNL d   1      28.685 -17.800  -0.295  0.00  0.00    -0.333 N 
ATOM      8  H   UNL d   1      28.816 -18.643   0.251  0.00  0.00     0.168 HD
BRANCH   7   9
ATOM      9  C   UNL d   1      27.335 -17.345  -0.452  0.00  0.00     0.036 A 
ATOM     10  C   UNL d   1      27.010 -16.106  -0.991  0.00  0.00     0.029 A 
ATOM     11  C   UNL d   1      25.655 -15.774  -1.172  0.00  0.00     0.005 A 
ATOM     12  C   UNL d   1      24.638 -16.697  -0.881  0.00  0.00     0.037 A 
ATOM     13  C   UNL d   1      24.958 -17.933  -0.334  0.00  0.00     0.070 A 
ATOM     14  C   UNL d   1      26.297 -18.211  -0.084  0.00  0.00     0.066 A 
BRANCH  13  15
ATOM     15  O   UNL d   1      23.928 -18.795  -0.061  0.00  0.00    -0.351 OA
BRANCH  15  16
ATOM     16  C   UNL d   1      22.661 -18.169   0.199  0.00  0.00     0.180 C 
BRANCH  16  17
ATOM     17  C   UNL d   1      21.589 -18.759  -0.713  0.00  0.00     0.065 C 
BRANCH  17  18
ATOM     18  C   UNL d   1      20.532 -19.476   0.093  0.00  0.00    -0.056 A 
ATOM     19  C   UNL d   1      19.435 -20.074  -0.537  0.00  0.00     0.007 A 
ATOM     20  C   UNL d   1      18.396 -20.616   0.224  0.00  0.00     0.001 A 
ATOM     21  C   UNL d   1      18.484 -20.635   1.615  0.00  0.00     0.000 A 
ATOM     22  C   UNL d   1      19.589 -20.076   2.251  0.00  0.00     0.001 A 
ATOM     23  C   UNL d   1      20.606 -19.496   1.494  0.00  0.00     0.007 A 
ENDBRANCH  17  18
ENDBRANCH  16  17
ENDBRANCH  15  16
ENDBRANCH  13  15
ENDBRANCH   7   9
ENDBRANCH   5   7
ENDBRANCH   3   5
BRANCH   2  24
ATOM     24  C   UNL d   1      30.201 -13.954  -1.003  0.00  0.00     0.103 C 
BRANCH  24  25
ATOM     25  C   UNL d   1      28.945 -13.802  -1.820  0.00  0.00     0.019 C 
BRANCH  25  26
ATOM     26  C   UNL d   1      28.364 -12.379  -1.679  0.00  0.00     0.111 C 
BRANCH  26  27
ATOM     27  C   UNL d   1      27.168 -12.246  -2.587  0.00  0.00     0.258 C 
ATOM     28  O   UNL d   1      27.041 -11.346  -3.424  0.00  0.00    -0.265 OA
BRANCH  27  29
ATOM     29  O   UNL d   1      26.245 -13.226  -2.383  0.00  0.00    -0.321 OA
BRANCH  29  30
ATOM     30  C   UNL d   1      25.152 -13.157  -3.319  0.00  0.00     0.179 C 
BRANCH  30  31
ATOM     31  C   UNL d   1      25.531 -13.845  -4.623  0.00  0.00     0.031 C 
BRANCH  31  32
ATOM     32  C   UNL d   1      26.284 -15.158  -4.363  0.00  0.00     0.041 C 
BRANCH  32  33
ATOM     33  C   UNL d   1      27.645 -15.151  -5.013  0.00  0.00    -0.058 A 
ATOM     34  C   UNL d   1      27.884 -14.387  -6.162  0.00  0.00     0.007 A 
ATOM     35  C   UNL d   1      29.108 -14.478  -6.826  0.00  0.00     0.001 A 
ATOM     36  C   UNL d   1      30.130 -15.268  -6.303  0.00  0.00     0.000 A 
ATOM     37  C   UNL d   1      29.916 -16.001  -5.140  0.00  0.00     0.001 A 
ATOM     38  C   UNL d   1      28.678 -15.948  -4.500  0.00  0.00     0.007 A 
ENDBRANCH  32  33
ENDBRANCH  31  32
ENDBRANCH  30  31
ENDBRANCH  29  30
ENDBRANCH  27  29
ENDBRANCH  26  27
ENDBRANCH  25  26
ENDBRANCH  24  25
ENDBRANCH   2  24
TORSDOF 16
ENDMDL
MODEL 7
REMARK VINA RESULT:    -8.506      2.591      6.006
REMARK INTER + INTRA:         -15.811
REMARK INTER:                 -13.279
REMARK INTRA:                  -2.532
REMARK CONF_INDEPENDENT:        4.773
REMARK UNBOUND:                -2.532
REMARK  16 active torsions:
REMARK  status: ('A' for Active; 'I' for Inactive)
REMARK    1  A    between atoms: C_2  and  C_3 
REMARK       I    between atoms: C_2  and  N_18 
REMARK    2  A    between atoms: C_3  and  C_4 
REMARK    3  A    between atoms: C_4  and  C_5 
REMARK    4  A    between atoms: C_5  and  C_6 
REMARK    5  A    between atoms: C_6  and  O_8 
REMARK    6  A    between atoms: O_8  and  C_9 
REMARK    7  A    between atoms: C_9  and  C_10 
REMARK    8  A    between atoms: C_10  and  C_11 
REMARK    9  A    between atoms: C_11  and  C_12 
REMARK   10  A    between atoms: N_18  and  C_19 
REMARK   11  A    between atoms: C_19  and  N_21 
REMARK   12  A    between atoms: N_21  and  C_22 
REMARK   13  A    between atoms: C_26  and  O_27 
REMARK   14  A    between atoms: O_27  and  C_28 
REMARK   15  A    between atoms: C_28  and  C_29 
REMARK   16  A    between atoms: C_29  and  C_30 
ROOT
ATOM      1  O   UNL d   1      27.278 -15.257  -6.144  0.00  0.00    -0.273 OA
ATOM      2  C   UNL d   1      27.176 -14.949  -4.959  0.00  0.00     0.223 C 
ATOM      3  N   UNL d   1      26.060 -14.218  -4.507  0.00  0.00    -0.304 N 
ATOM      4  H   UNL d   1      25.451 -13.995  -5.286  0.00  0.00     0.171 HD
ENDROOT
BRANCH   3   5
ATOM      5  C   UNL d   1      25.636 -13.856  -3.207  0.00  0.00     0.178 C 
ATOM      6  S   UNL d   1      26.148 -12.462  -2.384  0.00  0.00    -0.040 SA
BRANCH   5   7
ATOM      7  N   UNL d   1      24.749 -14.781  -2.618  0.00  0.00    -0.333 N 
ATOM      8  H   UNL d   1      23.828 -14.923  -3.016  0.00  0.00     0.168 HD
BRANCH   7   9
ATOM      9  C   UNL d   1      25.223 -15.801  -1.730  0.00  0.00     0.036 A 
ATOM     10  C   UNL d   1      26.515 -15.820  -1.218  0.00  0.00     0.029 A 
ATOM     11  C   UNL d   1      26.869 -16.821  -0.295  0.00  0.00     0.005 A 
ATOM     12  C   UNL d   1      25.923 -17.753   0.162  0.00  0.00     0.037 A 
ATOM     13  C   UNL d   1      24.633 -17.742  -0.353  0.00  0.00     0.070 A 
ATOM     14  C   UNL d   1      24.325 -16.798  -1.326  0.00  0.00     0.066 A 
BRANCH  13  15
ATOM     15  O   UNL d   1      23.750 -18.677   0.121  0.00  0.00    -0.351 OA
BRANCH  15  16
ATOM     16  C   UNL d   1      22.868 -19.239  -0.864  0.00  0.00     0.180 C 
BRANCH  16  17
ATOM     17  C   UNL d   1      21.557 -18.458  -0.899  0.00  0.00     0.065 C 
BRANCH  17  18
ATOM     18  C   UNL d   1      20.480 -19.182  -0.127  0.00  0.00    -0.056 A 
ATOM     19  C   UNL d   1      20.610 -19.402   1.249  0.00  0.00     0.007 A 
ATOM     20  C   UNL d   1      19.676 -20.188   1.927  0.00  0.00     0.001 A 
ATOM     21  C   UNL d   1      18.564 -20.692   1.254  0.00  0.00     0.000 A 
ATOM     22  C   UNL d   1      18.405 -20.448  -0.108  0.00  0.00     0.001 A 
ATOM     23  C   UNL d   1      19.360 -19.700  -0.796  0.00  0.00     0.007 A 
ENDBRANCH  17  18
ENDBRANCH  16  17
ENDBRANCH  15  16
ENDBRANCH  13  15
ENDBRANCH   7   9
ENDBRANCH   5   7
ENDBRANCH   3   5
BRANCH   2  24
ATOM     24  C   UNL d   1      28.217 -15.323  -3.917  0.00  0.00     0.103 C 
BRANCH  24  25
ATOM     25  C   UNL d   1      29.645 -14.902  -4.140  0.00  0.00     0.019 C 
BRANCH  25  26
ATOM     26  C   UNL d   1      30.617 -15.811  -3.358  0.00  0.00     0.111 C 
BRANCH  26  27
ATOM     27  C   UNL d   1      29.950 -16.258  -2.082  0.00  0.00     0.258 C 
ATOM     28  O   UNL d   1      29.435 -17.371  -1.933  0.00  0.00    -0.265 OA
BRANCH  27  29
ATOM     29  O   UNL d   1      29.978 -15.302  -1.113  0.00  0.00    -0.321 OA
BRANCH  29  30
ATOM     30  C   UNL d   1      30.206 -15.852   0.198  0.00  0.00     0.179 C 
BRANCH  30  31
ATOM     31  C   UNL d   1      29.859 -14.825   1.267  0.00  0.00     0.031 C 
BRANCH  31  32
ATOM     32  C   UNL d   1      28.341 -14.727   1.474  0.00  0.00     0.041 C 
BRANCH  32  33
ATOM     33  C   UNL d   1      27.969 -13.487   2.249  0.00  0.00    -0.058 A 
ATOM     34  C   UNL d   1      27.222 -12.467   1.647  0.00  0.00     0.007 A 
ATOM     35  C   UNL d   1      26.983 -11.273   2.329  0.00  0.00     0.001 A 
ATOM     36  C   UNL d   1      27.416 -11.120   3.645  0.00  0.00     0.000 A 
ATOM     37  C   UNL d   1      28.125 -12.144   4.266  0.00  0.00     0.001 A 
ATOM     38  C   UNL d   1      28.405 -13.321   3.571  0.00  0.00     0.007 A 
ENDBRANCH  32  33
ENDBRANCH  31  32
ENDBRANCH  30  31
ENDBRANCH  29  30
ENDBRANCH  27  29
ENDBRANCH  26  27
ENDBRANCH  25  26
ENDBRANCH  24  25
ENDBRANCH   2  24
TORSDOF 16
ENDMDL
MODEL 8
REMARK VINA RESULT:    -8.045      2.740      5.745
REMARK INTER + INTRA:         -16.515
REMARK INTER:                 -12.818
REMARK INTRA:                  -3.697
REMARK CONF_INDEPENDENT:        4.773
REMARK UNBOUND:                -3.697
REMARK  16 active torsions:
REMARK  status: ('A' for Active; 'I' for Inactive)
REMARK    1  A    between atoms: C_2  and  C_3 
REMARK       I    between atoms: C_2  and  N_18 
REMARK    2  A    between atoms: C_3  and  C_4 
REMARK    3  A    between atoms: C_4  and  C_5 
REMARK    4  A    between atoms: C_5  and  C_6 
REMARK    5  A    between atoms: C_6  and  O_8 
REMARK    6  A    between atoms: O_8  and  C_9 
REMARK    7  A    between atoms: C_9  and  C_10 
REMARK    8  A    between atoms: C_10  and  C_11 
REMARK    9  A    between atoms: C_11  and  C_12 
REMARK   10  A    between atoms: N_18  and  C_19 
REMARK   11  A    between atoms: C_19  and  N_21 
REMARK   12  A    between atoms: N_21  and  C_22 
REMARK   13  A    between atoms: C_26  and  O_27 
REMARK   14  A    between atoms: O_27  and  C_28 
REMARK   15  A    between atoms: C_28  and  C_29 
REMARK   16  A    between atoms: C_29  and  C_30 
ROOT
ATOM      1  O   UNL d   1      28.321 -15.568  -6.462  0.00  0.00    -0.273 OA
ATOM      2  C   UNL d   1      27.876 -14.914  -5.520  0.00  0.00     0.223 C 
ATOM      3  N   UNL d   1      26.758 -15.376  -4.799  0.00  0.00    -0.304 N 
ATOM      4  H   UNL d   1      26.417 -16.242  -5.200  0.00  0.00     0.171 HD
ENDROOT
BRANCH   3   5
ATOM      5  C   UNL d   1      26.138 -14.901  -3.620  0.00  0.00     0.178 C 
ATOM      6  S   UNL d   1      24.850 -13.795  -3.590  0.00  0.00    -0.040 SA
BRANCH   5   7
ATOM      7  N   UNL d   1      26.705 -15.411  -2.432  0.00  0.00    -0.333 N 
ATOM      8  H   UNL d   1      27.468 -14.918  -1.983  0.00  0.00     0.168 HD
BRANCH   7   9
ATOM      9  C   UNL d   1      26.007 -16.370  -1.629  0.00  0.00     0.036 A 
ATOM     10  C   UNL d   1      26.572 -16.984  -0.517  0.00  0.00     0.029 A 
ATOM     11  C   UNL d   1      25.786 -17.860   0.253  0.00  0.00     0.005 A 
ATOM     12  C   UNL d   1      24.430 -18.068  -0.045  0.00  0.00     0.037 A 
ATOM     13  C   UNL d   1      23.863 -17.464  -1.160  0.00  0.00     0.070 A 
ATOM     14  C   UNL d   1      24.678 -16.667  -1.957  0.00  0.00     0.066 A 
BRANCH  13  15
ATOM     15  O   UNL d   1      22.537 -17.705  -1.411  0.00  0.00    -0.351 OA
BRANCH  15  16
ATOM     16  C   UNL d   1      21.939 -18.729  -0.601  0.00  0.00     0.180 C 
BRANCH  16  17
ATOM     17  C   UNL d   1      20.455 -18.860  -0.933  0.00  0.00     0.065 C 
BRANCH  17  18
ATOM     18  C   UNL d   1      19.728 -19.624   0.147  0.00  0.00    -0.056 A 
ATOM     19  C   UNL d   1      20.161 -19.572   1.477  0.00  0.00     0.007 A 
ATOM     20  C   UNL d   1      19.566 -20.388   2.443  0.00  0.00     0.001 A 
ATOM     21  C   UNL d   1      18.484 -21.199   2.105  0.00  0.00     0.000 A 
ATOM     22  C   UNL d   1      18.021 -21.230   0.792  0.00  0.00     0.001 A 
ATOM     23  C   UNL d   1      18.642 -20.450  -0.183  0.00  0.00     0.007 A 
ENDBRANCH  17  18
ENDBRANCH  16  17
ENDBRANCH  15  16
ENDBRANCH  13  15
ENDBRANCH   7   9
ENDBRANCH   5   7
ENDBRANCH   3   5
BRANCH   2  24
ATOM     24  C   UNL d   1      28.482 -13.594  -5.074  0.00  0.00     0.103 C 
BRANCH  24  25
ATOM     25  C   UNL d   1      29.967 -13.525  -4.835  0.00  0.00     0.019 C 
BRANCH  25  26
ATOM     26  C   UNL d   1      30.273 -13.094  -3.385  0.00  0.00     0.111 C 
BRANCH  26  27
ATOM     27  C   UNL d   1      29.237 -13.693  -2.468  0.00  0.00     0.258 C 
ATOM     28  O   UNL d   1      29.362 -14.792  -1.919  0.00  0.00    -0.265 OA
BRANCH  27  29
ATOM     29  O   UNL d   1      28.150 -12.887  -2.310  0.00  0.00    -0.321 OA
BRANCH  29  30
ATOM     30  C   UNL d   1      28.027 -12.383  -0.967  0.00  0.00     0.179 C 
BRANCH  30  31
ATOM     31  C   UNL d   1      26.905 -13.105  -0.234  0.00  0.00     0.031 C 
BRANCH  31  32
ATOM     32  C   UNL d   1      26.723 -12.553   1.187  0.00  0.00     0.041 C 
BRANCH  32  33
ATOM     33  C   UNL d   1      27.629 -13.250   2.171  0.00  0.00    -0.058 A 
ATOM     34  C   UNL d   1      27.140 -13.683   3.409  0.00  0.00     0.007 A 
ATOM     35  C   UNL d   1      28.009 -14.218   4.362  0.00  0.00     0.001 A 
ATOM     36  C   UNL d   1      29.356 -14.400   4.055  0.00  0.00     0.000 A 
ATOM     37  C   UNL d   1      29.845 -14.009   2.812  0.00  0.00     0.001 A 
ATOM     38  C   UNL d   1      28.988 -13.432   1.875  0.00  0.00     0.007 A 
ENDBRANCH  32  33
ENDBRANCH  31  32
ENDBRANCH  30  31
ENDBRANCH  29  30
ENDBRANCH  27  29
ENDBRANCH  26  27
ENDBRANCH  25  26
ENDBRANCH  24  25
ENDBRANCH   2  24
TORSDOF 16
ENDMDL
MODEL 9
REMARK VINA RESULT:    -7.983      2.774      5.190
REMARK INTER + INTRA:         -16.015
REMARK INTER:                 -12.756
REMARK INTRA:                  -3.260
REMARK CONF_INDEPENDENT:        4.773
REMARK UNBOUND:                -3.260
REMARK  16 active torsions:
REMARK  status: ('A' for Active; 'I' for Inactive)
REMARK    1  A    between atoms: C_2  and  C_3 
REMARK       I    between atoms: C_2  and  N_18 
REMARK    2  A    between atoms: C_3  and  C_4 
REMARK    3  A    between atoms: C_4  and  C_5 
REMARK    4  A    between atoms: C_5  and  C_6 
REMARK    5  A    between atoms: C_6  and  O_8 
REMARK    6  A    between atoms: O_8  and  C_9 
REMARK    7  A    between atoms: C_9  and  C_10 
REMARK    8  A    between atoms: C_10  and  C_11 
REMARK    9  A    between atoms: C_11  and  C_12 
REMARK   10  A    between atoms: N_18  and  C_19 
REMARK   11  A    between atoms: C_19  and  N_21 
REMARK   12  A    between atoms: N_21  and  C_22 
REMARK   13  A    between atoms: C_26  and  O_27 
REMARK   14  A    between atoms: O_27  and  C_28 
REMARK   15  A    between atoms: C_28  and  C_29 
REMARK   16  A    between atoms: C_29  and  C_30 
ROOT
ATOM      1  O   UNL d   1      29.426 -12.878  -2.689  0.00  0.00    -0.273 OA
ATOM      2  C   UNL d   1      28.825 -13.721  -2.025  0.00  0.00     0.223 C 
ATOM      3  N   UNL d   1      28.086 -13.338  -0.889  0.00  0.00    -0.304 N 
ATOM      4  H   UNL d   1      28.176 -12.340  -0.735  0.00  0.00     0.171 HD
ENDROOT
BRANCH   3   5
ATOM      5  C   UNL d   1      27.216 -14.065  -0.044  0.00  0.00     0.178 C 
ATOM      6  S   UNL d   1      27.468 -14.304   1.617  0.00  0.00    -0.040 SA
BRANCH   5   7
ATOM      7  N   UNL d   1      26.101 -14.615  -0.712  0.00  0.00    -0.333 N 
ATOM      8  H   UNL d   1      25.753 -14.180  -1.559  0.00  0.00     0.168 HD
BRANCH   7   9
ATOM      9  C   UNL d   1      25.683 -15.965  -0.472  0.00  0.00     0.036 A 
ATOM     10  C   UNL d   1      26.561 -16.973  -0.090  0.00  0.00     0.029 A 
ATOM     11  C   UNL d   1      26.048 -18.252   0.195  0.00  0.00     0.005 A 
ATOM     12  C   UNL d   1      24.667 -18.503   0.162  0.00  0.00     0.037 A 
ATOM     13  C   UNL d   1      23.788 -17.501  -0.227  0.00  0.00     0.070 A 
ATOM     14  C   UNL d   1      24.320 -16.267  -0.585  0.00  0.00     0.066 A 
BRANCH  13  15
ATOM     15  O   UNL d   1      22.451 -17.800  -0.249  0.00  0.00    -0.351 OA
BRANCH  15  16
ATOM     16  C   UNL d   1      22.082 -18.885  -1.115  0.00  0.00     0.180 C 
BRANCH  16  17
ATOM     17  C   UNL d   1      20.564 -18.944  -1.263  0.00  0.00     0.065 C 
BRANCH  17  18
ATOM     18  C   UNL d   1      19.936 -19.657  -0.089  0.00  0.00    -0.056 A 
ATOM     19  C   UNL d   1      18.799 -20.455  -0.261  0.00  0.00     0.007 A 
ATOM     20  C   UNL d   1      18.147 -20.999   0.848  0.00  0.00     0.001 A 
ATOM     21  C   UNL d   1      18.670 -20.817   2.127  0.00  0.00     0.000 A 
ATOM     22  C   UNL d   1      19.822 -20.055   2.306  0.00  0.00     0.001 A 
ATOM     23  C   UNL d   1      20.449 -19.475   1.204  0.00  0.00     0.007 A 
ENDBRANCH  17  18
ENDBRANCH  16  17
ENDBRANCH  15  16
ENDBRANCH  13  15
ENDBRANCH   7   9
ENDBRANCH   5   7
ENDBRANCH   3   5
BRANCH   2  24
ATOM     24  C   UNL d   1      28.835 -15.201  -2.369  0.00  0.00     0.103 C 
BRANCH  24  25
ATOM     25  C   UNL d   1      27.619 -15.799  -3.026  0.00  0.00     0.019 C 
BRANCH  25  26
ATOM     26  C   UNL d   1      27.381 -15.176  -4.418  0.00  0.00     0.111 C 
BRANCH  26  27
ATOM     27  C   UNL d   1      26.068 -14.435  -4.406  0.00  0.00     0.258 C 
ATOM     28  O   UNL d   1      25.150 -14.683  -3.618  0.00  0.00    -0.265 OA
BRANCH  27  29
ATOM     29  O   UNL d   1      26.007 -13.464  -5.358  0.00  0.00    -0.321 OA
BRANCH  29  30
ATOM     30  C   UNL d   1      27.307 -13.099  -5.858  0.00  0.00     0.179 C 
BRANCH  30  31
ATOM     31  C   UNL d   1      27.288 -11.669  -6.382  0.00  0.00     0.031 C 
BRANCH  31  32
ATOM     32  C   UNL d   1      25.954 -10.978  -6.068  0.00  0.00     0.041 C 
BRANCH  32  33
ATOM     33  C   UNL d   1      26.023 -10.205  -4.775  0.00  0.00    -0.058 A 
ATOM     34  C   UNL d   1      26.543 -10.797  -3.617  0.00  0.00     0.007 A 
ATOM     35  C   UNL d   1      26.494 -10.119  -2.397  0.00  0.00     0.001 A 
ATOM     36  C   UNL d   1      26.002  -8.816  -2.340  0.00  0.00     0.000 A 
ATOM     37  C   UNL d   1      25.520  -8.205  -3.494  0.00  0.00     0.001 A 
ATOM     38  C   UNL d   1      25.524  -8.897  -4.705  0.00  0.00     0.007 A 
ENDBRANCH  32  33
ENDBRANCH  31  32
ENDBRANCH  30  31
ENDBRANCH  29  30
ENDBRANCH  27  29
ENDBRANCH  26  27
ENDBRANCH  25  26
ENDBRANCH  24  25
ENDBRANCH   2  24
TORSDOF 16
ENDMDL
