MODEL 1
REMARK VINA RESULT:   -32.292      0.000      0.000
REMARK INTER + INTRA:         -35.739
REMARK INTER:                 -34.976
REMARK INTRA:                  -0.763
REMARK CONF_INDEPENDENT:        2.685
REMARK UNBOUND:                -0.763
REMARK  9 active torsions:
REMARK  status: ('A' for Active; 'I' for Inactive)
REMARK       I    between atoms: C_2  and  N_3 
REMARK       I    between atoms: C_2  and  N_23 
REMARK    1  A    between atoms: N_3  and  C_4 
REMARK    2  A    between atoms: C_4  and  C_5 
REMARK    3  A    between atoms: C_5  and  C_6 
REMARK    4  A    between atoms: C_6  and  C_7 
REMARK    5  A    between atoms: C_7  and  C_8 
REMARK    6  A    between atoms: C_8  and  C_9 
REMARK    7  A    between atoms: C_9  and  N_10 
REMARK       I    between atoms: N_10  and  C_11 
REMARK       I    between atoms: C_11  and  N_13 
REMARK    8  A    between atoms: N_13  and  C_14 
REMARK    9  A    between atoms: N_23  and  C_24 
ROOT
ATOM      1  C   UNL d   1      27.194 -17.447  -0.240  0.00  0.00     0.002 C 
ENDROOT
BRANCH   1   2
ATOM      2  C   UNL d   1      25.825 -17.677   0.408  0.00  0.00     0.020 C 
BRANCH   2   3
ATOM      3  C   UNL d   1      25.157 -18.944  -0.131  0.00  0.00     0.124 C 
BRANCH   3   4
ATOM      4  N   UNL d   1      23.725 -18.776  -0.266  0.00  0.00    -0.343 N 
ATOM      5  C   UNL d   1      23.153 -17.765  -0.982  0.00  0.00     0.322 C 
ATOM      6  O   UNL d   1      23.823 -16.949  -1.615  0.00  0.00    -0.247 OA
ATOM      7  N   UNL d   1      21.789 -17.718  -1.048  0.00  0.00    -0.287 N 
ATOM      8  H   UNL d   1      21.433 -17.154  -1.807  0.00  0.00     0.172 HD
ATOM      9  H   UNL d   1      23.120 -19.427   0.212  0.00  0.00     0.164 HD
BRANCH   7  10
ATOM     10  C   UNL d   1      20.892 -18.574  -0.463  0.00  0.00     0.175 C 
ATOM     11  N   UNL d   1      19.822 -19.039  -1.059  0.00  0.00    -0.223 NA
ATOM     12  C   UNL d   1      19.173 -19.929  -0.207  0.00  0.00     0.076 A 
ATOM     13  C   UNL d   1      18.062 -20.740  -0.520  0.00  0.00     0.033 A 
ATOM     14  C   UNL d   1      19.702 -20.004   1.084  0.00  0.00     0.037 A 
ATOM     15  C   UNL d   1      17.509 -21.576   0.460  0.00  0.00     0.002 A 
ATOM     16  C   UNL d   1      18.044 -21.612   1.743  0.00  0.00     0.002 A 
ATOM     17  C   UNL d   1      19.148 -20.826   2.078  0.00  0.00     0.021 A 
ATOM     18  S   UNL d   1      21.065 -18.968   1.189  0.00  0.00    -0.050 SA
ENDBRANCH   7  10
ENDBRANCH   3   4
ENDBRANCH   2   3
ENDBRANCH   1   2
BRANCH   1  19
ATOM     19  C   UNL d   1      27.146 -16.348  -1.309  0.00  0.00     0.002 C 
BRANCH  19  20
ATOM     20  C   UNL d   1      27.832 -15.056  -0.828  0.00  0.00     0.020 C 
BRANCH  20  21
ATOM     21  C   UNL d   1      27.257 -14.564   0.507  0.00  0.00     0.124 C 
BRANCH  21  22
ATOM     22  N   UNL d   1      27.987 -15.019   1.692  0.00  0.00    -0.343 N 
ATOM     23  C   UNL d   1      27.923 -14.281   2.870  0.00  0.00     0.322 C 
ATOM     24  O   UNL d   1      27.278 -13.233   2.915  0.00  0.00    -0.247 OA
ATOM     25  N   UNL d   1      28.639 -14.825   3.919  0.00  0.00    -0.287 N 
ATOM     26  H   UNL d   1      29.410 -15.437   3.702  0.00  0.00     0.172 HD
ATOM     27  H   UNL d   1      28.548 -15.857   1.635  0.00  0.00     0.164 HD
BRANCH  25  28
ATOM     28  C   UNL d   1      28.771 -14.180   5.145  0.00  0.00     0.175 A 
ATOM     29  N   UNL d   1      28.717 -14.803   6.301  0.00  0.00    -0.223 NA
ATOM     30  C   UNL d   1      28.835 -13.882   7.349  0.00  0.00     0.076 A 
ATOM     31  C   UNL d   1      28.909 -14.174   8.732  0.00  0.00     0.033 A 
ATOM     32  C   UNL d   1      28.857 -12.540   6.959  0.00  0.00     0.037 A 
ATOM     33  C   UNL d   1      28.971 -13.138   9.677  0.00  0.00     0.002 A 
ATOM     34  C   UNL d   1      28.958 -11.812   9.265  0.00  0.00     0.002 A 
ATOM     35  C   UNL d   1      28.903 -11.491   7.903  0.00  0.00     0.021 A 
ATOM     36  S   UNL d   1      28.824 -12.471   5.234  0.00  0.00    -0.050 SA
ENDBRANCH  25  28
ENDBRANCH  21  22
ENDBRANCH  20  21
ENDBRANCH  19  20
ENDBRANCH   1  19
TORSDOF 9
ENDMDL
MODEL 2
REMARK VINA RESULT:   -30.698      5.428     11.052
REMARK INTER + INTRA:         -34.527
REMARK INTER:                 -33.383
REMARK INTRA:                  -1.143
REMARK CONF_INDEPENDENT:        2.685
REMARK UNBOUND:                -1.143
REMARK  9 active torsions:
REMARK  status: ('A' for Active; 'I' for Inactive)
REMARK       I    between atoms: C_2  and  N_3 
REMARK       I    between atoms: C_2  and  N_23 
REMARK    1  A    between atoms: N_3  and  C_4 
REMARK    2  A    between atoms: C_4  and  C_5 
REMARK    3  A    between atoms: C_5  and  C_6 
REMARK    4  A    between atoms: C_6  and  C_7 
REMARK    5  A    between atoms: C_7  and  C_8 
REMARK    6  A    between atoms: C_8  and  C_9 
REMARK    7  A    between atoms: C_9  and  N_10 
REMARK       I    between atoms: N_10  and  C_11 
REMARK       I    between atoms: C_11  and  N_13 
REMARK    8  A    between atoms: N_13  and  C_14 
REMARK    9  A    between atoms: N_23  and  C_24 
ROOT
ATOM      1  C   UNL d   1      27.945 -16.001  -0.754  0.00  0.00     0.002 C 
ENDROOT
BRANCH   1   2
ATOM      2  C   UNL d   1      28.392 -15.764  -2.200  0.00  0.00     0.020 C 
BRANCH   2   3
ATOM      3  C   UNL d   1      27.194 -15.670  -3.148  0.00  0.00     0.124 C 
BRANCH   3   4
ATOM      4  N   UNL d   1      26.762 -14.300  -3.328  0.00  0.00    -0.343 N 
ATOM      5  C   UNL d   1      25.723 -13.942  -4.135  0.00  0.00     0.322 C 
ATOM      6  O   UNL d   1      25.036 -14.773  -4.730  0.00  0.00    -0.247 OA
ATOM      7  N   UNL d   1      25.400 -12.616  -4.215  0.00  0.00    -0.287 N 
ATOM      8  H   UNL d   1      24.470 -12.440  -4.572  0.00  0.00     0.172 HD
ATOM      9  H   UNL d   1      27.271 -13.572  -2.849  0.00  0.00     0.164 HD
BRANCH   7  10
ATOM     10  C   UNL d   1      26.008 -11.566  -3.578  0.00  0.00     0.175 C 
ATOM     11  N   UNL d   1      26.881 -11.697  -2.610  0.00  0.00    -0.223 NA
ATOM     12  C   UNL d   1      27.346 -10.438  -2.239  0.00  0.00     0.076 A 
ATOM     13  C   UNL d   1      28.386 -10.157  -1.328  0.00  0.00     0.033 A 
ATOM     14  C   UNL d   1      26.694  -9.364  -2.849  0.00  0.00     0.037 A 
ATOM     15  C   UNL d   1      28.727  -8.827  -1.046  0.00  0.00     0.002 A 
ATOM     16  C   UNL d   1      28.044  -7.778  -1.652  0.00  0.00     0.002 A 
ATOM     17  C   UNL d   1      27.016  -8.028  -2.562  0.00  0.00     0.021 A 
ATOM     18  S   UNL d   1      25.517  -9.971  -3.939  0.00  0.00    -0.050 SA
ENDBRANCH   7  10
ENDBRANCH   3   4
ENDBRANCH   2   3
ENDBRANCH   1   2
BRANCH   1  19
ATOM     19  C   UNL d   1      27.604 -17.474  -0.493  0.00  0.00     0.002 C 
BRANCH  19  20
ATOM     20  C   UNL d   1      26.099 -17.672  -0.233  0.00  0.00     0.020 C 
BRANCH  20  21
ATOM     21  C   UNL d   1      25.267 -16.490  -0.748  0.00  0.00     0.124 C 
BRANCH  21  22
ATOM     22  N   UNL d   1      23.931 -16.846  -1.232  0.00  0.00    -0.343 N 
ATOM     23  C   UNL d   1      23.115 -17.670  -0.465  0.00  0.00     0.322 C 
ATOM     24  O   UNL d   1      23.518 -18.125   0.606  0.00  0.00    -0.247 OA
ATOM     25  N   UNL d   1      21.875 -17.917  -1.022  0.00  0.00    -0.287 N 
ATOM     26  H   UNL d   1      21.777 -17.832  -2.022  0.00  0.00     0.172 HD
ATOM     27  H   UNL d   1      23.624 -16.504  -2.132  0.00  0.00     0.164 HD
BRANCH  25  28
ATOM     28  C   UNL d   1      20.960 -18.794  -0.448  0.00  0.00     0.175 A 
ATOM     29  N   UNL d   1      19.903 -19.256  -1.079  0.00  0.00    -0.223 NA
ATOM     30  C   UNL d   1      19.154 -20.075  -0.226  0.00  0.00     0.076 A 
ATOM     31  C   UNL d   1      18.000 -20.822  -0.564  0.00  0.00     0.033 A 
ATOM     32  C   UNL d   1      19.604 -20.123   1.096  0.00  0.00     0.037 A 
ATOM     33  C   UNL d   1      17.317 -21.562   0.416  0.00  0.00     0.002 A 
ATOM     34  C   UNL d   1      17.767 -21.565   1.730  0.00  0.00     0.002 A 
ATOM     35  C   UNL d   1      18.915 -20.850   2.091  0.00  0.00     0.021 A 
ATOM     36  S   UNL d   1      21.051 -19.188   1.216  0.00  0.00    -0.050 SA
ENDBRANCH  25  28
ENDBRANCH  21  22
ENDBRANCH  20  21
ENDBRANCH  19  20
ENDBRANCH   1  19
TORSDOF 9
ENDMDL
MODEL 3
REMARK VINA RESULT:   -30.561      5.939     11.731
REMARK INTER + INTRA:         -34.479
REMARK INTER:                 -33.245
REMARK INTRA:                  -1.234
REMARK CONF_INDEPENDENT:        2.685
REMARK UNBOUND:                -1.234
REMARK  9 active torsions:
REMARK  status: ('A' for Active; 'I' for Inactive)
REMARK       I    between atoms: C_2  and  N_3 
REMARK       I    between atoms: C_2  and  N_23 
REMARK    1  A    between atoms: N_3  and  C_4 
REMARK    2  A    between atoms: C_4  and  C_5 
REMARK    3  A    between atoms: C_5  and  C_6 
REMARK    4  A    between atoms: C_6  and  C_7 
REMARK    5  A    between atoms: C_7  and  C_8 
REMARK    6  A    between atoms: C_8  and  C_9 
REMARK    7  A    between atoms: C_9  and  N_10 
REMARK       I    between atoms: N_10  and  C_11 
REMARK       I    between atoms: C_11  and  N_13 
REMARK    8  A    between atoms: N_13  and  C_14 
REMARK    9  A    between atoms: N_23  and  C_24 
ROOT
ATOM      1  C   UNL d   1      25.807 -15.008  -3.107  0.00  0.00     0.002 C 
ENDROOT
BRANCH   1   2
ATOM      2  C   UNL d   1      24.989 -13.843  -3.674  0.00  0.00     0.020 C 
BRANCH   2   3
ATOM      3  C   UNL d   1      25.842 -12.945  -4.572  0.00  0.00     0.124 C 
BRANCH   3   4
ATOM      4  N   UNL d   1      25.753 -11.555  -4.176  0.00  0.00    -0.343 N 
ATOM      5  C   UNL d   1      26.399 -11.043  -3.090  0.00  0.00     0.322 C 
ATOM      6  O   UNL d   1      27.155 -11.722  -2.394  0.00  0.00    -0.247 OA
ATOM      7  N   UNL d   1      26.249  -9.711  -2.823  0.00  0.00    -0.287 N 
ATOM      8  H   UNL d   1      26.959  -9.330  -2.212  0.00  0.00     0.172 HD
ATOM      9  H   UNL d   1      25.166 -10.940  -4.719  0.00  0.00     0.164 HD
BRANCH   7  10
ATOM     10  C   UNL d   1      25.505  -8.796  -3.521  0.00  0.00     0.175 C 
ATOM     11  N   UNL d   1      24.845  -9.067  -4.620  0.00  0.00    -0.223 NA
ATOM     12  C   UNL d   1      24.147  -7.933  -5.027  0.00  0.00     0.076 A 
ATOM     13  C   UNL d   1      23.217  -7.848  -6.085  0.00  0.00     0.033 A 
ATOM     14  C   UNL d   1      24.418  -6.777  -4.292  0.00  0.00     0.037 A 
ATOM     15  C   UNL d   1      22.607  -6.622  -6.382  0.00  0.00     0.002 A 
ATOM     16  C   UNL d   1      22.915  -5.482  -5.647  0.00  0.00     0.002 A 
ATOM     17  C   UNL d   1      23.825  -5.539  -4.591  0.00  0.00     0.021 A 
ATOM     18  S   UNL d   1      25.531  -7.156  -3.044  0.00  0.00    -0.050 SA
ENDBRANCH   7  10
ENDBRANCH   3   4
ENDBRANCH   2   3
ENDBRANCH   1   2
BRANCH   1  19
ATOM     19  C   UNL d   1      26.365 -14.692  -1.713  0.00  0.00     0.002 C 
BRANCH  19  20
ATOM     20  C   UNL d   1      25.987 -15.778  -0.689  0.00  0.00     0.020 C 
BRANCH  20  21
ATOM     21  C   UNL d   1      25.450 -17.045  -1.369  0.00  0.00     0.124 C 
BRANCH  21  22
ATOM     22  N   UNL d   1      23.995 -17.081  -1.534  0.00  0.00    -0.343 N 
ATOM     23  C   UNL d   1      23.237 -17.983  -0.796  0.00  0.00     0.322 C 
ATOM     24  O   UNL d   1      23.784 -18.772  -0.023  0.00  0.00    -0.247 OA
ATOM     25  N   UNL d   1      21.877 -17.906  -1.029  0.00  0.00    -0.287 N 
ATOM     26  H   UNL d   1      21.567 -17.528  -1.910  0.00  0.00     0.172 HD
ATOM     27  H   UNL d   1      23.558 -16.461  -2.202  0.00  0.00     0.164 HD
BRANCH  25  28
ATOM     28  C   UNL d   1      20.971 -18.792  -0.455  0.00  0.00     0.175 A 
ATOM     29  N   UNL d   1      19.905 -19.244  -1.079  0.00  0.00    -0.223 NA
ATOM     30  C   UNL d   1      19.168 -20.076  -0.228  0.00  0.00     0.076 A 
ATOM     31  C   UNL d   1      18.009 -20.819  -0.560  0.00  0.00     0.033 A 
ATOM     32  C   UNL d   1      19.636 -20.144   1.087  0.00  0.00     0.037 A 
ATOM     33  C   UNL d   1      17.340 -21.572   0.417  0.00  0.00     0.002 A 
ATOM     34  C   UNL d   1      17.807 -21.595   1.725  0.00  0.00     0.002 A 
ATOM     35  C   UNL d   1      18.960 -20.886   2.081  0.00  0.00     0.021 A 
ATOM     36  S   UNL d   1      21.084 -19.210   1.201  0.00  0.00    -0.050 SA
ENDBRANCH  25  28
ENDBRANCH  21  22
ENDBRANCH  20  21
ENDBRANCH  19  20
ENDBRANCH   1  19
TORSDOF 9
ENDMDL
MODEL 4
REMARK VINA RESULT:   -30.413      1.425     11.227
REMARK INTER + INTRA:         -34.038
REMARK INTER:                 -33.098
REMARK INTRA:                  -0.939
REMARK CONF_INDEPENDENT:        2.685
REMARK UNBOUND:                -0.939
REMARK  9 active torsions:
REMARK  status: ('A' for Active; 'I' for Inactive)
REMARK       I    between atoms: C_2  and  N_3 
REMARK       I    between atoms: C_2  and  N_23 
REMARK    1  A    between atoms: N_3  and  C_4 
REMARK    2  A    between atoms: C_4  and  C_5 
REMARK    3  A    between atoms: C_5  and  C_6 
REMARK    4  A    between atoms: C_6  and  C_7 
REMARK    5  A    between atoms: C_7  and  C_8 
REMARK    6  A    between atoms: C_8  and  C_9 
REMARK    7  A    between atoms: C_9  and  N_10 
REMARK       I    between atoms: N_10  and  C_11 
REMARK       I    between atoms: C_11  and  N_13 
REMARK    8  A    between atoms: N_13  and  C_14 
REMARK    9  A    between atoms: N_23  and  C_24 
ROOT
ATOM      1  C   UNL d   1      27.663 -13.411  -1.316  0.00  0.00     0.002 C 
ENDROOT
BRANCH   1   2
ATOM      2  C   UNL d   1      27.069 -12.851  -0.020  0.00  0.00     0.020 C 
BRANCH   2   3
ATOM      3  C   UNL d   1      28.152 -12.247   0.876  0.00  0.00     0.124 C 
BRANCH   3   4
ATOM      4  N   UNL d   1      28.234 -12.931   2.149  0.00  0.00    -0.343 N 
ATOM      5  C   UNL d   1      27.974 -14.261   2.304  0.00  0.00     0.322 C 
ATOM      6  O   UNL d   1      27.702 -14.992   1.351  0.00  0.00    -0.247 OA
ATOM      7  N   UNL d   1      28.098 -14.798   3.554  0.00  0.00    -0.287 N 
ATOM      8  H   UNL d   1      28.187 -15.805   3.563  0.00  0.00     0.172 HD
ATOM      9  H   UNL d   1      28.475 -12.392   2.967  0.00  0.00     0.164 HD
BRANCH   7  10
ATOM     10  C   UNL d   1      28.451 -14.154   4.711  0.00  0.00     0.175 C 
ATOM     11  N   UNL d   1      27.997 -12.978   5.069  0.00  0.00    -0.223 NA
ATOM     12  C   UNL d   1      28.506 -12.651   6.322  0.00  0.00     0.076 A 
ATOM     13  C   UNL d   1      28.155 -11.535   7.112  0.00  0.00     0.033 A 
ATOM     14  C   UNL d   1      29.460 -13.540   6.823  0.00  0.00     0.037 A 
ATOM     15  C   UNL d   1      28.774 -11.336   8.353  0.00  0.00     0.002 A 
ATOM     16  C   UNL d   1      29.738 -12.226   8.815  0.00  0.00     0.002 A 
ATOM     17  C   UNL d   1      30.098 -13.342   8.058  0.00  0.00     0.021 A 
ATOM     18  S   UNL d   1      29.667 -14.824   5.705  0.00  0.00    -0.050 SA
ENDBRANCH   7  10
ENDBRANCH   3   4
ENDBRANCH   2   3
ENDBRANCH   1   2
BRANCH   1  19
ATOM     19  C   UNL d   1      26.992 -14.727  -1.733  0.00  0.00     0.002 C 
BRANCH  19  20
ATOM     20  C   UNL d   1      25.572 -14.852  -1.151  0.00  0.00     0.020 C 
BRANCH  20  21
ATOM     21  C   UNL d   1      25.175 -16.316  -0.918  0.00  0.00     0.124 C 
BRANCH  21  22
ATOM     22  N   UNL d   1      23.809 -16.652  -1.327  0.00  0.00    -0.343 N 
ATOM     23  C   UNL d   1      23.051 -17.524  -0.554  0.00  0.00     0.322 C 
ATOM     24  O   UNL d   1      23.529 -18.039   0.457  0.00  0.00    -0.247 OA
ATOM     25  N   UNL d   1      21.775 -17.746  -1.037  0.00  0.00    -0.287 N 
ATOM     26  H   UNL d   1      21.607 -17.604  -2.020  0.00  0.00     0.172 HD
ATOM     27  H   UNL d   1      23.439 -16.260  -2.181  0.00  0.00     0.164 HD
BRANCH  25  28
ATOM     28  C   UNL d   1      20.905 -18.661  -0.452  0.00  0.00     0.175 A 
ATOM     29  N   UNL d   1      19.860 -19.165  -1.071  0.00  0.00    -0.223 NA
ATOM     30  C   UNL d   1      19.157 -20.016  -0.209  0.00  0.00     0.076 A 
ATOM     31  C   UNL d   1      18.030 -20.810  -0.533  0.00  0.00     0.033 A 
ATOM     32  C   UNL d   1      19.625 -20.048   1.107  0.00  0.00     0.037 A 
ATOM     33  C   UNL d   1      17.392 -21.579   0.453  0.00  0.00     0.002 A 
ATOM     34  C   UNL d   1      17.858 -21.565   1.762  0.00  0.00     0.002 A 
ATOM     35  C   UNL d   1      18.980 -20.804   2.109  0.00  0.00     0.021 A 
ATOM     36  S   UNL d   1      21.034 -19.053   1.210  0.00  0.00    -0.050 SA
ENDBRANCH  25  28
ENDBRANCH  21  22
ENDBRANCH  20  21
ENDBRANCH  19  20
ENDBRANCH   1  19
TORSDOF 9
ENDMDL
MODEL 5
REMARK VINA RESULT:   -30.395      1.811     10.783
REMARK INTER + INTRA:         -34.570
REMARK INTER:                 -33.080
REMARK INTRA:                  -1.490
REMARK CONF_INDEPENDENT:        2.685
REMARK UNBOUND:                -1.490
REMARK  9 active torsions:
REMARK  status: ('A' for Active; 'I' for Inactive)
REMARK       I    between atoms: C_2  and  N_3 
REMARK       I    between atoms: C_2  and  N_23 
REMARK    1  A    between atoms: N_3  and  C_4 
REMARK    2  A    between atoms: C_4  and  C_5 
REMARK    3  A    between atoms: C_5  and  C_6 
REMARK    4  A    between atoms: C_6  and  C_7 
REMARK    5  A    between atoms: C_7  and  C_8 
REMARK    6  A    between atoms: C_8  and  C_9 
REMARK    7  A    between atoms: C_9  and  N_10 
REMARK       I    between atoms: N_10  and  C_11 
REMARK       I    between atoms: C_11  and  N_13 
REMARK    8  A    between atoms: N_13  and  C_14 
REMARK    9  A    between atoms: N_23  and  C_24 
ROOT
ATOM      1  C   UNL d   1      27.479 -17.130   0.437  0.00  0.00     0.002 C 
ENDROOT
BRANCH   1   2
ATOM      2  C   UNL d   1      28.522 -17.409  -0.651  0.00  0.00     0.020 C 
BRANCH   2   3
ATOM      3  C   UNL d   1      29.760 -16.527  -0.477  0.00  0.00     0.124 C 
BRANCH   3   4
ATOM      4  N   UNL d   1      29.499 -15.407   0.402  0.00  0.00    -0.343 N 
ATOM      5  C   UNL d   1      29.349 -14.126  -0.040  0.00  0.00     0.322 C 
ATOM      6  O   UNL d   1      29.369 -13.838  -1.238  0.00  0.00    -0.247 OA
ATOM      7  N   UNL d   1      29.092 -13.154   0.884  0.00  0.00    -0.287 N 
ATOM      8  H   UNL d   1      28.703 -12.306   0.494  0.00  0.00     0.172 HD
ATOM      9  H   UNL d   1      29.448 -15.581   1.395  0.00  0.00     0.164 HD
BRANCH   7  10
ATOM     10  C   UNL d   1      28.972 -13.300   2.242  0.00  0.00     0.175 C 
ATOM     11  N   UNL d   1      29.721 -14.093   2.967  0.00  0.00    -0.223 NA
ATOM     12  C   UNL d   1      29.377 -13.949   4.308  0.00  0.00     0.076 A 
ATOM     13  C   UNL d   1      30.034 -14.526   5.416  0.00  0.00     0.033 A 
ATOM     14  C   UNL d   1      28.261 -13.143   4.549  0.00  0.00     0.037 A 
ATOM     15  C   UNL d   1      29.552 -14.297   6.711  0.00  0.00     0.002 A 
ATOM     16  C   UNL d   1      28.424 -13.508   6.918  0.00  0.00     0.002 A 
ATOM     17  C   UNL d   1      27.760 -12.920   5.841  0.00  0.00     0.021 A 
ATOM     18  S   UNL d   1      27.684 -12.529   3.056  0.00  0.00    -0.050 SA
ENDBRANCH   7  10
ENDBRANCH   3   4
ENDBRANCH   2   3
ENDBRANCH   1   2
BRANCH   1  19
ATOM     19  C   UNL d   1      26.672 -15.859   0.145  0.00  0.00     0.002 C 
BRANCH  19  20
ATOM     20  C   UNL d   1      26.079 -15.875  -1.276  0.00  0.00     0.020 C 
BRANCH  20  21
ATOM     21  C   UNL d   1      25.425 -17.223  -1.609  0.00  0.00     0.124 C 
BRANCH  21  22
ATOM     22  N   UNL d   1      23.963 -17.189  -1.695  0.00  0.00    -0.343 N 
ATOM     23  C   UNL d   1      23.205 -18.083  -0.946  0.00  0.00     0.322 C 
ATOM     24  O   UNL d   1      23.756 -18.922  -0.232  0.00  0.00    -0.247 OA
ATOM     25  N   UNL d   1      21.840 -17.938  -1.101  0.00  0.00    -0.287 N 
ATOM     26  H   UNL d   1      21.500 -17.516  -1.951  0.00  0.00     0.172 HD
ATOM     27  H   UNL d   1      23.519 -16.527  -2.316  0.00  0.00     0.164 HD
BRANCH  25  28
ATOM     28  C   UNL d   1      20.926 -18.803  -0.508  0.00  0.00     0.175 A 
ATOM     29  N   UNL d   1      19.864 -19.273  -1.127  0.00  0.00    -0.223 NA
ATOM     30  C   UNL d   1      19.118 -20.076  -0.257  0.00  0.00     0.076 A 
ATOM     31  C   UNL d   1      17.960 -20.825  -0.576  0.00  0.00     0.033 A 
ATOM     32  C   UNL d   1      19.574 -20.104   1.064  0.00  0.00     0.037 A 
ATOM     33  C   UNL d   1      17.280 -21.546   0.418  0.00  0.00     0.002 A 
ATOM     34  C   UNL d   1      17.736 -21.530   1.730  0.00  0.00     0.002 A 
ATOM     35  C   UNL d   1      18.887 -20.812   2.074  0.00  0.00     0.021 A 
ATOM     36  S   UNL d   1      21.024 -19.170   1.161  0.00  0.00    -0.050 SA
ENDBRANCH  25  28
ENDBRANCH  21  22
ENDBRANCH  20  21
ENDBRANCH  19  20
ENDBRANCH   1  19
TORSDOF 9
ENDMDL
MODEL 6
REMARK VINA RESULT:   -30.312      5.544     11.521
REMARK INTER + INTRA:         -34.406
REMARK INTER:                 -32.997
REMARK INTRA:                  -1.409
REMARK CONF_INDEPENDENT:        2.685
REMARK UNBOUND:                -1.409
REMARK  9 active torsions:
REMARK  status: ('A' for Active; 'I' for Inactive)
REMARK       I    between atoms: C_2  and  N_3 
REMARK       I    between atoms: C_2  and  N_23 
REMARK    1  A    between atoms: N_3  and  C_4 
REMARK    2  A    between atoms: C_4  and  C_5 
REMARK    3  A    between atoms: C_5  and  C_6 
REMARK    4  A    between atoms: C_6  and  C_7 
REMARK    5  A    between atoms: C_7  and  C_8 
REMARK    6  A    between atoms: C_8  and  C_9 
REMARK    7  A    between atoms: C_9  and  N_10 
REMARK       I    between atoms: N_10  and  C_11 
REMARK       I    between atoms: C_11  and  N_13 
REMARK    8  A    between atoms: N_13  and  C_14 
REMARK    9  A    between atoms: N_23  and  C_24 
ROOT
ATOM      1  C   UNL d   1      28.427 -16.443  -1.817  0.00  0.00     0.002 C 
ENDROOT
BRANCH   1   2
ATOM      2  C   UNL d   1      28.461 -15.170  -2.669  0.00  0.00     0.020 C 
BRANCH   2   3
ATOM      3  C   UNL d   1      27.778 -15.384  -4.022  0.00  0.00     0.124 C 
BRANCH   3   4
ATOM      4  N   UNL d   1      27.099 -14.188  -4.473  0.00  0.00    -0.343 N 
ATOM      5  C   UNL d   1      25.772 -13.956  -4.266  0.00  0.00     0.322 C 
ATOM      6  O   UNL d   1      25.062 -14.732  -3.624  0.00  0.00    -0.247 OA
ATOM      7  N   UNL d   1      25.245 -12.782  -4.727  0.00  0.00    -0.287 N 
ATOM      8  H   UNL d   1      24.364 -12.531  -4.301  0.00  0.00     0.172 HD
ATOM      9  H   UNL d   1      27.632 -13.501  -4.986  0.00  0.00     0.164 HD
BRANCH   7  10
ATOM     10  C   UNL d   1      25.895 -11.780  -5.400  0.00  0.00     0.175 C 
ATOM     11  N   UNL d   1      26.662 -11.971  -6.444  0.00  0.00    -0.223 NA
ATOM     12  C   UNL d   1      27.106 -10.740  -6.918  0.00  0.00     0.076 A 
ATOM     13  C   UNL d   1      27.842 -10.505  -8.099  0.00  0.00     0.033 A 
ATOM     14  C   UNL d   1      26.773  -9.644  -6.118  0.00  0.00     0.037 A 
ATOM     15  C   UNL d   1      28.232  -9.200  -8.430  0.00  0.00     0.002 A 
ATOM     16  C   UNL d   1      27.905  -8.131  -7.602  0.00  0.00     0.002 A 
ATOM     17  C   UNL d   1      27.171  -8.335  -6.433  0.00  0.00     0.021 A 
ATOM     18  S   UNL d   1      25.844 -10.188  -4.784  0.00  0.00    -0.050 SA
ENDBRANCH   7  10
ENDBRANCH   3   4
ENDBRANCH   2   3
ENDBRANCH   1   2
BRANCH   1  19
ATOM     19  C   UNL d   1      27.600 -16.255  -0.538  0.00  0.00     0.002 C 
BRANCH  19  20
ATOM     20  C   UNL d   1      26.127 -15.937  -0.854  0.00  0.00     0.020 C 
BRANCH  20  21
ATOM     21  C   UNL d   1      25.409 -17.130  -1.501  0.00  0.00     0.124 C 
BRANCH  21  22
ATOM     22  N   UNL d   1      23.947 -17.043  -1.491  0.00  0.00    -0.343 N 
ATOM     23  C   UNL d   1      23.202 -18.001  -0.812  0.00  0.00     0.322 C 
ATOM     24  O   UNL d   1      23.762 -18.938  -0.241  0.00  0.00    -0.247 OA
ATOM     25  N   UNL d   1      21.836 -17.798  -0.862  0.00  0.00    -0.287 N 
ATOM     26  H   UNL d   1      21.463 -17.263  -1.631  0.00  0.00     0.172 HD
ATOM     27  H   UNL d   1      23.493 -16.296  -1.997  0.00  0.00     0.164 HD
BRANCH  25  28
ATOM     28  C   UNL d   1      20.927 -18.703  -0.324  0.00  0.00     0.175 A 
ATOM     29  N   UNL d   1      19.905 -19.189  -0.993  0.00  0.00    -0.223 NA
ATOM     30  C   UNL d   1      19.151 -20.034  -0.170  0.00  0.00     0.076 A 
ATOM     31  C   UNL d   1      18.029 -20.810  -0.551  0.00  0.00     0.033 A 
ATOM     32  C   UNL d   1      19.556 -20.078   1.166  0.00  0.00     0.037 A 
ATOM     33  C   UNL d   1      17.335 -21.574   0.401  0.00  0.00     0.002 A 
ATOM     34  C   UNL d   1      17.739 -21.573   1.730  0.00  0.00     0.002 A 
ATOM     35  C   UNL d   1      18.855 -20.830   2.133  0.00  0.00     0.021 A 
ATOM     36  S   UNL d   1      20.972 -19.104   1.340  0.00  0.00    -0.050 SA
ENDBRANCH  25  28
ENDBRANCH  21  22
ENDBRANCH  20  21
ENDBRANCH  19  20
ENDBRANCH   1  19
TORSDOF 9
ENDMDL
MODEL 7
REMARK VINA RESULT:   -30.122      5.895     11.204
REMARK INTER + INTRA:         -34.201
REMARK INTER:                 -32.807
REMARK INTRA:                  -1.394
REMARK CONF_INDEPENDENT:        2.685
REMARK UNBOUND:                -1.394
REMARK  9 active torsions:
REMARK  status: ('A' for Active; 'I' for Inactive)
REMARK       I    between atoms: C_2  and  N_3 
REMARK       I    between atoms: C_2  and  N_23 
REMARK    1  A    between atoms: N_3  and  C_4 
REMARK    2  A    between atoms: C_4  and  C_5 
REMARK    3  A    between atoms: C_5  and  C_6 
REMARK    4  A    between atoms: C_6  and  C_7 
REMARK    5  A    between atoms: C_7  and  C_8 
REMARK    6  A    between atoms: C_8  and  C_9 
REMARK    7  A    between atoms: C_9  and  N_10 
REMARK       I    between atoms: N_10  and  C_11 
REMARK       I    between atoms: C_11  and  N_13 
REMARK    8  A    between atoms: N_13  and  C_14 
REMARK    9  A    between atoms: N_23  and  C_24 
ROOT
ATOM      1  C   UNL d   1      25.630 -14.089  -2.691  0.00  0.00     0.002 C 
ENDROOT
BRANCH   1   2
ATOM      2  C   UNL d   1      25.232 -13.242  -3.903  0.00  0.00     0.020 C 
BRANCH   2   3
ATOM      3  C   UNL d   1      26.400 -12.383  -4.392  0.00  0.00     0.124 C 
BRANCH   3   4
ATOM      4  N   UNL d   1      27.378 -13.171  -5.114  0.00  0.00    -0.343 N 
ATOM      5  C   UNL d   1      27.707 -12.946  -6.418  0.00  0.00     0.322 C 
ATOM      6  O   UNL d   1      27.232 -12.011  -7.063  0.00  0.00    -0.247 OA
ATOM      7  N   UNL d   1      28.655 -13.748  -6.987  0.00  0.00    -0.287 N 
ATOM      8  H   UNL d   1      29.068 -13.366  -7.827  0.00  0.00     0.172 HD
ATOM      9  H   UNL d   1      27.821 -13.939  -4.633  0.00  0.00     0.164 HD
BRANCH   7  10
ATOM     10  C   UNL d   1      29.332 -14.788  -6.406  0.00  0.00     0.175 C 
ATOM     11  N   UNL d   1      28.930 -15.420  -5.330  0.00  0.00    -0.223 NA
ATOM     12  C   UNL d   1      29.813 -16.459  -5.051  0.00  0.00     0.076 A 
ATOM     13  C   UNL d   1      29.664 -17.451  -4.059  0.00  0.00     0.033 A 
ATOM     14  C   UNL d   1      30.956 -16.494  -5.854  0.00  0.00     0.037 A 
ATOM     15  C   UNL d   1      30.657 -18.426  -3.891  0.00  0.00     0.002 A 
ATOM     16  C   UNL d   1      31.795 -18.422  -4.691  0.00  0.00     0.002 A 
ATOM     17  C   UNL d   1      31.964 -17.456  -5.684  0.00  0.00     0.021 A 
ATOM     18  S   UNL d   1      30.872 -15.224  -7.002  0.00  0.00    -0.050 SA
ENDBRANCH   7  10
ENDBRANCH   3   4
ENDBRANCH   2   3
ENDBRANCH   1   2
BRANCH   1  19
ATOM     19  C   UNL d   1      25.927 -15.544  -3.079  0.00  0.00     0.002 C 
BRANCH  19  20
ATOM     20  C   UNL d   1      26.295 -16.397  -1.852  0.00  0.00     0.020 C 
BRANCH  20  21
ATOM     21  C   UNL d   1      25.204 -16.353  -0.774  0.00  0.00     0.124 C 
BRANCH  21  22
ATOM     22  N   UNL d   1      23.865 -16.720  -1.243  0.00  0.00    -0.343 N 
ATOM     23  C   UNL d   1      23.072 -17.567  -0.477  0.00  0.00     0.322 C 
ATOM     24  O   UNL d   1      23.497 -18.034   0.580  0.00  0.00    -0.247 OA
ATOM     25  N   UNL d   1      21.827 -17.822  -1.020  0.00  0.00    -0.287 N 
ATOM     26  H   UNL d   1      21.713 -17.723  -2.016  0.00  0.00     0.172 HD
ATOM     27  H   UNL d   1      23.540 -16.368  -2.132  0.00  0.00     0.164 HD
BRANCH  25  28
ATOM     28  C   UNL d   1      20.933 -18.720  -0.446  0.00  0.00     0.175 A 
ATOM     29  N   UNL d   1      19.888 -19.208  -1.078  0.00  0.00    -0.223 NA
ATOM     30  C   UNL d   1      19.159 -20.045  -0.225  0.00  0.00     0.076 A 
ATOM     31  C   UNL d   1      18.023 -20.820  -0.564  0.00  0.00     0.033 A 
ATOM     32  C   UNL d   1      19.607 -20.081   1.097  0.00  0.00     0.037 A 
ATOM     33  C   UNL d   1      17.357 -21.575   0.415  0.00  0.00     0.002 A 
ATOM     34  C   UNL d   1      17.805 -21.567   1.730  0.00  0.00     0.002 A 
ATOM     35  C   UNL d   1      18.935 -20.824   2.092  0.00  0.00     0.021 A 
ATOM     36  S   UNL d   1      21.031 -19.110   1.219  0.00  0.00    -0.050 SA
ENDBRANCH  25  28
ENDBRANCH  21  22
ENDBRANCH  20  21
ENDBRANCH  19  20
ENDBRANCH   1  19
TORSDOF 9
ENDMDL
MODEL 8
REMARK VINA RESULT:   -29.913      6.016     11.124
REMARK INTER + INTRA:         -34.040
REMARK INTER:                 -32.598
REMARK INTRA:                  -1.442
REMARK CONF_INDEPENDENT:        2.685
REMARK UNBOUND:                -1.442
REMARK  9 active torsions:
REMARK  status: ('A' for Active; 'I' for Inactive)
REMARK       I    between atoms: C_2  and  N_3 
REMARK       I    between atoms: C_2  and  N_23 
REMARK    1  A    between atoms: N_3  and  C_4 
REMARK    2  A    between atoms: C_4  and  C_5 
REMARK    3  A    between atoms: C_5  and  C_6 
REMARK    4  A    between atoms: C_6  and  C_7 
REMARK    5  A    between atoms: C_7  and  C_8 
REMARK    6  A    between atoms: C_8  and  C_9 
REMARK    7  A    between atoms: C_9  and  N_10 
REMARK       I    between atoms: N_10  and  C_11 
REMARK       I    between atoms: C_11  and  N_13 
REMARK    8  A    between atoms: N_13  and  C_14 
REMARK    9  A    between atoms: N_23  and  C_24 
ROOT
ATOM      1  C   UNL d   1      26.193 -15.557  -4.192  0.00  0.00     0.002 C 
ENDROOT
BRANCH   1   2
ATOM      2  C   UNL d   1      26.163 -14.225  -4.948  0.00  0.00     0.020 C 
BRANCH   2   3
ATOM      3  C   UNL d   1      27.554 -13.840  -5.456  0.00  0.00     0.124 C 
BRANCH   3   4
ATOM      4  N   UNL d   1      28.563 -14.781  -5.017  0.00  0.00    -0.343 N 
ATOM      5  C   UNL d   1      29.445 -14.520  -4.011  0.00  0.00     0.322 C 
ATOM      6  O   UNL d   1      29.409 -13.474  -3.361  0.00  0.00    -0.247 OA
ATOM      7  N   UNL d   1      30.344 -15.493  -3.677  0.00  0.00    -0.287 N 
ATOM      8  H   UNL d   1      30.759 -15.374  -2.762  0.00  0.00     0.172 HD
ATOM      9  H   UNL d   1      28.629 -15.667  -5.495  0.00  0.00     0.164 HD
BRANCH   7  10
ATOM     10  C   UNL d   1      30.485 -16.733  -4.243  0.00  0.00     0.175 C 
ATOM     11  N   UNL d   1      30.314 -16.984  -5.518  0.00  0.00    -0.223 NA
ATOM     12  C   UNL d   1      30.601 -18.325  -5.763  0.00  0.00     0.076 A 
ATOM     13  C   UNL d   1      30.664 -18.958  -7.022  0.00  0.00     0.033 A 
ATOM     14  C   UNL d   1      30.845 -19.095  -4.624  0.00  0.00     0.037 A 
ATOM     15  C   UNL d   1      30.949 -20.328  -7.101  0.00  0.00     0.002 A 
ATOM     16  C   UNL d   1      31.166 -21.074  -5.947  0.00  0.00     0.002 A 
ATOM     17  C   UNL d   1      31.116 -20.471  -4.690  0.00  0.00     0.021 A 
ATOM     18  S   UNL d   1      30.758 -18.087  -3.239  0.00  0.00    -0.050 SA
ENDBRANCH   7  10
ENDBRANCH   3   4
ENDBRANCH   2   3
ENDBRANCH   1   2
BRANCH   1  19
ATOM     19  C   UNL d   1      25.463 -15.468  -2.845  0.00  0.00     0.002 C 
BRANCH  19  20
ATOM     20  C   UNL d   1      26.273 -16.131  -1.715  0.00  0.00     0.020 C 
BRANCH  20  21
ATOM     21  C   UNL d   1      25.516 -17.305  -1.080  0.00  0.00     0.124 C 
BRANCH  21  22
ATOM     22  N   UNL d   1      24.064 -17.276  -1.277  0.00  0.00    -0.343 N 
ATOM     23  C   UNL d   1      23.254 -18.163  -0.578  0.00  0.00     0.322 C 
ATOM     24  O   UNL d   1      23.750 -18.993   0.186  0.00  0.00    -0.247 OA
ATOM     25  N   UNL d   1      21.904 -18.023  -0.837  0.00  0.00    -0.287 N 
ATOM     26  H   UNL d   1      21.629 -17.610  -1.715  0.00  0.00     0.172 HD
ATOM     27  H   UNL d   1      23.669 -16.622  -1.937  0.00  0.00     0.164 HD
BRANCH  25  28
ATOM     28  C   UNL d   1      20.948 -18.883  -0.305  0.00  0.00     0.175 A 
ATOM     29  N   UNL d   1      19.904 -19.313  -0.979  0.00  0.00    -0.223 NA
ATOM     30  C   UNL d   1      19.106 -20.122  -0.162  0.00  0.00     0.076 A 
ATOM     31  C   UNL d   1      17.948 -20.839  -0.549  0.00  0.00     0.033 A 
ATOM     32  C   UNL d   1      19.506 -20.193   1.175  0.00  0.00     0.037 A 
ATOM     33  C   UNL d   1      17.213 -21.571   0.398  0.00  0.00     0.002 A 
ATOM     34  C   UNL d   1      17.613 -21.597   1.727  0.00  0.00     0.002 A 
ATOM     35  C   UNL d   1      18.764 -20.913   2.137  0.00  0.00     0.021 A 
ATOM     36  S   UNL d   1      20.969 -19.294   1.357  0.00  0.00    -0.050 SA
ENDBRANCH  25  28
ENDBRANCH  21  22
ENDBRANCH  20  21
ENDBRANCH  19  20
ENDBRANCH   1  19
TORSDOF 9
ENDMDL
MODEL 9
REMARK VINA RESULT:   -29.763      5.682     10.676
REMARK INTER + INTRA:         -34.049
REMARK INTER:                 -32.448
REMARK INTRA:                  -1.601
REMARK CONF_INDEPENDENT:        2.685
REMARK UNBOUND:                -1.601
REMARK  9 active torsions:
REMARK  status: ('A' for Active; 'I' for Inactive)
REMARK       I    between atoms: C_2  and  N_3 
REMARK       I    between atoms: C_2  and  N_23 
REMARK    1  A    between atoms: N_3  and  C_4 
REMARK    2  A    between atoms: C_4  and  C_5 
REMARK    3  A    between atoms: C_5  and  C_6 
REMARK    4  A    between atoms: C_6  and  C_7 
REMARK    5  A    between atoms: C_7  and  C_8 
REMARK    6  A    between atoms: C_8  and  C_9 
REMARK    7  A    between atoms: C_9  and  N_10 
REMARK       I    between atoms: N_10  and  C_11 
REMARK       I    between atoms: C_11  and  N_13 
REMARK    8  A    between atoms: N_13  and  C_14 
REMARK    9  A    between atoms: N_23  and  C_24 
ROOT
ATOM      1  C   UNL d   1      28.575 -16.233  -1.356  0.00  0.00     0.002 C 
ENDROOT
BRANCH   1   2
ATOM      2  C   UNL d   1      29.785 -17.171  -1.416  0.00  0.00     0.020 C 
BRANCH   2   3
ATOM      3  C   UNL d   1      30.243 -17.401  -2.858  0.00  0.00     0.124 C 
BRANCH   3   4
ATOM      4  N   UNL d   1      29.565 -16.515  -3.781  0.00  0.00    -0.343 N 
ATOM      5  C   UNL d   1      29.582 -16.686  -5.134  0.00  0.00     0.322 C 
ATOM      6  O   UNL d   1      30.135 -17.649  -5.667  0.00  0.00    -0.247 OA
ATOM      7  N   UNL d   1      28.893 -15.791  -5.903  0.00  0.00    -0.287 N 
ATOM      8  H   UNL d   1      28.692 -16.120  -6.837  0.00  0.00     0.172 HD
ATOM      9  H   UNL d   1      29.074 -15.718  -3.405  0.00  0.00     0.164 HD
BRANCH   7  10
ATOM     10  C   UNL d   1      28.173 -14.704  -5.481  0.00  0.00     0.175 C 
ATOM     11  N   UNL d   1      27.393 -14.701  -4.428  0.00  0.00    -0.223 NA
ATOM     12  C   UNL d   1      26.870 -13.423  -4.249  0.00  0.00     0.076 A 
ATOM     13  C   UNL d   1      26.094 -12.972  -3.160  0.00  0.00     0.033 A 
ATOM     14  C   UNL d   1      27.159 -12.517  -5.272  0.00  0.00     0.037 A 
ATOM     15  C   UNL d   1      25.624 -11.652  -3.136  0.00  0.00     0.002 A 
ATOM     16  C   UNL d   1      25.910 -10.780  -4.180  0.00  0.00     0.002 A 
ATOM     17  C   UNL d   1      26.681 -11.197  -5.266  0.00  0.00     0.021 A 
ATOM     18  S   UNL d   1      28.149 -13.291  -6.440  0.00  0.00    -0.050 SA
ENDBRANCH   7  10
ENDBRANCH   3   4
ENDBRANCH   2   3
ENDBRANCH   1   2
BRANCH   1  19
ATOM     19  C   UNL d   1      27.453 -16.801  -0.477  0.00  0.00     0.002 C 
BRANCH  19  20
ATOM     20  C   UNL d   1      26.083 -16.205  -0.849  0.00  0.00     0.020 C 
BRANCH  20  21
ATOM     21  C   UNL d   1      25.341 -17.070  -1.878  0.00  0.00     0.124 C 
BRANCH  21  22
ATOM     22  N   UNL d   1      23.880 -16.994  -1.802  0.00  0.00    -0.343 N 
ATOM     23  C   UNL d   1      23.174 -17.951  -1.082  0.00  0.00     0.322 C 
ATOM     24  O   UNL d   1      23.767 -18.878  -0.529  0.00  0.00    -0.247 OA
ATOM     25  N   UNL d   1      21.806 -17.758  -1.073  0.00  0.00    -0.287 N 
ATOM     26  H   UNL d   1      21.395 -17.233  -1.828  0.00  0.00     0.172 HD
ATOM     27  H   UNL d   1      23.398 -16.254  -2.294  0.00  0.00     0.164 HD
BRANCH  25  28
ATOM     28  C   UNL d   1      20.929 -18.665  -0.486  0.00  0.00     0.175 A 
ATOM     29  N   UNL d   1      19.895 -19.182  -1.112  0.00  0.00    -0.223 NA
ATOM     30  C   UNL d   1      19.181 -20.020  -0.247  0.00  0.00     0.076 A 
ATOM     31  C   UNL d   1      18.060 -20.822  -0.575  0.00  0.00     0.033 A 
ATOM     32  C   UNL d   1      19.628 -20.028   1.076  0.00  0.00     0.037 A 
ATOM     33  C   UNL d   1      17.408 -21.575   0.415  0.00  0.00     0.002 A 
ATOM     34  C   UNL d   1      17.854 -21.538   1.730  0.00  0.00     0.002 A 
ATOM     35  C   UNL d   1      18.969 -20.768   2.082  0.00  0.00     0.021 A 
ATOM     36  S   UNL d   1      21.033 -19.028   1.184  0.00  0.00    -0.050 SA
ENDBRANCH  25  28
ENDBRANCH  21  22
ENDBRANCH  20  21
ENDBRANCH  19  20
ENDBRANCH   1  19
TORSDOF 9
ENDMDL
