MODEL 1
REMARK VINA RESULT:    -8.145      0.000      0.000
REMARK INTER + INTRA:         -11.050
REMARK INTER:                  -9.636
REMARK INTRA:                  -1.414
REMARK CONF_INDEPENDENT:        1.492
REMARK UNBOUND:                -1.414
REMARK  5 active torsions:
REMARK  status: ('A' for Active; 'I' for Inactive)
REMARK    1  A    between atoms: O_2  and  C_3 
REMARK    2  A    between atoms: C_6  and  C_5 
REMARK    3  A    between atoms: C_19  and  S_20 
REMARK    4  A    between atoms: C_27  and  O_28 
REMARK    5  A    between atoms: C_30  and  O_31 
ROOT
ATOM      1  C   UNL d   1      26.591 -16.285  -1.783  0.00  0.00     0.100 C 
ATOM      2  C   UNL d   1      25.297 -16.808  -1.183  0.00  0.00     0.024 C 
ATOM      3  C   UNL d   1      24.107 -16.236  -1.464  0.00  0.00     0.022 C 
ATOM      4  C   UNL d   1      22.813 -16.736  -0.860  0.00  0.00     0.067 C 
ATOM      5  C   UNL d   1      22.917 -18.192  -0.353  0.00  0.00    -0.036 C 
ATOM      6  C   UNL d   1      23.074 -19.170  -1.546  0.00  0.00     0.015 C 
ATOM      7  C   UNL d   1      21.665 -18.575   0.435  0.00  0.00     0.015 C 
ATOM      8  C   UNL d   1      24.139 -18.285   0.564  0.00  0.00     0.092 C 
ATOM      9  C   UNL d   1      25.330 -18.028  -0.313  0.00  0.00     0.159 C 
ATOM     10  O   UNL d   1      26.228 -18.862  -0.394  0.00  0.00    -0.293 OA
ATOM     11  N   UNL d   1      24.039 -15.191  -2.364  0.00  0.00    -0.343 N 
ATOM     12  C   UNL d   1      25.103 -14.697  -3.100  0.00  0.00     0.143 A 
ATOM     13  N   UNL d   1      24.900 -13.660  -3.990  0.00  0.00    -0.206 NA
ATOM     14  C   UNL d   1      25.938 -13.160  -4.566  0.00  0.00     0.170 A 
ATOM     15  N   UNL d   1      27.204 -13.619  -4.388  0.00  0.00    -0.302 N 
ATOM     16  C   UNL d   1      27.472 -14.696  -3.612  0.00  0.00     0.258 A 
ATOM     17  O   UNL d   1      28.616 -15.137  -3.489  0.00  0.00    -0.267 OA
ATOM     18  C   UNL d   1      26.321 -15.241  -2.872  0.00  0.00     0.069 A 
ATOM     19  H   UNL d   1      23.135 -14.801  -2.611  0.00  0.00     0.167 HD
ATOM     20  H   UNL d   1      27.980 -13.178  -4.860  0.00  0.00     0.171 HD
ENDROOT
BRANCH   1  21
ATOM     21  C   UNL d   1      27.464 -15.723  -0.647  0.00  0.00    -0.039 A 
ATOM     22  C   UNL d   1      28.826 -16.036  -0.575  0.00  0.00     0.048 A 
ATOM     23  C   UNL d   1      29.620 -15.659   0.501  0.00  0.00     0.104 A 
ATOM     24  C   UNL d   1      29.088 -14.825   1.490  0.00  0.00     0.133 A 
ATOM     25  C   UNL d   1      27.747 -14.433   1.424  0.00  0.00     0.104 A 
ATOM     26  C   UNL d   1      26.948 -14.931   0.389  0.00  0.00     0.048 A 
BRANCH  23  27
ATOM     27  O   UNL d   1      30.885 -16.194   0.442  0.00  0.00    -0.353 OA
ATOM     28  C   UNL d   1      31.064 -17.325  -0.394  0.00  0.00     0.210 C 
ENDBRANCH  23  27
BRANCH  24  29
ATOM     29  O   UNL d   1      29.959 -14.470   2.474  0.00  0.00    -0.356 OA
ATOM     30  H   UNL d   1      30.425 -15.183   2.901  0.00  0.00     0.218 HD
ENDBRANCH  24  29
BRANCH  25  31
ATOM     31  O   UNL d   1      27.029 -13.610   2.252  0.00  0.00    -0.353 OA
ATOM     32  C   UNL d   1      27.352 -13.620   3.623  0.00  0.00     0.210 C 
ENDBRANCH  25  31
ENDBRANCH   1  21
BRANCH  14  33
ATOM     33  S   UNL d   1      25.899 -11.821  -5.679  0.00  0.00    -0.096 SA
ATOM     34  C   UNL d   1      25.976 -10.381  -4.593  0.00  0.00     0.099 C 
ENDBRANCH  14  33
TORSDOF 5
ENDMDL
MODEL 2
REMARK VINA RESULT:    -7.532      0.597      2.310
REMARK INTER + INTRA:         -10.709
REMARK INTER:                  -9.024
REMARK INTRA:                  -1.685
REMARK CONF_INDEPENDENT:        1.492
REMARK UNBOUND:                -1.685
REMARK  5 active torsions:
REMARK  status: ('A' for Active; 'I' for Inactive)
REMARK    1  A    between atoms: O_2  and  C_3 
REMARK    2  A    between atoms: C_6  and  C_5 
REMARK    3  A    between atoms: C_19  and  S_20 
REMARK    4  A    between atoms: C_27  and  O_28 
REMARK    5  A    between atoms: C_30  and  O_31 
ROOT
ATOM      1  C   UNL d   1      26.664 -16.148  -1.714  0.00  0.00     0.100 C 
ATOM      2  C   UNL d   1      25.374 -16.709  -1.137  0.00  0.00     0.024 C 
ATOM      3  C   UNL d   1      24.172 -16.187  -1.458  0.00  0.00     0.022 C 
ATOM      4  C   UNL d   1      22.882 -16.724  -0.878  0.00  0.00     0.067 C 
ATOM      5  C   UNL d   1      23.027 -18.168  -0.344  0.00  0.00    -0.036 C 
ATOM      6  C   UNL d   1      23.250 -19.158  -1.516  0.00  0.00     0.015 C 
ATOM      7  C   UNL d   1      21.770 -18.584   0.419  0.00  0.00     0.015 C 
ATOM      8  C   UNL d   1      24.228 -18.200   0.605  0.00  0.00     0.092 C 
ATOM      9  C   UNL d   1      25.430 -17.913  -0.246  0.00  0.00     0.159 C 
ATOM     10  O   UNL d   1      26.361 -18.714  -0.291  0.00  0.00    -0.293 OA
ATOM     11  N   UNL d   1      24.088 -15.159  -2.377  0.00  0.00    -0.343 N 
ATOM     12  C   UNL d   1      25.152 -14.638  -3.095  0.00  0.00     0.143 A 
ATOM     13  N   UNL d   1      24.934 -13.624  -4.007  0.00  0.00    -0.206 NA
ATOM     14  C   UNL d   1      25.967 -13.094  -4.565  0.00  0.00     0.170 A 
ATOM     15  N   UNL d   1      27.245 -13.503  -4.348  0.00  0.00    -0.302 N 
ATOM     16  C   UNL d   1      27.532 -14.557  -3.547  0.00  0.00     0.258 A 
ATOM     17  O   UNL d   1      28.688 -14.953  -3.388  0.00  0.00    -0.267 OA
ATOM     18  C   UNL d   1      26.383 -15.133  -2.827  0.00  0.00     0.069 A 
ATOM     19  H   UNL d   1      23.177 -14.807  -2.653  0.00  0.00     0.167 HD
ATOM     20  H   UNL d   1      28.016 -13.042  -4.808  0.00  0.00     0.171 HD
ENDROOT
BRANCH   1  21
ATOM     21  C   UNL d   1      27.486 -15.536  -0.566  0.00  0.00    -0.039 A 
ATOM     22  C   UNL d   1      26.872 -14.727   0.396  0.00  0.00     0.048 A 
ATOM     23  C   UNL d   1      27.596 -14.050   1.370  0.00  0.00     0.104 A 
ATOM     24  C   UNL d   1      28.970 -14.281   1.491  0.00  0.00     0.133 A 
ATOM     25  C   UNL d   1      29.616 -15.134   0.590  0.00  0.00     0.104 A 
ATOM     26  C   UNL d   1      28.873 -15.703  -0.451  0.00  0.00     0.048 A 
BRANCH  23  27
ATOM     27  O   UNL d   1      26.817 -13.198   2.116  0.00  0.00    -0.353 OA
ATOM     28  C   UNL d   1      26.656 -11.879   1.621  0.00  0.00     0.210 C 
ENDBRANCH  23  27
BRANCH  24  29
ATOM     29  O   UNL d   1      29.579 -13.611   2.507  0.00  0.00    -0.356 OA
ATOM     30  H   UNL d   1      29.014 -13.081   3.061  0.00  0.00     0.218 HD
ENDBRANCH  24  29
BRANCH  25  31
ATOM     31  O   UNL d   1      30.928 -15.524   0.534  0.00  0.00    -0.353 OA
ATOM     32  C   UNL d   1      31.198 -16.872   0.228  0.00  0.00     0.210 C 
ENDBRANCH  25  31
ENDBRANCH   1  21
BRANCH  14  33
ATOM     33  S   UNL d   1      25.907 -11.776  -5.701  0.00  0.00    -0.096 SA
ATOM     34  C   UNL d   1      25.905 -10.316  -4.638  0.00  0.00     0.099 C 
ENDBRANCH  14  33
TORSDOF 5
ENDMDL
MODEL 3
REMARK VINA RESULT:    -6.974      3.323      5.544
REMARK INTER + INTRA:         -10.185
REMARK INTER:                  -8.465
REMARK INTRA:                  -1.720
REMARK CONF_INDEPENDENT:        1.492
REMARK UNBOUND:                -1.720
REMARK  5 active torsions:
REMARK  status: ('A' for Active; 'I' for Inactive)
REMARK    1  A    between atoms: O_2  and  C_3 
REMARK    2  A    between atoms: C_6  and  C_5 
REMARK    3  A    between atoms: C_19  and  S_20 
REMARK    4  A    between atoms: C_27  and  O_28 
REMARK    5  A    between atoms: C_30  and  O_31 
ROOT
ATOM      1  C   UNL d   1      27.211 -14.849  -1.644  0.00  0.00     0.100 C 
ATOM      2  C   UNL d   1      26.188 -15.929  -1.330  0.00  0.00     0.024 C 
ATOM      3  C   UNL d   1      26.168 -16.555  -0.135  0.00  0.00     0.022 C 
ATOM      4  C   UNL d   1      25.167 -17.643   0.186  0.00  0.00     0.067 C 
ATOM      5  C   UNL d   1      23.921 -17.591  -0.728  0.00  0.00    -0.036 C 
ATOM      6  C   UNL d   1      23.079 -16.327  -0.423  0.00  0.00     0.015 C 
ATOM      7  C   UNL d   1      23.048 -18.827  -0.512  0.00  0.00     0.015 C 
ATOM      8  C   UNL d   1      24.404 -17.561  -2.180  0.00  0.00     0.092 C 
ATOM      9  C   UNL d   1      25.134 -16.260  -2.342  0.00  0.00     0.159 C 
ATOM     10  O   UNL d   1      24.780 -15.456  -3.201  0.00  0.00    -0.293 OA
ATOM     11  N   UNL d   1      27.049 -16.175   0.859  0.00  0.00    -0.343 N 
ATOM     12  C   UNL d   1      27.940 -15.118   0.778  0.00  0.00     0.143 A 
ATOM     13  N   UNL d   1      28.754 -14.822   1.854  0.00  0.00    -0.206 NA
ATOM     14  C   UNL d   1      29.644 -13.905   1.691  0.00  0.00     0.170 A 
ATOM     15  N   UNL d   1      29.797 -13.184   0.549  0.00  0.00    -0.302 N 
ATOM     16  C   UNL d   1      28.971 -13.344  -0.513  0.00  0.00     0.258 A 
ATOM     17  O   UNL d   1      29.084 -12.657  -1.529  0.00  0.00    -0.267 OA
ATOM     18  C   UNL d   1      27.996 -14.441  -0.393  0.00  0.00     0.069 A 
ATOM     19  H   UNL d   1      26.993 -16.613   1.772  0.00  0.00     0.167 HD
ATOM     20  H   UNL d   1      30.520 -12.484   0.478  0.00  0.00     0.171 HD
ENDROOT
BRANCH   1  21
ATOM     21  C   UNL d   1      28.133 -15.362  -2.765  0.00  0.00    -0.039 A 
ATOM     22  C   UNL d   1      27.892 -15.015  -4.099  0.00  0.00     0.048 A 
ATOM     23  C   UNL d   1      28.618 -15.559  -5.151  0.00  0.00     0.104 A 
ATOM     24  C   UNL d   1      29.718 -16.380  -4.877  0.00  0.00     0.133 A 
ATOM     25  C   UNL d   1      30.036 -16.701  -3.553  0.00  0.00     0.104 A 
ATOM     26  C   UNL d   1      29.208 -16.231  -2.527  0.00  0.00     0.048 A 
BRANCH  23  27
ATOM     27  O   UNL d   1      28.123 -15.199  -6.381  0.00  0.00    -0.353 OA
ATOM     28  C   UNL d   1      28.810 -14.168  -7.072  0.00  0.00     0.210 C 
ENDBRANCH  23  27
BRANCH  24  29
ATOM     29  O   UNL d   1      30.394 -16.821  -5.973  0.00  0.00    -0.356 OA
ATOM     30  H   UNL d   1      30.050 -16.549  -6.818  0.00  0.00     0.218 HD
ENDBRANCH  24  29
BRANCH  25  31
ATOM     31  O   UNL d   1      31.067 -17.452  -3.054  0.00  0.00    -0.353 OA
ATOM     32  C   UNL d   1      31.018 -17.808  -1.692  0.00  0.00     0.210 C 
ENDBRANCH  25  31
ENDBRANCH   1  21
BRANCH  14  33
ATOM     33  S   UNL d   1      30.795 -13.421   2.905  0.00  0.00    -0.096 SA
ATOM     34  C   UNL d   1      30.405 -14.502   4.297  0.00  0.00     0.099 C 
ENDBRANCH  14  33
TORSDOF 5
ENDMDL
MODEL 4
REMARK VINA RESULT:    -6.747      3.309      5.402
REMARK INTER + INTRA:         -10.002
REMARK INTER:                  -8.239
REMARK INTRA:                  -1.764
REMARK CONF_INDEPENDENT:        1.492
REMARK UNBOUND:                -1.764
REMARK  5 active torsions:
REMARK  status: ('A' for Active; 'I' for Inactive)
REMARK    1  A    between atoms: O_2  and  C_3 
REMARK    2  A    between atoms: C_6  and  C_5 
REMARK    3  A    between atoms: C_19  and  S_20 
REMARK    4  A    between atoms: C_27  and  O_28 
REMARK    5  A    between atoms: C_30  and  O_31 
ROOT
ATOM      1  C   UNL d   1      27.223 -14.859  -1.655  0.00  0.00     0.100 C 
ATOM      2  C   UNL d   1      26.200 -15.936  -1.331  0.00  0.00     0.024 C 
ATOM      3  C   UNL d   1      26.186 -16.560  -0.135  0.00  0.00     0.022 C 
ATOM      4  C   UNL d   1      25.185 -17.645   0.195  0.00  0.00     0.067 C 
ATOM      5  C   UNL d   1      23.933 -17.592  -0.711  0.00  0.00    -0.036 C 
ATOM      6  C   UNL d   1      23.096 -16.325  -0.403  0.00  0.00     0.015 C 
ATOM      7  C   UNL d   1      23.059 -18.826  -0.488  0.00  0.00     0.015 C 
ATOM      8  C   UNL d   1      24.406 -17.566  -2.167  0.00  0.00     0.092 C 
ATOM      9  C   UNL d   1      25.138 -16.267  -2.336  0.00  0.00     0.159 C 
ATOM     10  O   UNL d   1      24.780 -15.463  -3.194  0.00  0.00    -0.293 OA
ATOM     11  N   UNL d   1      27.075 -16.180   0.852  0.00  0.00    -0.343 N 
ATOM     12  C   UNL d   1      27.968 -15.125   0.763  0.00  0.00     0.143 A 
ATOM     13  N   UNL d   1      28.790 -14.829   1.833  0.00  0.00    -0.206 NA
ATOM     14  C   UNL d   1      29.681 -13.914   1.663  0.00  0.00     0.170 A 
ATOM     15  N   UNL d   1      29.827 -13.196   0.518  0.00  0.00    -0.302 N 
ATOM     16  C   UNL d   1      28.994 -13.355  -0.538  0.00  0.00     0.258 A 
ATOM     17  O   UNL d   1      29.101 -12.671  -1.556  0.00  0.00    -0.267 OA
ATOM     18  C   UNL d   1      28.017 -14.451  -0.410  0.00  0.00     0.069 A 
ATOM     19  H   UNL d   1      27.024 -16.616   1.767  0.00  0.00     0.167 HD
ATOM     20  H   UNL d   1      30.551 -12.497   0.441  0.00  0.00     0.171 HD
ENDROOT
BRANCH   1  21
ATOM     21  C   UNL d   1      28.136 -15.376  -2.780  0.00  0.00    -0.039 A 
ATOM     22  C   UNL d   1      29.274 -16.134  -2.481  0.00  0.00     0.048 A 
ATOM     23  C   UNL d   1      30.194 -16.509  -3.453  0.00  0.00     0.104 A 
ATOM     24  C   UNL d   1      29.921 -16.242  -4.799  0.00  0.00     0.133 A 
ATOM     25  C   UNL d   1      28.761 -15.543  -5.150  0.00  0.00     0.104 A 
ATOM     26  C   UNL d   1      27.920 -15.078  -4.133  0.00  0.00     0.048 A 
BRANCH  23  27
ATOM     27  O   UNL d   1      31.307 -17.117  -2.925  0.00  0.00    -0.353 OA
ATOM     28  C   UNL d   1      31.362 -17.239  -1.513  0.00  0.00     0.210 C 
ENDBRANCH  23  27
BRANCH  24  29
ATOM     29  O   UNL d   1      30.857 -16.694  -5.677  0.00  0.00    -0.356 OA
ATOM     30  H   UNL d   1      31.575 -17.198  -5.305  0.00  0.00     0.218 HD
ENDBRANCH  24  29
BRANCH  25  31
ATOM     31  O   UNL d   1      28.282 -15.200  -6.387  0.00  0.00    -0.353 OA
ATOM     32  C   UNL d   1      28.533 -13.893  -6.846  0.00  0.00     0.210 C 
ENDBRANCH  25  31
ENDBRANCH   1  21
BRANCH  14  33
ATOM     33  S   UNL d   1      30.841 -13.431   2.867  0.00  0.00    -0.096 SA
ATOM     34  C   UNL d   1      30.269 -14.281   4.355  0.00  0.00     0.099 C 
ENDBRANCH  14  33
TORSDOF 5
ENDMDL
MODEL 5
REMARK VINA RESULT:    -6.666      2.852      6.314
REMARK INTER + INTRA:          -9.652
REMARK INTER:                  -8.157
REMARK INTRA:                  -1.495
REMARK CONF_INDEPENDENT:        1.492
REMARK UNBOUND:                -1.495
REMARK  5 active torsions:
REMARK  status: ('A' for Active; 'I' for Inactive)
REMARK    1  A    between atoms: O_2  and  C_3 
REMARK    2  A    between atoms: C_6  and  C_5 
REMARK    3  A    between atoms: C_19  and  S_20 
REMARK    4  A    between atoms: C_27  and  O_28 
REMARK    5  A    between atoms: C_30  and  O_31 
ROOT
ATOM      1  C   UNL d   1      27.518 -14.928  -2.161  0.00  0.00     0.100 C 
ATOM      2  C   UNL d   1      26.982 -13.864  -3.105  0.00  0.00     0.024 C 
ATOM      3  C   UNL d   1      25.698 -13.870  -3.519  0.00  0.00     0.022 C 
ATOM      4  C   UNL d   1      25.155 -12.827  -4.471  0.00  0.00     0.067 C 
ATOM      5  C   UNL d   1      26.012 -11.541  -4.495  0.00  0.00    -0.036 C 
ATOM      6  C   UNL d   1      25.893 -10.788  -3.145  0.00  0.00     0.015 C 
ATOM      7  C   UNL d   1      25.553 -10.613  -5.618  0.00  0.00     0.015 C 
ATOM      8  C   UNL d   1      27.467 -11.949  -4.740  0.00  0.00     0.092 C 
ATOM      9  C   UNL d   1      27.879 -12.742  -3.534  0.00  0.00     0.159 C 
ATOM     10  O   UNL d   1      28.847 -12.390  -2.864  0.00  0.00    -0.293 OA
ATOM     11  N   UNL d   1      24.821 -14.821  -3.035  0.00  0.00    -0.343 N 
ATOM     12  C   UNL d   1      25.118 -15.764  -2.065  0.00  0.00     0.143 A 
ATOM     13  N   UNL d   1      24.142 -16.648  -1.645  0.00  0.00    -0.206 NA
ATOM     14  C   UNL d   1      24.496 -17.579  -0.827  0.00  0.00     0.170 A 
ATOM     15  N   UNL d   1      25.749 -17.712  -0.320  0.00  0.00    -0.302 N 
ATOM     16  C   UNL d   1      26.734 -16.825  -0.603  0.00  0.00     0.258 A 
ATOM     17  O   UNL d   1      27.856 -16.924  -0.105  0.00  0.00    -0.267 OA
ATOM     18  C   UNL d   1      26.388 -15.798  -1.600  0.00  0.00     0.069 A 
ATOM     19  H   UNL d   1      23.844 -14.787  -3.309  0.00  0.00     0.167 HD
ATOM     20  H   UNL d   1      25.969 -18.469   0.311  0.00  0.00     0.171 HD
ENDROOT
BRANCH   1  21
ATOM     21  C   UNL d   1      28.572 -15.761  -2.913  0.00  0.00    -0.039 A 
ATOM     22  C   UNL d   1      28.743 -15.612  -4.294  0.00  0.00     0.048 A 
ATOM     23  C   UNL d   1      29.587 -16.433  -5.031  0.00  0.00     0.104 A 
ATOM     24  C   UNL d   1      30.401 -17.357  -4.367  0.00  0.00     0.133 A 
ATOM     25  C   UNL d   1      30.310 -17.495  -2.977  0.00  0.00     0.104 A 
ATOM     26  C   UNL d   1      29.362 -16.734  -2.285  0.00  0.00     0.048 A 
BRANCH  23  27
ATOM     27  O   UNL d   1      29.494 -16.214  -6.384  0.00  0.00    -0.353 OA
ATOM     28  C   UNL d   1      29.281 -14.876  -6.804  0.00  0.00     0.210 C 
ENDBRANCH  23  27
BRANCH  24  29
ATOM     29  O   UNL d   1      31.230 -18.078  -5.171  0.00  0.00    -0.356 OA
ATOM     30  H   UNL d   1      31.165 -17.905  -6.106  0.00  0.00     0.218 HD
ENDBRANCH  24  29
BRANCH  25  31
ATOM     31  O   UNL d   1      31.017 -18.302  -2.126  0.00  0.00    -0.353 OA
ATOM     32  C   UNL d   1      30.824 -18.122  -0.742  0.00  0.00     0.210 C 
ENDBRANCH  25  31
ENDBRANCH   1  21
BRANCH  14  33
ATOM     33  S   UNL d   1      23.431 -18.816  -0.221  0.00  0.00    -0.096 SA
ATOM     34  C   UNL d   1      21.824 -18.342  -0.895  0.00  0.00     0.099 C 
ENDBRANCH  14  33
TORSDOF 5
ENDMDL
MODEL 6
REMARK VINA RESULT:    -6.597      2.814      6.237
REMARK INTER + INTRA:          -9.654
REMARK INTER:                  -8.089
REMARK INTRA:                  -1.565
REMARK CONF_INDEPENDENT:        1.492
REMARK UNBOUND:                -1.565
REMARK  5 active torsions:
REMARK  status: ('A' for Active; 'I' for Inactive)
REMARK    1  A    between atoms: O_2  and  C_3 
REMARK    2  A    between atoms: C_6  and  C_5 
REMARK    3  A    between atoms: C_19  and  S_20 
REMARK    4  A    between atoms: C_27  and  O_28 
REMARK    5  A    between atoms: C_30  and  O_31 
ROOT
ATOM      1  C   UNL d   1      27.464 -15.052  -2.002  0.00  0.00     0.100 C 
ATOM      2  C   UNL d   1      26.998 -14.002  -2.997  0.00  0.00     0.024 C 
ATOM      3  C   UNL d   1      25.739 -13.999  -3.482  0.00  0.00     0.022 C 
ATOM      4  C   UNL d   1      25.266 -12.970  -4.485  0.00  0.00     0.067 C 
ATOM      5  C   UNL d   1      26.142 -11.696  -4.486  0.00  0.00    -0.036 C 
ATOM      6  C   UNL d   1      25.958 -10.912  -3.162  0.00  0.00     0.015 C 
ATOM      7  C   UNL d   1      25.760 -10.786  -5.653  0.00  0.00     0.015 C 
ATOM      8  C   UNL d   1      27.602 -12.129  -4.641  0.00  0.00     0.092 C 
ATOM      9  C   UNL d   1      27.934 -12.902  -3.397  0.00  0.00     0.159 C 
ATOM     10  O   UNL d   1      28.868 -12.548  -2.682  0.00  0.00    -0.293 OA
ATOM     11  N   UNL d   1      24.822 -14.928  -3.029  0.00  0.00    -0.343 N 
ATOM     12  C   UNL d   1      25.050 -15.854  -2.024  0.00  0.00     0.143 A 
ATOM     13  N   UNL d   1      24.040 -16.715  -1.642  0.00  0.00    -0.206 NA
ATOM     14  C   UNL d   1      24.333 -17.632  -0.787  0.00  0.00     0.170 A 
ATOM     15  N   UNL d   1      25.554 -17.772  -0.207  0.00  0.00    -0.302 N 
ATOM     16  C   UNL d   1      26.566 -16.905  -0.452  0.00  0.00     0.258 A 
ATOM     17  O   UNL d   1      27.657 -17.008   0.110  0.00  0.00    -0.267 OA
ATOM     18  C   UNL d   1      26.292 -15.894  -1.488  0.00  0.00     0.069 A 
ATOM     19  H   UNL d   1      23.863 -14.886  -3.358  0.00  0.00     0.167 HD
ATOM     20  H   UNL d   1      25.727 -18.518   0.451  0.00  0.00     0.171 HD
ENDROOT
BRANCH   1  21
ATOM     21  C   UNL d   1      28.546 -15.916  -2.676  0.00  0.00    -0.039 A 
ATOM     22  C   UNL d   1      29.427 -16.682  -1.905  0.00  0.00     0.048 A 
ATOM     23  C   UNL d   1      30.497 -17.370  -2.463  0.00  0.00     0.104 A 
ATOM     24  C   UNL d   1      30.634 -17.419  -3.854  0.00  0.00     0.133 A 
ATOM     25  C   UNL d   1      29.736 -16.721  -4.668  0.00  0.00     0.104 A 
ATOM     26  C   UNL d   1      28.743 -15.941  -4.064  0.00  0.00     0.048 A 
BRANCH  23  27
ATOM     27  O   UNL d   1      31.319 -17.932  -1.516  0.00  0.00    -0.353 OA
ATOM     28  C   UNL d   1      31.097 -17.554  -0.168  0.00  0.00     0.210 C 
ENDBRANCH  23  27
BRANCH  24  29
ATOM     29  O   UNL d   1      31.683 -18.161  -4.303  0.00  0.00    -0.356 OA
ATOM     30  H   UNL d   1      32.235 -18.558  -3.636  0.00  0.00     0.218 HD
ENDBRANCH  24  29
BRANCH  25  31
ATOM     31  O   UNL d   1      29.660 -16.650  -6.035  0.00  0.00    -0.353 OA
ATOM     32  C   UNL d   1      30.047 -15.442  -6.649  0.00  0.00     0.210 C 
ENDBRANCH  25  31
ENDBRANCH   1  21
BRANCH  14  33
ATOM     33  S   UNL d   1      23.218 -18.842  -0.216  0.00  0.00    -0.096 SA
ATOM     34  C   UNL d   1      21.636 -18.297  -0.896  0.00  0.00     0.099 C 
ENDBRANCH  14  33
TORSDOF 5
ENDMDL
MODEL 7
REMARK VINA RESULT:    -6.417      3.214      6.462
REMARK INTER + INTRA:          -9.632
REMARK INTER:                  -7.908
REMARK INTRA:                  -1.724
REMARK CONF_INDEPENDENT:        1.492
REMARK UNBOUND:                -1.724
REMARK  5 active torsions:
REMARK  status: ('A' for Active; 'I' for Inactive)
REMARK    1  A    between atoms: O_2  and  C_3 
REMARK    2  A    between atoms: C_6  and  C_5 
REMARK    3  A    between atoms: C_19  and  S_20 
REMARK    4  A    between atoms: C_27  and  O_28 
REMARK    5  A    between atoms: C_30  and  O_31 
ROOT
ATOM      1  C   UNL d   1      28.430 -14.021  -1.403  0.00  0.00     0.100 C 
ATOM      2  C   UNL d   1      28.129 -13.919   0.083  0.00  0.00     0.024 C 
ATOM      3  C   UNL d   1      28.464 -14.906   0.941  0.00  0.00     0.022 C 
ATOM      4  C   UNL d   1      28.155 -14.825   2.420  0.00  0.00     0.067 C 
ATOM      5  C   UNL d   1      27.921 -13.374   2.899  0.00  0.00    -0.036 C 
ATOM      6  C   UNL d   1      29.242 -12.565   2.837  0.00  0.00     0.015 C 
ATOM      7  C   UNL d   1      27.405 -13.363   4.337  0.00  0.00     0.015 C 
ATOM      8  C   UNL d   1      26.874 -12.738   1.982  0.00  0.00     0.092 C 
ATOM      9  C   UNL d   1      27.508 -12.666   0.623  0.00  0.00     0.159 C 
ATOM     10  O   UNL d   1      27.617 -11.585   0.049  0.00  0.00    -0.293 OA
ATOM     11  N   UNL d   1      29.151 -16.013   0.484  0.00  0.00    -0.343 N 
ATOM     12  C   UNL d   1      29.623 -16.187  -0.807  0.00  0.00     0.143 A 
ATOM     13  N   UNL d   1      30.322 -17.333  -1.134  0.00  0.00    -0.206 NA
ATOM     14  C   UNL d   1      30.640 -17.502  -2.371  0.00  0.00     0.170 A 
ATOM     15  N   UNL d   1      30.373 -16.606  -3.356  0.00  0.00    -0.302 N 
ATOM     16  C   UNL d   1      29.784 -15.413  -3.098  0.00  0.00     0.258 A 
ATOM     17  O   UNL d   1      29.585 -14.584  -3.987  0.00  0.00    -0.267 OA
ATOM     18  C   UNL d   1      29.331 -15.222  -1.709  0.00  0.00     0.069 A 
ATOM     19  H   UNL d   1      29.447 -16.726   1.143  0.00  0.00     0.167 HD
ATOM     20  H   UNL d   1      30.639 -16.798  -4.310  0.00  0.00     0.171 HD
ENDROOT
BRANCH   1  21
ATOM     21  C   UNL d   1      27.096 -14.087  -2.168  0.00  0.00    -0.039 A 
ATOM     22  C   UNL d   1      26.853 -13.231  -3.248  0.00  0.00     0.048 A 
ATOM     23  C   UNL d   1      25.618 -13.166  -3.881  0.00  0.00     0.104 A 
ATOM     24  C   UNL d   1      24.615 -14.075  -3.528  0.00  0.00     0.133 A 
ATOM     25  C   UNL d   1      24.837 -14.993  -2.496  0.00  0.00     0.104 A 
ATOM     26  C   UNL d   1      26.051 -14.947  -1.802  0.00  0.00     0.048 A 
BRANCH  23  27
ATOM     27  O   UNL d   1      25.551 -12.159  -4.814  0.00  0.00    -0.353 OA
ATOM     28  C   UNL d   1      26.756 -11.823  -5.482  0.00  0.00     0.210 C 
ENDBRANCH  23  27
BRANCH  24  29
ATOM     29  O   UNL d   1      23.461 -13.965  -4.241  0.00  0.00    -0.356 OA
ATOM     30  H   UNL d   1      23.445 -13.293  -4.917  0.00  0.00     0.218 HD
ENDBRANCH  24  29
BRANCH  25  31
ATOM     31  O   UNL d   1      24.022 -15.980  -2.006  0.00  0.00    -0.353 OA
ATOM     32  C   UNL d   1      24.572 -16.876  -1.069  0.00  0.00     0.210 C 
ENDBRANCH  25  31
ENDBRANCH   1  21
BRANCH  14  33
ATOM     33  S   UNL d   1      31.475 -18.898  -2.992  0.00  0.00    -0.096 SA
ATOM     34  C   UNL d   1      30.782 -19.089  -4.649  0.00  0.00     0.099 C 
ENDBRANCH  14  33
TORSDOF 5
ENDMDL
MODEL 8
REMARK VINA RESULT:    -6.097      3.476      7.174
REMARK INTER + INTRA:          -9.328
REMARK INTER:                  -7.588
REMARK INTRA:                  -1.740
REMARK CONF_INDEPENDENT:        1.492
REMARK UNBOUND:                -1.740
REMARK  5 active torsions:
REMARK  status: ('A' for Active; 'I' for Inactive)
REMARK    1  A    between atoms: O_2  and  C_3 
REMARK    2  A    between atoms: C_6  and  C_5 
REMARK    3  A    between atoms: C_19  and  S_20 
REMARK    4  A    between atoms: C_27  and  O_28 
REMARK    5  A    between atoms: C_30  and  O_31 
ROOT
ATOM      1  C   UNL d   1      26.749 -13.958  -4.565  0.00  0.00     0.100 C 
ATOM      2  C   UNL d   1      28.204 -14.253  -4.889  0.00  0.00     0.024 C 
ATOM      3  C   UNL d   1      28.927 -15.127  -4.157  0.00  0.00     0.022 C 
ATOM      4  C   UNL d   1      30.381 -15.417  -4.458  0.00  0.00     0.067 C 
ATOM      5  C   UNL d   1      30.773 -15.049  -5.907  0.00  0.00    -0.036 C 
ATOM      6  C   UNL d   1      30.076 -15.999  -6.914  0.00  0.00     0.015 C 
ATOM      7  C   UNL d   1      32.285 -15.156  -6.096  0.00  0.00     0.015 C 
ATOM      8  C   UNL d   1      30.334 -13.604  -6.161  0.00  0.00     0.092 C 
ATOM      9  C   UNL d   1      28.834 -13.613  -6.089  0.00  0.00     0.159 C 
ATOM     10  O   UNL d   1      28.168 -13.222  -7.044  0.00  0.00    -0.293 OA
ATOM     11  N   UNL d   1      28.329 -15.824  -3.125  0.00  0.00    -0.343 N 
ATOM     12  C   UNL d   1      26.983 -15.774  -2.800  0.00  0.00     0.143 A 
ATOM     13  N   UNL d   1      26.501 -16.541  -1.757  0.00  0.00    -0.206 NA
ATOM     14  C   UNL d   1      25.269 -16.376  -1.418  0.00  0.00     0.170 A 
ATOM     15  N   UNL d   1      24.410 -15.534  -2.051  0.00  0.00    -0.302 N 
ATOM     16  C   UNL d   1      24.780 -14.825  -3.145  0.00  0.00     0.258 A 
ATOM     17  O   UNL d   1      23.986 -14.097  -3.743  0.00  0.00    -0.267 OA
ATOM     18  C   UNL d   1      26.204 -14.925  -3.509  0.00  0.00     0.069 A 
ATOM     19  H   UNL d   1      28.864 -16.518  -2.614  0.00  0.00     0.167 HD
ATOM     20  H   UNL d   1      23.457 -15.439  -1.733  0.00  0.00     0.171 HD
ENDROOT
BRANCH   1  21
ATOM     21  C   UNL d   1      26.636 -12.489  -4.118  0.00  0.00    -0.039 A 
ATOM     22  C   UNL d   1      27.094 -12.093  -2.857  0.00  0.00     0.048 A 
ATOM     23  C   UNL d   1      26.895 -10.810  -2.363  0.00  0.00     0.104 A 
ATOM     24  C   UNL d   1      26.338  -9.831  -3.194  0.00  0.00     0.133 A 
ATOM     25  C   UNL d   1      25.924 -10.168  -4.487  0.00  0.00     0.104 A 
ATOM     26  C   UNL d   1      26.032 -11.499  -4.905  0.00  0.00     0.048 A 
BRANCH  23  27
ATOM     27  O   UNL d   1      27.289 -10.676  -1.054  0.00  0.00    -0.353 OA
ATOM     28  C   UNL d   1      27.597 -11.870  -0.352  0.00  0.00     0.210 C 
ENDBRANCH  23  27
BRANCH  24  29
ATOM     29  O   UNL d   1      26.231  -8.595  -2.635  0.00  0.00    -0.356 OA
ATOM     30  H   UNL d   1      26.542  -8.509  -1.739  0.00  0.00     0.218 HD
ENDBRANCH  24  29
BRANCH  25  31
ATOM     31  O   UNL d   1      25.387  -9.380  -5.471  0.00  0.00    -0.353 OA
ATOM     32  C   UNL d   1      24.396  -8.452  -5.098  0.00  0.00     0.210 C 
ENDBRANCH  25  31
ENDBRANCH   1  21
BRANCH  14  33
ATOM     33  S   UNL d   1      24.488 -17.208  -0.104  0.00  0.00    -0.096 SA
ATOM     34  C   UNL d   1      23.079 -18.008  -0.901  0.00  0.00     0.099 C 
ENDBRANCH  14  33
TORSDOF 5
ENDMDL
MODEL 9
REMARK VINA RESULT:    -6.075      3.457      6.269
REMARK INTER + INTRA:          -9.304
REMARK INTER:                  -7.566
REMARK INTRA:                  -1.738
REMARK CONF_INDEPENDENT:        1.492
REMARK UNBOUND:                -1.738
REMARK  5 active torsions:
REMARK  status: ('A' for Active; 'I' for Inactive)
REMARK    1  A    between atoms: O_2  and  C_3 
REMARK    2  A    between atoms: C_6  and  C_5 
REMARK    3  A    between atoms: C_19  and  S_20 
REMARK    4  A    between atoms: C_27  and  O_28 
REMARK    5  A    between atoms: C_30  and  O_31 
ROOT
ATOM      1  C   UNL d   1      29.561 -15.318  -4.183  0.00  0.00     0.100 C 
ATOM      2  C   UNL d   1      30.001 -16.605  -4.863  0.00  0.00     0.024 C 
ATOM      3  C   UNL d   1      30.031 -16.717  -6.208  0.00  0.00     0.022 C 
ATOM      4  C   UNL d   1      30.449 -17.997  -6.898  0.00  0.00     0.067 C 
ATOM      5  C   UNL d   1      31.292 -18.916  -5.985  0.00  0.00    -0.036 C 
ATOM      6  C   UNL d   1      32.675 -18.276  -5.703  0.00  0.00     0.015 C 
ATOM      7  C   UNL d   1      31.506 -20.277  -6.646  0.00  0.00     0.015 C 
ATOM      8  C   UNL d   1      30.526 -19.107  -4.673  0.00  0.00     0.092 C 
ATOM      9  C   UNL d   1      30.477 -17.753  -4.027  0.00  0.00     0.159 C 
ATOM     10  O   UNL d   1      30.933 -17.592  -2.897  0.00  0.00    -0.293 OA
ATOM     11  N   UNL d   1      29.718 -15.629  -6.999  0.00  0.00    -0.343 N 
ATOM     12  C   UNL d   1      29.440 -14.354  -6.534  0.00  0.00     0.143 A 
ATOM     13  N   UNL d   1      29.165 -13.341  -7.431  0.00  0.00    -0.206 NA
ATOM     14  C   UNL d   1      28.801 -12.203  -6.949  0.00  0.00     0.170 A 
ATOM     15  N   UNL d   1      28.718 -11.929  -5.621  0.00  0.00    -0.302 N 
ATOM     16  C   UNL d   1      29.069 -12.837  -4.680  0.00  0.00     0.258 A 
ATOM     17  O   UNL d   1      29.035 -12.570  -3.478  0.00  0.00    -0.267 OA
ATOM     18  C   UNL d   1      29.410 -14.176  -5.192  0.00  0.00     0.069 A 
ATOM     19  H   UNL d   1      29.794 -15.705  -8.008  0.00  0.00     0.167 HD
ATOM     20  H   UNL d   1      28.416 -11.019  -5.303  0.00  0.00     0.171 HD
ENDROOT
BRANCH   1  21
ATOM     21  C   UNL d   1      28.254 -15.593  -3.418  0.00  0.00    -0.039 A 
ATOM     22  C   UNL d   1      27.025 -15.175  -3.938  0.00  0.00     0.048 A 
ATOM     23  C   UNL d   1      25.839 -15.285  -3.223  0.00  0.00     0.104 A 
ATOM     24  C   UNL d   1      25.835 -15.955  -1.995  0.00  0.00     0.133 A 
ATOM     25  C   UNL d   1      27.033 -16.448  -1.466  0.00  0.00     0.104 A 
ATOM     26  C   UNL d   1      28.225 -16.211  -2.160  0.00  0.00     0.048 A 
BRANCH  23  27
ATOM     27  O   UNL d   1      24.778 -14.681  -3.854  0.00  0.00    -0.353 OA
ATOM     28  C   UNL d   1      24.961 -13.337  -4.270  0.00  0.00     0.210 C 
ENDBRANCH  23  27
BRANCH  24  29
ATOM     29  O   UNL d   1      24.616 -16.055  -1.397  0.00  0.00    -0.356 OA
ATOM     30  H   UNL d   1      23.904 -15.576  -1.810  0.00  0.00     0.218 HD
ENDBRANCH  24  29
BRANCH  25  31
ATOM     31  O   UNL d   1      27.261 -17.150  -0.312  0.00  0.00    -0.353 OA
ATOM     32  C   UNL d   1      26.274 -18.065   0.103  0.00  0.00     0.210 C 
ENDBRANCH  25  31
ENDBRANCH   1  21
BRANCH  14  33
ATOM     33  S   UNL d   1      28.366 -10.818  -7.911  0.00  0.00    -0.096 SA
ATOM     34  C   UNL d   1      26.603 -10.621  -7.574  0.00  0.00     0.099 C 
ENDBRANCH  14  33
TORSDOF 5
ENDMDL
