MODEL 1
REMARK VINA RESULT:    -7.419      0.000      0.000
REMARK INTER + INTRA:         -11.404
REMARK INTER:                 -10.402
REMARK INTRA:                  -1.002
REMARK CONF_INDEPENDENT:        2.983
REMARK UNBOUND:                -1.002
REMARK  10 active torsions:
REMARK  status: ('A' for Active; 'I' for Inactive)
REMARK    1  A    between atoms: C_2  and  O_3 
REMARK    2  A    between atoms: O_3  and  C_4 
REMARK       I    between atoms: C_4  and  N_6 
REMARK    3  A    between atoms: N_6  and  C_7 
REMARK    4  A    between atoms: C_7  and  C_8 
REMARK    5  A    between atoms: C_7  and  C_23 
REMARK    6  A    between atoms: C_8  and  N_9 
REMARK       I    between atoms: N_9  and  C_10 
REMARK       I    between atoms: C_10  and  N_12 
REMARK    7  A    between atoms: N_12  and  C_13 
REMARK    8  A    between atoms: C_13  and  C_14 
REMARK    9  A    between atoms: C_18  and  N_19 
REMARK   10  A    between atoms: C_23  and  C_24 
ROOT
ATOM      1  N   UNL d   1      27.998 -16.213   0.526  0.00  0.00    -0.341 N 
ATOM      2  C   UNL d   1      27.405 -15.187   1.204  0.00  0.00     0.316 C 
ATOM      3  O   UNL d   1      26.299 -14.737   0.931  0.00  0.00    -0.247 OA
ATOM      4  N   UNL d   1      28.201 -14.690   2.190  0.00  0.00    -0.339 N 
ATOM      5  H   UNL d   1      28.757 -16.711   0.982  0.00  0.00     0.164 HD
ATOM      6  H   UNL d   1      29.070 -15.161   2.394  0.00  0.00     0.164 HD
ENDROOT
BRANCH   1   7
ATOM      7  C   UNL d   1      27.260 -16.947  -0.465  0.00  0.00     0.149 C 
BRANCH   7   8
ATOM      8  C   UNL d   1      26.123 -16.219  -1.224  0.00  0.00     0.105 C 
BRANCH   8   9
ATOM      9  N   UNL d   1      25.133 -17.188  -1.736  0.00  0.00    -0.331 N 
ATOM     10  C   UNL d   1      23.932 -17.383  -1.081  0.00  0.00     0.360 C 
ATOM     11  O   UNL d   1      23.516 -16.667  -0.185  0.00  0.00    -0.239 OA
ATOM     12  H   UNL d   1      25.368 -17.816  -2.490  0.00  0.00     0.165 HD
BRANCH  10  13
ATOM     13  O   UNL d   1      23.277 -18.498  -1.513  0.00  0.00    -0.304 OA
BRANCH  13  14
ATOM     14  C   UNL d   1      22.410 -19.033  -0.489  0.00  0.00     0.176 C 
ATOM     15  C   UNL d   1      20.961 -18.864  -0.894  0.00  0.00     0.034 C 
ENDBRANCH  13  14
ENDBRANCH  10  13
ENDBRANCH   8   9
BRANCH   8  16
ATOM     16  C   UNL d   1      26.698 -15.289  -2.346  0.00  0.00     0.031 C 
BRANCH  16  17
ATOM     17  C   UNL d   1      25.735 -14.944  -3.532  0.00  0.00    -0.021 C 
ATOM     18  C   UNL d   1      25.138 -13.534  -3.516  0.00  0.00     0.009 C 
ATOM     19  C   UNL d   1      26.460 -15.044  -4.880  0.00  0.00     0.009 C 
ENDBRANCH  16  17
ENDBRANCH   8  16
ENDBRANCH   7   8
ENDBRANCH   1   7
BRANCH   4  20
ATOM     20  C   UNL d   1      27.805 -13.510   2.920  0.00  0.00     0.162 C 
BRANCH  20  21
ATOM     21  C   UNL d   1      27.610 -12.318   2.018  0.00  0.00    -0.038 A 
ATOM     22  C   UNL d   1      28.213 -12.263   0.752  0.00  0.00     0.009 A 
ATOM     23  C   UNL d   1      28.155 -11.100  -0.016  0.00  0.00     0.003 A 
ATOM     24  C   UNL d   1      27.394 -10.014   0.415  0.00  0.00     0.036 A 
ATOM     25  C   UNL d   1      26.730 -10.084   1.646  0.00  0.00     0.103 A 
ATOM     26  C   UNL d   1      26.829 -11.232   2.446  0.00  0.00     0.045 A 
BRANCH  25  27
ATOM     27  N   UNL d   1      25.979  -8.921   2.134  0.00  0.00    -0.116 N 
ATOM     28  O   UNL d   1      25.074  -8.475   1.414  0.00  0.00    -0.532 OA
ATOM     29  O   UNL d   1      26.305  -8.443   3.230  0.00  0.00    -0.532 OA
ENDBRANCH  25  27
ENDBRANCH  20  21
ENDBRANCH   4  20
TORSDOF 10
ENDMDL
MODEL 2
REMARK VINA RESULT:    -7.094      1.518      3.330
REMARK INTER + INTRA:         -12.013
REMARK INTER:                 -10.077
REMARK INTRA:                  -1.937
REMARK CONF_INDEPENDENT:        2.983
REMARK UNBOUND:                -1.937
REMARK  10 active torsions:
REMARK  status: ('A' for Active; 'I' for Inactive)
REMARK    1  A    between atoms: C_2  and  O_3 
REMARK    2  A    between atoms: O_3  and  C_4 
REMARK       I    between atoms: C_4  and  N_6 
REMARK    3  A    between atoms: N_6  and  C_7 
REMARK    4  A    between atoms: C_7  and  C_8 
REMARK    5  A    between atoms: C_7  and  C_23 
REMARK    6  A    between atoms: C_8  and  N_9 
REMARK       I    between atoms: N_9  and  C_10 
REMARK       I    between atoms: C_10  and  N_12 
REMARK    7  A    between atoms: N_12  and  C_13 
REMARK    8  A    between atoms: C_13  and  C_14 
REMARK    9  A    between atoms: C_18  and  N_19 
REMARK   10  A    between atoms: C_23  and  C_24 
ROOT
ATOM      1  N   UNL d   1      27.960 -15.932   0.240  0.00  0.00    -0.341 N 
ATOM      2  C   UNL d   1      27.304 -14.923   0.884  0.00  0.00     0.316 C 
ATOM      3  O   UNL d   1      26.419 -14.248   0.374  0.00  0.00    -0.247 OA
ATOM      4  N   UNL d   1      27.776 -14.723   2.146  0.00  0.00    -0.339 N 
ATOM      5  H   UNL d   1      28.453 -16.618   0.804  0.00  0.00     0.164 HD
ATOM      6  H   UNL d   1      28.461 -15.367   2.514  0.00  0.00     0.164 HD
ENDROOT
BRANCH   1   7
ATOM      7  C   UNL d   1      27.514 -16.373  -1.054  0.00  0.00     0.149 C 
BRANCH   7   8
ATOM      8  C   UNL d   1      26.017 -16.727  -1.235  0.00  0.00     0.105 C 
BRANCH   8   9
ATOM      9  N   UNL d   1      25.251 -15.545  -1.676  0.00  0.00    -0.331 N 
ATOM     10  C   UNL d   1      25.168 -15.218  -3.016  0.00  0.00     0.360 C 
ATOM     11  O   UNL d   1      25.530 -15.949  -3.924  0.00  0.00    -0.239 OA
ATOM     12  H   UNL d   1      24.887 -14.884  -1.005  0.00  0.00     0.165 HD
BRANCH  10  13
ATOM     13  O   UNL d   1      24.677 -13.962  -3.218  0.00  0.00    -0.304 OA
BRANCH  13  14
ATOM     14  C   UNL d   1      25.714 -13.050  -3.642  0.00  0.00     0.176 C 
ATOM     15  C   UNL d   1      27.012 -13.373  -2.933  0.00  0.00     0.034 C 
ENDBRANCH  13  14
ENDBRANCH  10  13
ENDBRANCH   8   9
BRANCH   8  16
ATOM     16  C   UNL d   1      25.430 -17.380   0.064  0.00  0.00     0.031 C 
BRANCH  16  17
ATOM     17  C   UNL d   1      23.911 -17.759   0.033  0.00  0.00    -0.021 C 
ATOM     18  C   UNL d   1      22.963 -16.664  -0.466  0.00  0.00     0.009 C 
ATOM     19  C   UNL d   1      23.657 -18.948  -0.901  0.00  0.00     0.009 C 
ENDBRANCH  16  17
ENDBRANCH   8  16
ENDBRANCH   7   8
ENDBRANCH   1   7
BRANCH   4  20
ATOM     20  C   UNL d   1      27.306 -13.607   2.930  0.00  0.00     0.162 C 
BRANCH  20  21
ATOM     21  C   UNL d   1      27.530 -12.286   2.238  0.00  0.00    -0.038 A 
ATOM     22  C   UNL d   1      28.620 -12.100   1.374  0.00  0.00     0.009 A 
ATOM     23  C   UNL d   1      28.910 -10.837   0.855  0.00  0.00     0.003 A 
ATOM     24  C   UNL d   1      28.049  -9.767   1.095  0.00  0.00     0.036 A 
ATOM     25  C   UNL d   1      26.920  -9.959   1.899  0.00  0.00     0.103 A 
ATOM     26  C   UNL d   1      26.653 -11.214   2.467  0.00  0.00     0.045 A 
BRANCH  25  27
ATOM     27  N   UNL d   1      26.045  -8.821   2.207  0.00  0.00    -0.116 N 
ATOM     28  O   UNL d   1      25.121  -8.574   1.418  0.00  0.00    -0.532 OA
ATOM     29  O   UNL d   1      26.290  -8.166   3.230  0.00  0.00    -0.532 OA
ENDBRANCH  25  27
ENDBRANCH  20  21
ENDBRANCH   4  20
TORSDOF 10
ENDMDL
MODEL 3
REMARK VINA RESULT:    -6.841      3.250      5.120
REMARK INTER + INTRA:         -11.736
REMARK INTER:                  -9.824
REMARK INTRA:                  -1.912
REMARK CONF_INDEPENDENT:        2.983
REMARK UNBOUND:                -1.912
REMARK  10 active torsions:
REMARK  status: ('A' for Active; 'I' for Inactive)
REMARK    1  A    between atoms: C_2  and  O_3 
REMARK    2  A    between atoms: O_3  and  C_4 
REMARK       I    between atoms: C_4  and  N_6 
REMARK    3  A    between atoms: N_6  and  C_7 
REMARK    4  A    between atoms: C_7  and  C_8 
REMARK    5  A    between atoms: C_7  and  C_23 
REMARK    6  A    between atoms: C_8  and  N_9 
REMARK       I    between atoms: N_9  and  C_10 
REMARK       I    between atoms: C_10  and  N_12 
REMARK    7  A    between atoms: N_12  and  C_13 
REMARK    8  A    between atoms: C_13  and  C_14 
REMARK    9  A    between atoms: C_18  and  N_19 
REMARK   10  A    between atoms: C_23  and  C_24 
ROOT
ATOM      1  N   UNL d   1      25.632 -12.963  -2.380  0.00  0.00    -0.341 N 
ATOM      2  C   UNL d   1      26.300 -11.826  -2.733  0.00  0.00     0.316 C 
ATOM      3  O   UNL d   1      27.415 -11.534  -2.320  0.00  0.00    -0.247 OA
ATOM      4  N   UNL d   1      25.567 -11.032  -3.561  0.00  0.00    -0.339 N 
ATOM      5  H   UNL d   1      24.867 -13.271  -2.974  0.00  0.00     0.164 HD
ATOM      6  H   UNL d   1      24.684 -11.378  -3.907  0.00  0.00     0.164 HD
ENDROOT
BRANCH   1   7
ATOM      7  C   UNL d   1      26.295 -13.984  -1.614  0.00  0.00     0.149 C 
BRANCH   7   8
ATOM      8  C   UNL d   1      26.235 -15.444  -2.127  0.00  0.00     0.105 C 
BRANCH   8   9
ATOM      9  N   UNL d   1      26.811 -15.545  -3.483  0.00  0.00    -0.331 N 
ATOM     10  C   UNL d   1      26.085 -15.149  -4.590  0.00  0.00     0.360 C 
ATOM     11  O   UNL d   1      25.037 -14.525  -4.534  0.00  0.00    -0.239 OA
ATOM     12  H   UNL d   1      27.686 -16.024  -3.638  0.00  0.00     0.165 HD
BRANCH  10  13
ATOM     13  O   UNL d   1      26.642 -15.572  -5.760  0.00  0.00    -0.304 OA
BRANCH  13  14
ATOM     14  C   UNL d   1      27.835 -14.824  -6.079  0.00  0.00     0.176 C 
ATOM     15  C   UNL d   1      27.642 -13.364  -5.730  0.00  0.00     0.034 C 
ENDBRANCH  13  14
ENDBRANCH  10  13
ENDBRANCH   8   9
BRANCH   8  16
ATOM     16  C   UNL d   1      24.776 -16.012  -2.043  0.00  0.00     0.031 C 
BRANCH  16  17
ATOM     17  C   UNL d   1      24.595 -17.363  -1.272  0.00  0.00    -0.021 C 
ATOM     18  C   UNL d   1      25.616 -17.638  -0.164  0.00  0.00     0.009 C 
ATOM     19  C   UNL d   1      23.233 -17.419  -0.569  0.00  0.00     0.009 C 
ENDBRANCH  16  17
ENDBRANCH   8  16
ENDBRANCH   7   8
ENDBRANCH   1   7
BRANCH   4  20
ATOM     20  C   UNL d   1      26.048  -9.721  -3.925  0.00  0.00     0.162 C 
BRANCH  20  21
ATOM     21  C   UNL d   1      26.568  -8.951  -2.738  0.00  0.00    -0.038 A 
ATOM     22  C   UNL d   1      27.919  -8.583  -2.652  0.00  0.00     0.009 A 
ATOM     23  C   UNL d   1      28.428  -8.004  -1.488  0.00  0.00     0.003 A 
ATOM     24  C   UNL d   1      27.572  -7.677  -0.437  0.00  0.00     0.036 A 
ATOM     25  C   UNL d   1      26.208  -7.977  -0.542  0.00  0.00     0.103 A 
ATOM     26  C   UNL d   1      25.702  -8.607  -1.688  0.00  0.00     0.045 A 
BRANCH  25  27
ATOM     27  N   UNL d   1      25.313  -7.693   0.587  0.00  0.00    -0.116 N 
ATOM     28  O   UNL d   1      24.780  -6.575   0.633  0.00  0.00    -0.532 OA
ATOM     29  O   UNL d   1      25.155  -8.582   1.435  0.00  0.00    -0.532 OA
ENDBRANCH  25  27
ENDBRANCH  20  21
ENDBRANCH   4  20
TORSDOF 10
ENDMDL
MODEL 4
REMARK VINA RESULT:    -6.747      2.280      3.881
REMARK INTER + INTRA:         -11.741
REMARK INTER:                  -9.730
REMARK INTRA:                  -2.011
REMARK CONF_INDEPENDENT:        2.983
REMARK UNBOUND:                -2.011
REMARK  10 active torsions:
REMARK  status: ('A' for Active; 'I' for Inactive)
REMARK    1  A    between atoms: C_2  and  O_3 
REMARK    2  A    between atoms: O_3  and  C_4 
REMARK       I    between atoms: C_4  and  N_6 
REMARK    3  A    between atoms: N_6  and  C_7 
REMARK    4  A    between atoms: C_7  and  C_8 
REMARK    5  A    between atoms: C_7  and  C_23 
REMARK    6  A    between atoms: C_8  and  N_9 
REMARK       I    between atoms: N_9  and  C_10 
REMARK       I    between atoms: C_10  and  N_12 
REMARK    7  A    between atoms: N_12  and  C_13 
REMARK    8  A    between atoms: C_13  and  C_14 
REMARK    9  A    between atoms: C_18  and  N_19 
REMARK   10  A    between atoms: C_23  and  C_24 
ROOT
ATOM      1  N   UNL d   1      28.672 -14.035  -0.930  0.00  0.00    -0.341 N 
ATOM      2  C   UNL d   1      27.514 -13.741  -0.271  0.00  0.00     0.316 C 
ATOM      3  O   UNL d   1      26.427 -13.617  -0.821  0.00  0.00    -0.247 OA
ATOM      4  N   UNL d   1      27.711 -13.556   1.064  0.00  0.00    -0.339 N 
ATOM      5  H   UNL d   1      29.449 -14.403  -0.389  0.00  0.00     0.164 HD
ATOM      6  H   UNL d   1      28.626 -13.742   1.448  0.00  0.00     0.164 HD
ENDROOT
BRANCH   1   7
ATOM      7  C   UNL d   1      28.641 -14.388  -2.323  0.00  0.00     0.149 C 
BRANCH   7   8
ATOM      8  C   UNL d   1      27.796 -15.614  -2.752  0.00  0.00     0.105 C 
BRANCH   8   9
ATOM      9  N   UNL d   1      26.432 -15.198  -3.135  0.00  0.00    -0.331 N 
ATOM     10  C   UNL d   1      26.061 -15.129  -4.464  0.00  0.00     0.360 C 
ATOM     11  O   UNL d   1      26.727 -15.575  -5.385  0.00  0.00    -0.239 OA
ATOM     12  H   UNL d   1      25.791 -14.832  -2.446  0.00  0.00     0.165 HD
BRANCH  10  13
ATOM     13  O   UNL d   1      24.886 -14.463  -4.646  0.00  0.00    -0.304 OA
BRANCH  13  14
ATOM     14  C   UNL d   1      24.781 -13.325  -3.764  0.00  0.00     0.176 C 
ATOM     15  C   UNL d   1      25.718 -12.226  -4.219  0.00  0.00     0.034 C 
ENDBRANCH  13  14
ENDBRANCH  10  13
ENDBRANCH   8   9
BRANCH   8  16
ATOM     16  C   UNL d   1      27.805 -16.721  -1.643  0.00  0.00     0.031 C 
BRANCH  16  17
ATOM     17  C   UNL d   1      26.570 -16.758  -0.681  0.00  0.00    -0.021 C 
ATOM     18  C   UNL d   1      25.287 -17.354  -1.268  0.00  0.00     0.009 C 
ATOM     19  C   UNL d   1      26.862 -17.609   0.561  0.00  0.00     0.009 C 
ENDBRANCH  16  17
ENDBRANCH   8  16
ENDBRANCH   7   8
ENDBRANCH   1   7
BRANCH   4  20
ATOM     20  C   UNL d   1      26.630 -13.098   1.903  0.00  0.00     0.162 C 
BRANCH  20  21
ATOM     21  C   UNL d   1      26.969 -11.819   2.625  0.00  0.00    -0.038 A 
ATOM     22  C   UNL d   1      27.795 -11.827   3.760  0.00  0.00     0.009 A 
ATOM     23  C   UNL d   1      27.984 -10.667   4.512  0.00  0.00     0.003 A 
ATOM     24  C   UNL d   1      27.449  -9.455   4.078  0.00  0.00     0.036 A 
ATOM     25  C   UNL d   1      26.681  -9.423   2.908  0.00  0.00     0.103 A 
ATOM     26  C   UNL d   1      26.443 -10.596   2.177  0.00  0.00     0.045 A 
BRANCH  25  27
ATOM     27  N   UNL d   1      26.061  -8.162   2.480  0.00  0.00    -0.116 N 
ATOM     28  O   UNL d   1      26.471  -7.113   2.998  0.00  0.00    -0.532 OA
ATOM     29  O   UNL d   1      25.155  -8.222   1.637  0.00  0.00    -0.532 OA
ENDBRANCH  25  27
ENDBRANCH  20  21
ENDBRANCH   4  20
TORSDOF 10
ENDMDL
MODEL 5
REMARK VINA RESULT:    -6.523      4.385      7.868
REMARK INTER + INTRA:         -11.215
REMARK INTER:                  -9.506
REMARK INTRA:                  -1.709
REMARK CONF_INDEPENDENT:        2.983
REMARK UNBOUND:                -1.709
REMARK  10 active torsions:
REMARK  status: ('A' for Active; 'I' for Inactive)
REMARK    1  A    between atoms: C_2  and  O_3 
REMARK    2  A    between atoms: O_3  and  C_4 
REMARK       I    between atoms: C_4  and  N_6 
REMARK    3  A    between atoms: N_6  and  C_7 
REMARK    4  A    between atoms: C_7  and  C_8 
REMARK    5  A    between atoms: C_7  and  C_23 
REMARK    6  A    between atoms: C_8  and  N_9 
REMARK       I    between atoms: N_9  and  C_10 
REMARK       I    between atoms: C_10  and  N_12 
REMARK    7  A    between atoms: N_12  and  C_13 
REMARK    8  A    between atoms: C_13  and  C_14 
REMARK    9  A    between atoms: C_18  and  N_19 
REMARK   10  A    between atoms: C_23  and  C_24 
ROOT
ATOM      1  N   UNL d   1      27.149 -15.127  -4.390  0.00  0.00    -0.341 N 
ATOM      2  C   UNL d   1      26.025 -15.028  -3.621  0.00  0.00     0.316 C 
ATOM      3  O   UNL d   1      24.970 -14.545  -4.013  0.00  0.00    -0.247 OA
ATOM      4  N   UNL d   1      26.224 -15.485  -2.354  0.00  0.00    -0.339 N 
ATOM      5  H   UNL d   1      27.866 -15.786  -4.103  0.00  0.00     0.164 HD
ATOM      6  H   UNL d   1      27.102 -15.929  -2.132  0.00  0.00     0.164 HD
ENDROOT
BRANCH   1   7
ATOM      7  C   UNL d   1      27.095 -14.813  -5.792  0.00  0.00     0.149 C 
BRANCH   7   8
ATOM      8  C   UNL d   1      28.210 -13.916  -6.387  0.00  0.00     0.105 C 
BRANCH   8   9
ATOM      9  N   UNL d   1      29.186 -14.729  -7.140  0.00  0.00    -0.331 N 
ATOM     10  C   UNL d   1      29.780 -15.834  -6.560  0.00  0.00     0.360 C 
ATOM     11  O   UNL d   1      29.421 -16.331  -5.505  0.00  0.00    -0.239 OA
ATOM     12  H   UNL d   1      29.535 -14.420  -8.035  0.00  0.00     0.165 HD
BRANCH  10  13
ATOM     13  O   UNL d   1      30.849 -16.288  -7.275  0.00  0.00    -0.304 OA
BRANCH  13  14
ATOM     14  C   UNL d   1      31.698 -17.139  -6.475  0.00  0.00     0.176 C 
ATOM     15  C   UNL d   1      31.328 -18.591  -6.689  0.00  0.00     0.034 C 
ENDBRANCH  13  14
ENDBRANCH  10  13
ENDBRANCH   8   9
BRANCH   8  16
ATOM     16  C   UNL d   1      28.880 -13.036  -5.277  0.00  0.00     0.031 C 
BRANCH  16  17
ATOM     17  C   UNL d   1      28.152 -11.700  -4.909  0.00  0.00    -0.021 C 
ATOM     18  C   UNL d   1      26.750 -11.522  -5.500  0.00  0.00     0.009 C 
ATOM     19  C   UNL d   1      27.953 -11.578  -3.393  0.00  0.00     0.009 C 
ENDBRANCH  16  17
ENDBRANCH   8  16
ENDBRANCH   7   8
ENDBRANCH   1   7
BRANCH   4  20
ATOM     20  C   UNL d   1      25.194 -15.329  -1.355  0.00  0.00     0.162 C 
BRANCH  20  21
ATOM     21  C   UNL d   1      24.579 -16.646  -0.956  0.00  0.00    -0.038 A 
ATOM     22  C   UNL d   1      25.354 -17.657  -0.367  0.00  0.00     0.009 A 
ATOM     23  C   UNL d   1      24.818 -18.925  -0.138  0.00  0.00     0.003 A 
ATOM     24  C   UNL d   1      23.467 -19.168  -0.384  0.00  0.00     0.036 A 
ATOM     25  C   UNL d   1      22.667 -18.145  -0.907  0.00  0.00     0.103 A 
ATOM     26  C   UNL d   1      23.215 -16.885  -1.189  0.00  0.00     0.045 A 
BRANCH  25  27
ATOM     27  N   UNL d   1      21.260 -18.415  -1.228  0.00  0.00    -0.116 N 
ATOM     28  O   UNL d   1      20.935 -19.589  -1.453  0.00  0.00    -0.532 OA
ATOM     29  O   UNL d   1      20.483 -17.450  -1.270  0.00  0.00    -0.532 OA
ENDBRANCH  25  27
ENDBRANCH  20  21
ENDBRANCH   4  20
TORSDOF 10
ENDMDL
MODEL 6
REMARK VINA RESULT:    -6.453      2.023      4.066
REMARK INTER + INTRA:         -11.592
REMARK INTER:                  -9.436
REMARK INTRA:                  -2.156
REMARK CONF_INDEPENDENT:        2.983
REMARK UNBOUND:                -2.156
REMARK  10 active torsions:
REMARK  status: ('A' for Active; 'I' for Inactive)
REMARK    1  A    between atoms: C_2  and  O_3 
REMARK    2  A    between atoms: O_3  and  C_4 
REMARK       I    between atoms: C_4  and  N_6 
REMARK    3  A    between atoms: N_6  and  C_7 
REMARK    4  A    between atoms: C_7  and  C_8 
REMARK    5  A    between atoms: C_7  and  C_23 
REMARK    6  A    between atoms: C_8  and  N_9 
REMARK       I    between atoms: N_9  and  C_10 
REMARK       I    between atoms: C_10  and  N_12 
REMARK    7  A    between atoms: N_12  and  C_13 
REMARK    8  A    between atoms: C_13  and  C_14 
REMARK    9  A    between atoms: C_18  and  N_19 
REMARK   10  A    between atoms: C_23  and  C_24 
ROOT
ATOM      1  N   UNL d   1      27.507 -15.268  -1.285  0.00  0.00    -0.341 N 
ATOM      2  C   UNL d   1      27.100 -14.510  -0.224  0.00  0.00     0.316 C 
ATOM      3  O   UNL d   1      25.963 -14.525   0.230  0.00  0.00    -0.247 OA
ATOM      4  N   UNL d   1      28.092 -13.703   0.244  0.00  0.00    -0.339 N 
ATOM      5  H   UNL d   1      28.504 -15.419  -1.409  0.00  0.00     0.164 HD
ATOM      6  H   UNL d   1      29.019 -13.800  -0.143  0.00  0.00     0.164 HD
ENDROOT
BRANCH   1   7
ATOM      7  C   UNL d   1      26.636 -16.274  -1.831  0.00  0.00     0.149 C 
BRANCH   7   8
ATOM      8  C   UNL d   1      25.201 -15.860  -2.240  0.00  0.00     0.105 C 
BRANCH   8   9
ATOM      9  N   UNL d   1      25.106 -14.395  -2.401  0.00  0.00    -0.331 N 
ATOM     10  C   UNL d   1      25.102 -13.822  -3.659  0.00  0.00     0.360 C 
ATOM     11  O   UNL d   1      24.979 -14.451  -4.697  0.00  0.00    -0.239 OA
ATOM     12  H   UNL d   1      25.175 -13.782  -1.602  0.00  0.00     0.165 HD
BRANCH  10  13
ATOM     13  O   UNL d   1      25.299 -12.474  -3.619  0.00  0.00    -0.304 OA
BRANCH  13  14
ATOM     14  C   UNL d   1      26.243 -12.047  -4.624  0.00  0.00     0.176 C 
ATOM     15  C   UNL d   1      27.588 -12.700  -4.385  0.00  0.00     0.034 C 
ENDBRANCH  13  14
ENDBRANCH  10  13
ENDBRANCH   8   9
BRANCH   8  16
ATOM     16  C   UNL d   1      24.141 -16.430  -1.236  0.00  0.00     0.031 C 
BRANCH  16  17
ATOM     17  C   UNL d   1      24.295 -17.937  -0.836  0.00  0.00    -0.021 C 
ATOM     18  C   UNL d   1      24.874 -18.200   0.557  0.00  0.00     0.009 C 
ATOM     19  C   UNL d   1      22.937 -18.650  -0.834  0.00  0.00     0.009 C 
ENDBRANCH  16  17
ENDBRANCH   8  16
ENDBRANCH   7   8
ENDBRANCH   1   7
BRANCH   4  20
ATOM     20  C   UNL d   1      27.811 -12.726   1.268  0.00  0.00     0.162 C 
BRANCH  20  21
ATOM     21  C   UNL d   1      27.421 -11.388   0.692  0.00  0.00    -0.038 A 
ATOM     22  C   UNL d   1      27.686 -11.075  -0.650  0.00  0.00     0.009 A 
ATOM     23  C   UNL d   1      27.462  -9.787  -1.139  0.00  0.00     0.003 A 
ATOM     24  C   UNL d   1      26.860  -8.825  -0.329  0.00  0.00     0.036 A 
ATOM     25  C   UNL d   1      26.527  -9.149   0.992  0.00  0.00     0.103 A 
ATOM     26  C   UNL d   1      26.799 -10.426   1.504  0.00  0.00     0.045 A 
BRANCH  25  27
ATOM     27  N   UNL d   1      25.952  -8.122   1.868  0.00  0.00    -0.116 N 
ATOM     28  O   UNL d   1      26.285  -8.130   3.063  0.00  0.00    -0.532 OA
ATOM     29  O   UNL d   1      25.155  -7.315   1.367  0.00  0.00    -0.532 OA
ENDBRANCH  25  27
ENDBRANCH  20  21
ENDBRANCH   4  20
TORSDOF 10
ENDMDL
MODEL 7
REMARK VINA RESULT:    -6.424      1.978      3.802
REMARK INTER + INTRA:         -11.034
REMARK INTER:                  -9.407
REMARK INTRA:                  -1.628
REMARK CONF_INDEPENDENT:        2.983
REMARK UNBOUND:                -1.628
REMARK  10 active torsions:
REMARK  status: ('A' for Active; 'I' for Inactive)
REMARK    1  A    between atoms: C_2  and  O_3 
REMARK    2  A    between atoms: O_3  and  C_4 
REMARK       I    between atoms: C_4  and  N_6 
REMARK    3  A    between atoms: N_6  and  C_7 
REMARK    4  A    between atoms: C_7  and  C_8 
REMARK    5  A    between atoms: C_7  and  C_23 
REMARK    6  A    between atoms: C_8  and  N_9 
REMARK       I    between atoms: N_9  and  C_10 
REMARK       I    between atoms: C_10  and  N_12 
REMARK    7  A    between atoms: N_12  and  C_13 
REMARK    8  A    between atoms: C_13  and  C_14 
REMARK    9  A    between atoms: C_18  and  N_19 
REMARK   10  A    between atoms: C_23  and  C_24 
ROOT
ATOM      1  N   UNL d   1      27.052 -14.552   0.012  0.00  0.00    -0.341 N 
ATOM      2  C   UNL d   1      27.426 -14.464   1.322  0.00  0.00     0.316 C 
ATOM      3  O   UNL d   1      27.944 -15.380   1.948  0.00  0.00    -0.247 OA
ATOM      4  N   UNL d   1      27.116 -13.255   1.867  0.00  0.00    -0.339 N 
ATOM      5  H   UNL d   1      26.909 -13.689  -0.503  0.00  0.00     0.164 HD
ATOM      6  H   UNL d   1      26.752 -12.531   1.265  0.00  0.00     0.164 HD
ENDROOT
BRANCH   1   7
ATOM      7  C   UNL d   1      27.412 -15.706  -0.766  0.00  0.00     0.149 C 
BRANCH   7   8
ATOM      8  C   UNL d   1      26.276 -16.579  -1.356  0.00  0.00     0.105 C 
BRANCH   8   9
ATOM      9  N   UNL d   1      25.949 -16.150  -2.731  0.00  0.00    -0.331 N 
ATOM     10  C   UNL d   1      25.527 -14.859  -2.986  0.00  0.00     0.360 C 
ATOM     11  O   UNL d   1      25.578 -13.949  -2.174  0.00  0.00    -0.239 OA
ATOM     12  H   UNL d   1      25.900 -16.821  -3.484  0.00  0.00     0.165 HD
BRANCH  10  13
ATOM     13  O   UNL d   1      25.000 -14.718  -4.235  0.00  0.00    -0.304 OA
BRANCH  13  14
ATOM     14  C   UNL d   1      25.907 -15.200  -5.250  0.00  0.00     0.176 C 
ATOM     15  C   UNL d   1      27.227 -14.463  -5.159  0.00  0.00     0.034 C 
ENDBRANCH  13  14
ENDBRANCH  10  13
ENDBRANCH   8   9
BRANCH   8  16
ATOM     16  C   UNL d   1      25.026 -16.593  -0.411  0.00  0.00     0.031 C 
BRANCH  16  17
ATOM     17  C   UNL d   1      23.767 -17.368  -0.927  0.00  0.00    -0.021 C 
ATOM     18  C   UNL d   1      23.604 -18.797  -0.400  0.00  0.00     0.009 C 
ATOM     19  C   UNL d   1      22.472 -16.654  -0.520  0.00  0.00     0.009 C 
ENDBRANCH  16  17
ENDBRANCH   8  16
ENDBRANCH   7   8
ENDBRANCH   1   7
BRANCH   4  20
ATOM     20  C   UNL d   1      27.304 -13.025   3.279  0.00  0.00     0.162 C 
BRANCH  20  21
ATOM     21  C   UNL d   1      27.406 -11.558   3.611  0.00  0.00    -0.038 A 
ATOM     22  C   UNL d   1      28.191 -11.113   4.686  0.00  0.00     0.009 A 
ATOM     23  C   UNL d   1      28.165  -9.776   5.084  0.00  0.00     0.003 A 
ATOM     24  C   UNL d   1      27.446  -8.839   4.342  0.00  0.00     0.036 A 
ATOM     25  C   UNL d   1      26.714  -9.261   3.225  0.00  0.00     0.103 A 
ATOM     26  C   UNL d   1      26.695 -10.613   2.854  0.00  0.00     0.045 A 
BRANCH  25  27
ATOM     27  N   UNL d   1      25.904  -8.290   2.479  0.00  0.00    -0.116 N 
ATOM     28  O   UNL d   1      26.135  -7.086   2.660  0.00  0.00    -0.532 OA
ATOM     29  O   UNL d   1      25.028  -8.732   1.722  0.00  0.00    -0.532 OA
ENDBRANCH  25  27
ENDBRANCH  20  21
ENDBRANCH   4  20
TORSDOF 10
ENDMDL
MODEL 8
REMARK VINA RESULT:    -6.320      2.836      4.762
REMARK INTER + INTRA:         -11.025
REMARK INTER:                  -9.303
REMARK INTRA:                  -1.722
REMARK CONF_INDEPENDENT:        2.983
REMARK UNBOUND:                -1.722
REMARK  10 active torsions:
REMARK  status: ('A' for Active; 'I' for Inactive)
REMARK    1  A    between atoms: C_2  and  O_3 
REMARK    2  A    between atoms: O_3  and  C_4 
REMARK       I    between atoms: C_4  and  N_6 
REMARK    3  A    between atoms: N_6  and  C_7 
REMARK    4  A    between atoms: C_7  and  C_8 
REMARK    5  A    between atoms: C_7  and  C_23 
REMARK    6  A    between atoms: C_8  and  N_9 
REMARK       I    between atoms: N_9  and  C_10 
REMARK       I    between atoms: C_10  and  N_12 
REMARK    7  A    between atoms: N_12  and  C_13 
REMARK    8  A    between atoms: C_13  and  C_14 
REMARK    9  A    between atoms: C_18  and  N_19 
REMARK   10  A    between atoms: C_23  and  C_24 
ROOT
ATOM      1  N   UNL d   1      28.017 -16.009   0.247  0.00  0.00    -0.341 N 
ATOM      2  C   UNL d   1      27.390 -14.969   0.871  0.00  0.00     0.316 C 
ATOM      3  O   UNL d   1      26.580 -14.232   0.323  0.00  0.00    -0.247 OA
ATOM      4  N   UNL d   1      27.802 -14.815   2.160  0.00  0.00    -0.339 N 
ATOM      5  H   UNL d   1      28.434 -16.732   0.827  0.00  0.00     0.164 HD
ATOM      6  H   UNL d   1      28.422 -15.506   2.555  0.00  0.00     0.164 HD
ENDROOT
BRANCH   1   7
ATOM      7  C   UNL d   1      27.618 -16.404  -1.076  0.00  0.00     0.149 C 
BRANCH   7   8
ATOM      8  C   UNL d   1      26.120 -16.698  -1.336  0.00  0.00     0.105 C 
BRANCH   8   9
ATOM      9  N   UNL d   1      25.406 -15.465  -1.725  0.00  0.00    -0.331 N 
ATOM     10  C   UNL d   1      25.263 -15.123  -3.056  0.00  0.00     0.360 C 
ATOM     11  O   UNL d   1      25.520 -15.868  -3.987  0.00  0.00    -0.239 OA
ATOM     12  H   UNL d   1      25.129 -14.787  -1.030  0.00  0.00     0.165 HD
BRANCH  10  13
ATOM     13  O   UNL d   1      24.844 -13.836  -3.223  0.00  0.00    -0.304 OA
BRANCH  13  14
ATOM     14  C   UNL d   1      25.940 -12.963  -3.569  0.00  0.00     0.176 C 
ATOM     15  C   UNL d   1      26.947 -12.920  -2.440  0.00  0.00     0.034 C 
ENDBRANCH  13  14
ENDBRANCH  10  13
ENDBRANCH   8   9
BRANCH   8  16
ATOM     16  C   UNL d   1      25.464 -17.417  -0.107  0.00  0.00     0.031 C 
BRANCH  16  17
ATOM     17  C   UNL d   1      23.917 -17.652  -0.178  0.00  0.00    -0.021 C 
ATOM     18  C   UNL d   1      23.079 -16.441  -0.598  0.00  0.00     0.009 C 
ATOM     19  C   UNL d   1      23.570 -18.740  -1.201  0.00  0.00     0.009 C 
ENDBRANCH  16  17
ENDBRANCH   8  16
ENDBRANCH   7   8
ENDBRANCH   1   7
BRANCH   4  20
ATOM     20  C   UNL d   1      27.358 -13.682   2.935  0.00  0.00     0.162 C 
BRANCH  20  21
ATOM     21  C   UNL d   1      27.973 -13.653   4.311  0.00  0.00    -0.038 A 
ATOM     22  C   UNL d   1      28.496 -14.819   4.893  0.00  0.00     0.009 A 
ATOM     23  C   UNL d   1      28.926 -14.822   6.220  0.00  0.00     0.003 A 
ATOM     24  C   UNL d   1      28.952 -13.634   6.950  0.00  0.00     0.036 A 
ATOM     25  C   UNL d   1      28.499 -12.450   6.355  0.00  0.00     0.103 A 
ATOM     26  C   UNL d   1      28.015 -12.453   5.039  0.00  0.00     0.045 A 
BRANCH  25  27
ATOM     27  N   UNL d   1      28.464 -11.210   7.140  0.00  0.00    -0.116 N 
ATOM     28  O   UNL d   1      28.299 -11.306   8.364  0.00  0.00    -0.532 OA
ATOM     29  O   UNL d   1      28.587 -10.138   6.529  0.00  0.00    -0.532 OA
ENDBRANCH  25  27
ENDBRANCH  20  21
ENDBRANCH   4  20
TORSDOF 10
ENDMDL
MODEL 9
REMARK VINA RESULT:    -6.132      3.022      8.291
REMARK INTER + INTRA:         -10.979
REMARK INTER:                  -9.115
REMARK INTRA:                  -1.864
REMARK CONF_INDEPENDENT:        2.983
REMARK UNBOUND:                -1.864
REMARK  10 active torsions:
REMARK  status: ('A' for Active; 'I' for Inactive)
REMARK    1  A    between atoms: C_2  and  O_3 
REMARK    2  A    between atoms: O_3  and  C_4 
REMARK       I    between atoms: C_4  and  N_6 
REMARK    3  A    between atoms: N_6  and  C_7 
REMARK    4  A    between atoms: C_7  and  C_8 
REMARK    5  A    between atoms: C_7  and  C_23 
REMARK    6  A    between atoms: C_8  and  N_9 
REMARK       I    between atoms: N_9  and  C_10 
REMARK       I    between atoms: C_10  and  N_12 
REMARK    7  A    between atoms: N_12  and  C_13 
REMARK    8  A    between atoms: C_13  and  C_14 
REMARK    9  A    between atoms: C_18  and  N_19 
REMARK   10  A    between atoms: C_23  and  C_24 
ROOT
ATOM      1  N   UNL d   1      28.027 -15.017   3.663  0.00  0.00    -0.341 N 
ATOM      2  C   UNL d   1      27.832 -14.435   2.444  0.00  0.00     0.316 C 
ATOM      3  O   UNL d   1      27.039 -13.524   2.241  0.00  0.00    -0.247 OA
ATOM      4  N   UNL d   1      28.588 -15.011   1.469  0.00  0.00    -0.339 N 
ATOM      5  H   UNL d   1      28.884 -15.542   3.810  0.00  0.00     0.164 HD
ATOM      6  H   UNL d   1      29.266 -15.711   1.732  0.00  0.00     0.164 HD
ENDROOT
BRANCH   1   7
ATOM      7  C   UNL d   1      27.411 -14.460   4.837  0.00  0.00     0.149 C 
BRANCH   7   8
ATOM      8  C   UNL d   1      28.057 -13.209   5.482  0.00  0.00     0.105 C 
BRANCH   8   9
ATOM      9  N   UNL d   1      28.317 -12.172   4.463  0.00  0.00    -0.331 N 
ATOM     10  C   UNL d   1      28.257 -10.831   4.789  0.00  0.00     0.360 C 
ATOM     11  O   UNL d   1      28.187 -10.406   5.931  0.00  0.00    -0.239 OA
ATOM     12  H   UNL d   1      28.412 -12.418   3.489  0.00  0.00     0.165 HD
BRANCH  10  13
ATOM     13  O   UNL d   1      28.237 -10.026   3.690  0.00  0.00    -0.304 OA
BRANCH  13  14
ATOM     14  C   UNL d   1      27.305 -10.507   2.698  0.00  0.00     0.176 C 
ATOM     15  C   UNL d   1      25.971  -9.809   2.855  0.00  0.00     0.034 C 
ENDBRANCH  13  14
ENDBRANCH  10  13
ENDBRANCH   8   9
BRANCH   8  16
ATOM     16  C   UNL d   1      29.338 -13.592   6.299  0.00  0.00     0.031 C 
BRANCH  16  17
ATOM     17  C   UNL d   1      29.149 -13.803   7.839  0.00  0.00    -0.021 C 
ATOM     18  C   UNL d   1      30.430 -14.066   8.637  0.00  0.00     0.009 C 
ATOM     19  C   UNL d   1      28.530 -12.562   8.495  0.00  0.00     0.009 C 
ENDBRANCH  16  17
ENDBRANCH   8  16
ENDBRANCH   7   8
ENDBRANCH   1   7
BRANCH   4  20
ATOM     20  C   UNL d   1      28.413 -14.626   0.089  0.00  0.00     0.162 C 
BRANCH  20  21
ATOM     21  C   UNL d   1      27.234 -15.313  -0.551  0.00  0.00    -0.038 A 
ATOM     22  C   UNL d   1      26.670 -16.464   0.021  0.00  0.00     0.009 A 
ATOM     23  C   UNL d   1      25.679 -17.182  -0.650  0.00  0.00     0.003 A 
ATOM     24  C   UNL d   1      25.153 -16.698  -1.847  0.00  0.00     0.036 A 
ATOM     25  C   UNL d   1      25.661 -15.512  -2.392  0.00  0.00     0.103 A 
ATOM     26  C   UNL d   1      26.693 -14.815  -1.748  0.00  0.00     0.045 A 
BRANCH  25  27
ATOM     27  N   UNL d   1      25.155 -15.032  -3.684  0.00  0.00    -0.116 N 
ATOM     28  O   UNL d   1      25.556 -15.603  -4.708  0.00  0.00    -0.532 OA
ATOM     29  O   UNL d   1      24.369 -14.074  -3.675  0.00  0.00    -0.532 OA
ENDBRANCH  25  27
ENDBRANCH  20  21
ENDBRANCH   4  20
TORSDOF 10
ENDMDL
