MODEL 1
REMARK VINA RESULT:    -8.531      0.000      0.000
REMARK INTER + INTRA:         -11.117
REMARK INTER:                 -10.321
REMARK INTRA:                  -0.796
REMARK CONF_INDEPENDENT:        1.790
REMARK UNBOUND:                -0.796
REMARK  6 active torsions:
REMARK  status: ('A' for Active; 'I' for Inactive)
REMARK    1  A    between atoms: C_2  and  C_3 
REMARK       I    between atoms: C_3  and  N_5 
REMARK    2  A    between atoms: N_5  and  C_6 
REMARK    3  A    between atoms: C_9  and  C_10 
REMARK       I    between atoms: C_10  and  N_12 
REMARK    4  A    between atoms: N_12  and  N_13 
REMARK    5  A    between atoms: N_13  and  C_14 
REMARK    6  A    between atoms: C_14  and  N_16 
REMARK       I    between atoms: N_16  and  C_17 
ROOT
ATOM      1  C   UNL d   1      25.559 -15.830  -1.588  0.00  0.00     0.270 C 
ATOM      2  O   UNL d   1      26.738 -16.033  -1.295  0.00  0.00    -0.266 OA
ATOM      3  N   UNL d   1      25.178 -14.801  -2.418  0.00  0.00    -0.264 N 
ATOM      4  H   UNL d   1      24.206 -14.644  -2.679  0.00  0.00     0.190 HD
ENDROOT
BRANCH   1   5
ATOM      5  C   UNL d   1      24.451 -16.728  -1.060  0.00  0.00     0.033 A 
ATOM      6  C   UNL d   1      24.755 -18.053  -0.700  0.00  0.00     0.019 A 
ATOM      7  C   UNL d   1      23.750 -18.957  -0.277  0.00  0.00     0.030 A 
ATOM      8  C   UNL d   1      22.421 -18.538  -0.172  0.00  0.00     0.034 A 
ATOM      9  C   UNL d   1      22.121 -17.219  -0.520  0.00  0.00     0.030 A 
ATOM     10  C   UNL d   1      23.115 -16.321  -0.944  0.00  0.00     0.019 A 
BRANCH   8  11
ATOM     11  N   UNL d   1      21.410 -19.391   0.350  0.00  0.00    -0.327 N 
ATOM     12  C   UNL d   1      20.350 -19.854  -0.420  0.00  0.00     0.221 C 
ATOM     13  O   UNL d   1      20.277 -19.700  -1.639  0.00  0.00    -0.273 OA
ATOM     14  H   UNL d   1      21.513 -19.714   1.305  0.00  0.00     0.169 HD
BRANCH  12  15
ATOM     15  C   UNL d   1      19.260 -20.611   0.329  0.00  0.00     0.098 C 
ATOM     16  C   UNL d   1      19.148 -20.073   1.758  0.00  0.00     0.014 C 
ENDBRANCH  12  15
ENDBRANCH   8  11
ENDBRANCH   1   5
BRANCH   3  17
ATOM     17  N   UNL d   1      26.077 -13.876  -3.041  0.00  0.00    -0.273 N 
ATOM     18  H   UNL d   1      26.692 -13.351  -2.419  0.00  0.00     0.189 HD
BRANCH  17  19
ATOM     19  C   UNL d   1      26.020 -13.815  -4.440  0.00  0.00     0.193 C 
ATOM     20  S   UNL d   1      26.433 -15.199  -5.316  0.00  0.00    -0.039 SA
BRANCH  19  21
ATOM     21  N   UNL d   1      25.608 -12.580  -4.973  0.00  0.00    -0.303 N 
ATOM     22  C   UNL d   1      26.263 -11.494  -5.563  0.00  0.00     0.219 C 
ATOM     23  C   UNL d   1      27.760 -11.465  -5.750  0.00  0.00     0.117 C 
ATOM     24  O   UNL d   1      25.590 -10.528  -5.942  0.00  0.00    -0.274 OA
ATOM     25  H   UNL d   1      24.612 -12.385  -4.951  0.00  0.00     0.171 HD
ENDBRANCH  19  21
ENDBRANCH  17  19
ENDBRANCH   3  17
TORSDOF 6
ENDMDL
MODEL 2
REMARK VINA RESULT:    -8.164      2.490      2.609
REMARK INTER + INTRA:         -11.331
REMARK INTER:                  -9.953
REMARK INTRA:                  -1.378
REMARK CONF_INDEPENDENT:        1.790
REMARK UNBOUND:                -1.378
REMARK  6 active torsions:
REMARK  status: ('A' for Active; 'I' for Inactive)
REMARK    1  A    between atoms: C_2  and  C_3 
REMARK       I    between atoms: C_3  and  N_5 
REMARK    2  A    between atoms: N_5  and  C_6 
REMARK    3  A    between atoms: C_9  and  C_10 
REMARK       I    between atoms: C_10  and  N_12 
REMARK    4  A    between atoms: N_12  and  N_13 
REMARK    5  A    between atoms: N_13  and  C_14 
REMARK    6  A    between atoms: C_14  and  N_16 
REMARK       I    between atoms: N_16  and  C_17 
ROOT
ATOM      1  C   UNL d   1      25.734 -16.080  -1.657  0.00  0.00     0.270 C 
ATOM      2  O   UNL d   1      25.577 -15.267  -2.569  0.00  0.00    -0.266 OA
ATOM      3  N   UNL d   1      26.961 -16.303  -1.077  0.00  0.00    -0.264 N 
ATOM      4  H   UNL d   1      27.089 -16.957  -0.308  0.00  0.00     0.190 HD
ENDROOT
BRANCH   1   5
ATOM      5  C   UNL d   1      24.562 -16.875  -1.102  0.00  0.00     0.033 A 
ATOM      6  C   UNL d   1      24.772 -18.199  -0.675  0.00  0.00     0.019 A 
ATOM      7  C   UNL d   1      23.704 -19.011  -0.222  0.00  0.00     0.030 A 
ATOM      8  C   UNL d   1      22.406 -18.499  -0.154  0.00  0.00     0.034 A 
ATOM      9  C   UNL d   1      22.200 -17.181  -0.568  0.00  0.00     0.030 A 
ATOM     10  C   UNL d   1      23.256 -16.374  -1.022  0.00  0.00     0.019 A 
BRANCH   8  11
ATOM     11  N   UNL d   1      21.335 -19.256   0.395  0.00  0.00    -0.327 N 
ATOM     12  C   UNL d   1      20.287 -19.742  -0.378  0.00  0.00     0.221 C 
ATOM     13  O   UNL d   1      20.273 -19.698  -1.608  0.00  0.00    -0.273 OA
ATOM     14  H   UNL d   1      21.381 -19.494   1.379  0.00  0.00     0.169 HD
BRANCH  12  15
ATOM     15  C   UNL d   1      19.132 -20.379   0.385  0.00  0.00     0.098 C 
ATOM     16  C   UNL d   1      19.347 -20.200   1.889  0.00  0.00     0.014 C 
ENDBRANCH  12  15
ENDBRANCH   8  11
ENDBRANCH   1   5
BRANCH   3  17
ATOM     17  N   UNL d   1      28.171 -15.625  -1.436  0.00  0.00    -0.273 N 
ATOM     18  H   UNL d   1      28.517 -14.929  -0.775  0.00  0.00     0.189 HD
BRANCH  17  19
ATOM     19  C   UNL d   1      28.752 -16.013  -2.652  0.00  0.00     0.193 C 
ATOM     20  S   UNL d   1      30.247 -16.798  -2.607  0.00  0.00    -0.039 SA
BRANCH  19  21
ATOM     21  N   UNL d   1      28.005 -15.702  -3.803  0.00  0.00    -0.303 N 
ATOM     22  C   UNL d   1      28.317 -15.444  -5.141  0.00  0.00     0.219 C 
ATOM     23  C   UNL d   1      29.739 -15.454  -5.649  0.00  0.00     0.117 C 
ATOM     24  O   UNL d   1      27.398 -15.200  -5.931  0.00  0.00    -0.274 OA
ATOM     25  H   UNL d   1      26.998 -15.644  -3.688  0.00  0.00     0.171 HD
ENDBRANCH  19  21
ENDBRANCH  17  19
ENDBRANCH   3  17
TORSDOF 6
ENDMDL
MODEL 3
REMARK VINA RESULT:    -8.079      1.813      1.871
REMARK INTER + INTRA:         -11.266
REMARK INTER:                  -9.869
REMARK INTRA:                  -1.398
REMARK CONF_INDEPENDENT:        1.790
REMARK UNBOUND:                -1.398
REMARK  6 active torsions:
REMARK  status: ('A' for Active; 'I' for Inactive)
REMARK    1  A    between atoms: C_2  and  C_3 
REMARK       I    between atoms: C_3  and  N_5 
REMARK    2  A    between atoms: N_5  and  C_6 
REMARK    3  A    between atoms: C_9  and  C_10 
REMARK       I    between atoms: C_10  and  N_12 
REMARK    4  A    between atoms: N_12  and  N_13 
REMARK    5  A    between atoms: N_13  and  C_14 
REMARK    6  A    between atoms: C_14  and  N_16 
REMARK       I    between atoms: N_16  and  C_17 
ROOT
ATOM      1  C   UNL d   1      25.780 -16.110  -1.606  0.00  0.00     0.270 C 
ATOM      2  O   UNL d   1      26.609 -16.614  -2.365  0.00  0.00    -0.266 OA
ATOM      3  N   UNL d   1      25.857 -14.797  -1.205  0.00  0.00    -0.264 N 
ATOM      4  H   UNL d   1      25.161 -14.371  -0.596  0.00  0.00     0.190 HD
ENDROOT
BRANCH   1   5
ATOM      5  C   UNL d   1      24.600 -16.915  -1.083  0.00  0.00     0.033 A 
ATOM      6  C   UNL d   1      24.822 -18.206  -0.571  0.00  0.00     0.019 A 
ATOM      7  C   UNL d   1      23.753 -19.030  -0.143  0.00  0.00     0.030 A 
ATOM      8  C   UNL d   1      22.438 -18.560  -0.186  0.00  0.00     0.034 A 
ATOM      9  C   UNL d   1      22.218 -17.274  -0.685  0.00  0.00     0.030 A 
ATOM     10  C   UNL d   1      23.276 -16.456  -1.114  0.00  0.00     0.019 A 
BRANCH   8  11
ATOM     11  N   UNL d   1      21.357 -19.324   0.335  0.00  0.00    -0.327 N 
ATOM     12  C   UNL d   1      20.307 -19.772  -0.457  0.00  0.00     0.221 C 
ATOM     13  O   UNL d   1      20.297 -19.687  -1.685  0.00  0.00    -0.273 OA
ATOM     14  H   UNL d   1      21.398 -19.594   1.311  0.00  0.00     0.169 HD
BRANCH  12  15
ATOM     15  C   UNL d   1      19.142 -20.421   0.282  0.00  0.00     0.098 C 
ATOM     16  C   UNL d   1      19.115 -19.932   1.731  0.00  0.00     0.014 C 
ENDBRANCH  12  15
ENDBRANCH   8  11
ENDBRANCH   1   5
BRANCH   3  17
ATOM     17  N   UNL d   1      26.871 -13.873  -1.620  0.00  0.00    -0.273 N 
ATOM     18  H   UNL d   1      27.598 -13.659  -0.938  0.00  0.00     0.189 HD
BRANCH  17  19
ATOM     19  C   UNL d   1      26.754 -13.384  -2.929  0.00  0.00     0.193 C 
ATOM     20  S   UNL d   1      26.883 -11.717  -3.173  0.00  0.00    -0.039 SA
BRANCH  19  21
ATOM     21  N   UNL d   1      26.543 -14.361  -3.920  0.00  0.00    -0.303 N 
ATOM     22  C   UNL d   1      27.050 -14.588  -5.203  0.00  0.00     0.219 C 
ATOM     23  C   UNL d   1      28.068 -13.671  -5.838  0.00  0.00     0.117 C 
ATOM     24  O   UNL d   1      26.649 -15.572  -5.836  0.00  0.00    -0.274 OA
ATOM     25  H   UNL d   1      25.879 -15.096  -3.699  0.00  0.00     0.171 HD
ENDBRANCH  19  21
ENDBRANCH  17  19
ENDBRANCH   3  17
TORSDOF 6
ENDMDL
MODEL 4
REMARK VINA RESULT:    -7.962      1.862      2.098
REMARK INTER + INTRA:         -11.210
REMARK INTER:                  -9.752
REMARK INTRA:                  -1.459
REMARK CONF_INDEPENDENT:        1.790
REMARK UNBOUND:                -1.459
REMARK  6 active torsions:
REMARK  status: ('A' for Active; 'I' for Inactive)
REMARK    1  A    between atoms: C_2  and  C_3 
REMARK       I    between atoms: C_3  and  N_5 
REMARK    2  A    between atoms: N_5  and  C_6 
REMARK    3  A    between atoms: C_9  and  C_10 
REMARK       I    between atoms: C_10  and  N_12 
REMARK    4  A    between atoms: N_12  and  N_13 
REMARK    5  A    between atoms: N_13  and  C_14 
REMARK    6  A    between atoms: C_14  and  N_16 
REMARK       I    between atoms: N_16  and  C_17 
ROOT
ATOM      1  C   UNL d   1      25.839 -15.849  -1.148  0.00  0.00     0.270 C 
ATOM      2  O   UNL d   1      25.894 -14.670  -0.793  0.00  0.00    -0.266 OA
ATOM      3  N   UNL d   1      26.846 -16.442  -1.875  0.00  0.00    -0.264 N 
ATOM      4  H   UNL d   1      26.814 -17.422  -2.150  0.00  0.00     0.190 HD
ENDROOT
BRANCH   1   5
ATOM      5  C   UNL d   1      24.655 -16.728  -0.778  0.00  0.00     0.033 A 
ATOM      6  C   UNL d   1      24.884 -18.061  -0.392  0.00  0.00     0.019 A 
ATOM      7  C   UNL d   1      23.815 -18.948  -0.113  0.00  0.00     0.030 A 
ATOM      8  C   UNL d   1      22.493 -18.504  -0.181  0.00  0.00     0.034 A 
ATOM      9  C   UNL d   1      22.266 -17.177  -0.554  0.00  0.00     0.030 A 
ATOM     10  C   UNL d   1      23.323 -16.296  -0.836  0.00  0.00     0.019 A 
BRANCH   8  11
ATOM     11  N   UNL d   1      21.406 -19.340   0.197  0.00  0.00    -0.327 N 
ATOM     12  C   UNL d   1      20.394 -19.697  -0.686  0.00  0.00     0.221 C 
ATOM     13  O   UNL d   1      20.429 -19.457  -1.893  0.00  0.00    -0.273 OA
ATOM     14  H   UNL d   1      21.415 -19.732   1.131  0.00  0.00     0.169 HD
BRANCH  12  15
ATOM     15  C   UNL d   1      19.214 -20.449  -0.083  0.00  0.00     0.098 C 
ATOM     16  C   UNL d   1      18.965 -19.956   1.344  0.00  0.00     0.014 C 
ENDBRANCH  12  15
ENDBRANCH   8  11
ENDBRANCH   1   5
BRANCH   3  17
ATOM     17  N   UNL d   1      28.054 -15.789  -2.284  0.00  0.00    -0.273 N 
ATOM     18  H   UNL d   1      28.928 -16.224  -1.986  0.00  0.00     0.189 HD
BRANCH  17  19
ATOM     19  C   UNL d   1      27.893 -14.636  -3.064  0.00  0.00     0.193 C 
ATOM     20  S   UNL d   1      29.281 -13.843  -3.611  0.00  0.00    -0.039 SA
BRANCH  19  21
ATOM     21  N   UNL d   1      26.561 -14.261  -3.316  0.00  0.00    -0.303 N 
ATOM     22  C   UNL d   1      25.608 -14.598  -4.283  0.00  0.00     0.219 C 
ATOM     23  C   UNL d   1      25.904 -15.576  -5.394  0.00  0.00     0.117 C 
ATOM     24  O   UNL d   1      24.489 -14.077  -4.223  0.00  0.00    -0.274 OA
ATOM     25  H   UNL d   1      26.148 -13.593  -2.673  0.00  0.00     0.171 HD
ENDBRANCH  19  21
ENDBRANCH  17  19
ENDBRANCH   3  17
TORSDOF 6
ENDMDL
MODEL 5
REMARK VINA RESULT:    -7.667      2.867      8.915
REMARK INTER + INTRA:         -10.302
REMARK INTER:                  -9.456
REMARK INTRA:                  -0.845
REMARK CONF_INDEPENDENT:        1.790
REMARK UNBOUND:                -0.845
REMARK  6 active torsions:
REMARK  status: ('A' for Active; 'I' for Inactive)
REMARK    1  A    between atoms: C_2  and  C_3 
REMARK       I    between atoms: C_3  and  N_5 
REMARK    2  A    between atoms: N_5  and  C_6 
REMARK    3  A    between atoms: C_9  and  C_10 
REMARK       I    between atoms: C_10  and  N_12 
REMARK    4  A    between atoms: N_12  and  N_13 
REMARK    5  A    between atoms: N_13  and  C_14 
REMARK    6  A    between atoms: C_14  and  N_16 
REMARK       I    between atoms: N_16  and  C_17 
ROOT
ATOM      1  C   UNL d   1      24.620 -18.091  -0.291  0.00  0.00     0.270 C 
ATOM      2  O   UNL d   1      24.983 -18.301   0.867  0.00  0.00    -0.266 OA
ATOM      3  N   UNL d   1      23.520 -18.712  -0.837  0.00  0.00    -0.264 N 
ATOM      4  H   UNL d   1      23.204 -18.524  -1.786  0.00  0.00     0.190 HD
ENDROOT
BRANCH   1   5
ATOM      5  C   UNL d   1      25.361 -17.108  -1.183  0.00  0.00     0.033 A 
ATOM      6  C   UNL d   1      26.753 -16.963  -1.037  0.00  0.00     0.019 A 
ATOM      7  C   UNL d   1      27.483 -16.008  -1.785  0.00  0.00     0.030 A 
ATOM      8  C   UNL d   1      26.836 -15.201  -2.723  0.00  0.00     0.034 A 
ATOM      9  C   UNL d   1      25.456 -15.352  -2.876  0.00  0.00     0.030 A 
ATOM     10  C   UNL d   1      24.728 -16.295  -2.133  0.00  0.00     0.019 A 
BRANCH   8  11
ATOM     11  N   UNL d   1      27.559 -14.309  -3.563  0.00  0.00    -0.327 N 
ATOM     12  C   UNL d   1      27.667 -14.495  -4.936  0.00  0.00     0.221 C 
ATOM     13  O   UNL d   1      27.028 -15.343  -5.559  0.00  0.00    -0.273 OA
ATOM     14  H   UNL d   1      27.954 -13.478  -3.139  0.00  0.00     0.169 HD
BRANCH  12  15
ATOM     15  C   UNL d   1      28.619 -13.555  -5.666  0.00  0.00     0.098 C 
ATOM     16  C   UNL d   1      28.740 -13.980  -7.131  0.00  0.00     0.014 C 
ENDBRANCH  12  15
ENDBRANCH   8  11
ENDBRANCH   1   5
BRANCH   3  17
ATOM     17  N   UNL d   1      22.674 -19.638  -0.144  0.00  0.00    -0.273 N 
ATOM     18  H   UNL d   1      23.125 -20.473   0.230  0.00  0.00     0.189 HD
BRANCH  17  19
ATOM     19  C   UNL d   1      21.324 -19.277  -0.043  0.00  0.00     0.193 C 
ATOM     20  S   UNL d   1      20.660 -18.323  -1.270  0.00  0.00    -0.039 SA
BRANCH  19  21
ATOM     21  N   UNL d   1      20.653 -19.765   1.093  0.00  0.00    -0.303 N 
ATOM     22  C   UNL d   1      19.408 -20.358   1.323  0.00  0.00     0.219 C 
ATOM     23  C   UNL d   1      18.420 -20.609   0.209  0.00  0.00     0.117 C 
ATOM     24  O   UNL d   1      19.109 -20.687   2.477  0.00  0.00    -0.274 OA
ATOM     25  H   UNL d   1      21.147 -19.695   1.977  0.00  0.00     0.171 HD
ENDBRANCH  19  21
ENDBRANCH  17  19
ENDBRANCH   3  17
TORSDOF 6
ENDMDL
MODEL 6
REMARK VINA RESULT:    -7.631      3.183      4.202
REMARK INTER + INTRA:         -10.513
REMARK INTER:                  -9.421
REMARK INTRA:                  -1.093
REMARK CONF_INDEPENDENT:        1.790
REMARK UNBOUND:                -1.093
REMARK  6 active torsions:
REMARK  status: ('A' for Active; 'I' for Inactive)
REMARK    1  A    between atoms: C_2  and  C_3 
REMARK       I    between atoms: C_3  and  N_5 
REMARK    2  A    between atoms: N_5  and  C_6 
REMARK    3  A    between atoms: C_9  and  C_10 
REMARK       I    between atoms: C_10  and  N_12 
REMARK    4  A    between atoms: N_12  and  N_13 
REMARK    5  A    between atoms: N_13  and  C_14 
REMARK    6  A    between atoms: C_14  and  N_16 
REMARK       I    between atoms: N_16  and  C_17 
ROOT
ATOM      1  C   UNL d   1      25.565 -15.812  -1.393  0.00  0.00     0.270 C 
ATOM      2  O   UNL d   1      25.409 -15.030  -2.333  0.00  0.00    -0.266 OA
ATOM      3  N   UNL d   1      26.740 -15.873  -0.679  0.00  0.00    -0.264 N 
ATOM      4  H   UNL d   1      26.863 -16.502   0.112  0.00  0.00     0.190 HD
ENDROOT
BRANCH   1   5
ATOM      5  C   UNL d   1      24.449 -16.745  -0.952  0.00  0.00     0.033 A 
ATOM      6  C   UNL d   1      24.773 -18.036  -0.498  0.00  0.00     0.019 A 
ATOM      7  C   UNL d   1      23.771 -18.975  -0.149  0.00  0.00     0.030 A 
ATOM      8  C   UNL d   1      22.421 -18.623  -0.214  0.00  0.00     0.034 A 
ATOM      9  C   UNL d   1      22.099 -17.337  -0.654  0.00  0.00     0.030 A 
ATOM     10  C   UNL d   1      23.090 -16.406  -1.006  0.00  0.00     0.019 A 
BRANCH   8  11
ATOM     11  N   UNL d   1      21.399 -19.507   0.231  0.00  0.00    -0.327 N 
ATOM     12  C   UNL d   1      20.238 -19.737  -0.497  0.00  0.00     0.221 C 
ATOM     13  O   UNL d   1      20.064 -19.328  -1.645  0.00  0.00    -0.273 OA
ATOM     14  H   UNL d   1      21.565 -20.028   1.085  0.00  0.00     0.169 HD
BRANCH  12  15
ATOM     15  C   UNL d   1      19.167 -20.570   0.197  0.00  0.00     0.098 C 
ATOM     16  C   UNL d   1      18.944 -20.042   1.616  0.00  0.00     0.014 C 
ENDBRANCH  12  15
ENDBRANCH   8  11
ENDBRANCH   1   5
BRANCH   3  17
ATOM     17  N   UNL d   1      27.888 -15.050  -0.919  0.00  0.00    -0.273 N 
ATOM     18  H   UNL d   1      27.843 -14.434  -1.731  0.00  0.00     0.189 HD
BRANCH  17  19
ATOM     19  C   UNL d   1      28.934 -15.174   0.006  0.00  0.00     0.193 C 
ATOM     20  S   UNL d   1      30.495 -15.435  -0.586  0.00  0.00    -0.039 SA
BRANCH  19  21
ATOM     21  N   UNL d   1      28.560 -15.058   1.357  0.00  0.00    -0.303 N 
ATOM     22  C   UNL d   1      27.702 -14.217   2.074  0.00  0.00     0.219 C 
ATOM     23  C   UNL d   1      26.913 -13.117   1.406  0.00  0.00     0.117 C 
ATOM     24  O   UNL d   1      27.589 -14.383   3.294  0.00  0.00    -0.274 OA
ATOM     25  H   UNL d   1      28.981 -15.718   2.003  0.00  0.00     0.171 HD
ENDBRANCH  19  21
ENDBRANCH  17  19
ENDBRANCH   3  17
TORSDOF 6
ENDMDL
MODEL 7
REMARK VINA RESULT:    -7.394      2.210      2.754
REMARK INTER + INTRA:         -10.600
REMARK INTER:                  -9.183
REMARK INTRA:                  -1.416
REMARK CONF_INDEPENDENT:        1.790
REMARK UNBOUND:                -1.416
REMARK  6 active torsions:
REMARK  status: ('A' for Active; 'I' for Inactive)
REMARK    1  A    between atoms: C_2  and  C_3 
REMARK       I    between atoms: C_3  and  N_5 
REMARK    2  A    between atoms: N_5  and  C_6 
REMARK    3  A    between atoms: C_9  and  C_10 
REMARK       I    between atoms: C_10  and  N_12 
REMARK    4  A    between atoms: N_12  and  N_13 
REMARK    5  A    between atoms: N_13  and  C_14 
REMARK    6  A    between atoms: C_14  and  N_16 
REMARK       I    between atoms: N_16  and  C_17 
ROOT
ATOM      1  C   UNL d   1      25.746 -16.077  -1.471  0.00  0.00     0.270 C 
ATOM      2  O   UNL d   1      26.880 -16.277  -1.033  0.00  0.00    -0.266 OA
ATOM      3  N   UNL d   1      25.493 -15.141  -2.448  0.00  0.00    -0.264 N 
ATOM      4  H   UNL d   1      24.561 -14.989  -2.828  0.00  0.00     0.190 HD
ENDROOT
BRANCH   1   5
ATOM      5  C   UNL d   1      24.555 -16.877  -0.967  0.00  0.00     0.033 A 
ATOM      6  C   UNL d   1      24.752 -18.200  -0.533  0.00  0.00     0.019 A 
ATOM      7  C   UNL d   1      23.669 -19.018  -0.127  0.00  0.00     0.030 A 
ATOM      8  C   UNL d   1      22.367 -18.511  -0.115  0.00  0.00     0.034 A 
ATOM      9  C   UNL d   1      22.174 -17.194  -0.537  0.00  0.00     0.030 A 
ATOM     10  C   UNL d   1      23.245 -16.382  -0.944  0.00  0.00     0.019 A 
BRANCH   8  11
ATOM     11  N   UNL d   1      21.277 -19.273   0.387  0.00  0.00    -0.327 N 
ATOM     12  C   UNL d   1      20.276 -19.781  -0.435  0.00  0.00     0.221 C 
ATOM     13  O   UNL d   1      20.327 -19.752  -1.664  0.00  0.00    -0.273 OA
ATOM     14  H   UNL d   1      21.273 -19.497   1.375  0.00  0.00     0.169 HD
BRANCH  12  15
ATOM     15  C   UNL d   1      19.089 -20.420   0.274  0.00  0.00     0.098 C 
ATOM     16  C   UNL d   1      19.054 -19.964   1.735  0.00  0.00     0.014 C 
ENDBRANCH  12  15
ENDBRANCH   8  11
ENDBRANCH   1   5
BRANCH   3  17
ATOM     17  N   UNL d   1      26.487 -14.319  -3.072  0.00  0.00    -0.273 N 
ATOM     18  H   UNL d   1      26.526 -13.345  -2.772  0.00  0.00     0.189 HD
BRANCH  17  19
ATOM     19  C   UNL d   1      27.308 -14.958  -4.011  0.00  0.00     0.193 C 
ATOM     20  S   UNL d   1      27.166 -14.506  -5.633  0.00  0.00    -0.039 SA
BRANCH  19  21
ATOM     21  N   UNL d   1      28.184 -15.926  -3.486  0.00  0.00    -0.303 N 
ATOM     22  C   UNL d   1      29.518 -16.277  -3.719  0.00  0.00     0.219 C 
ATOM     23  C   UNL d   1      30.370 -15.561  -4.739  0.00  0.00     0.117 C 
ATOM     24  O   UNL d   1      30.012 -17.204  -3.067  0.00  0.00    -0.274 OA
ATOM     25  H   UNL d   1      27.811 -16.534  -2.765  0.00  0.00     0.171 HD
ENDBRANCH  19  21
ENDBRANCH  17  19
ENDBRANCH   3  17
TORSDOF 6
ENDMDL
MODEL 8
REMARK VINA RESULT:    -7.235      2.089      2.462
REMARK INTER + INTRA:         -10.025
REMARK INTER:                  -9.025
REMARK INTRA:                  -1.000
REMARK CONF_INDEPENDENT:        1.790
REMARK UNBOUND:                -1.000
REMARK  6 active torsions:
REMARK  status: ('A' for Active; 'I' for Inactive)
REMARK    1  A    between atoms: C_2  and  C_3 
REMARK       I    between atoms: C_3  and  N_5 
REMARK    2  A    between atoms: N_5  and  C_6 
REMARK    3  A    between atoms: C_9  and  C_10 
REMARK       I    between atoms: C_10  and  N_12 
REMARK    4  A    between atoms: N_12  and  N_13 
REMARK    5  A    between atoms: N_13  and  C_14 
REMARK    6  A    between atoms: C_14  and  N_16 
REMARK       I    between atoms: N_16  and  C_17 
ROOT
ATOM      1  C   UNL d   1      25.321 -15.487  -2.151  0.00  0.00     0.270 C 
ATOM      2  O   UNL d   1      25.232 -15.161  -3.336  0.00  0.00    -0.266 OA
ATOM      3  N   UNL d   1      26.271 -14.951  -1.313  0.00  0.00    -0.264 N 
ATOM      4  H   UNL d   1      26.333 -15.202  -0.328  0.00  0.00     0.190 HD
ENDROOT
BRANCH   1   5
ATOM      5  C   UNL d   1      24.361 -16.495  -1.538  0.00  0.00     0.033 A 
ATOM      6  C   UNL d   1      23.065 -16.081  -1.185  0.00  0.00     0.019 A 
ATOM      7  C   UNL d   1      22.155 -16.954  -0.540  0.00  0.00     0.030 A 
ATOM      8  C   UNL d   1      22.517 -18.276  -0.268  0.00  0.00     0.034 A 
ATOM      9  C   UNL d   1      23.802 -18.690  -0.628  0.00  0.00     0.030 A 
ATOM     10  C   UNL d   1      24.707 -17.825  -1.264  0.00  0.00     0.019 A 
BRANCH   8  11
ATOM     11  N   UNL d   1      21.590 -19.204   0.281  0.00  0.00    -0.327 N 
ATOM     12  C   UNL d   1      20.511 -19.700  -0.440  0.00  0.00     0.221 C 
ATOM     13  O   UNL d   1      20.353 -19.508  -1.646  0.00  0.00    -0.273 OA
ATOM     14  H   UNL d   1      21.770 -19.553   1.215  0.00  0.00     0.169 HD
BRANCH  12  15
ATOM     15  C   UNL d   1      19.514 -20.544   0.344  0.00  0.00     0.098 C 
ATOM     16  C   UNL d   1      19.480 -20.080   1.802  0.00  0.00     0.014 C 
ENDBRANCH  12  15
ENDBRANCH   8  11
ENDBRANCH   1   5
BRANCH   3  17
ATOM     17  N   UNL d   1      27.236 -13.962  -1.696  0.00  0.00    -0.273 N 
ATOM     18  H   UNL d   1      27.919 -14.242  -2.400  0.00  0.00     0.189 HD
BRANCH  17  19
ATOM     19  C   UNL d   1      27.114 -12.714  -1.069  0.00  0.00     0.193 C 
ATOM     20  S   UNL d   1      27.029 -12.674   0.618  0.00  0.00    -0.039 SA
BRANCH  19  21
ATOM     21  N   UNL d   1      27.082 -11.606  -1.934  0.00  0.00    -0.303 N 
ATOM     22  C   UNL d   1      26.439 -11.317  -3.142  0.00  0.00     0.219 C 
ATOM     23  C   UNL d   1      25.530 -12.311  -3.825  0.00  0.00     0.117 C 
ATOM     24  O   UNL d   1      26.622 -10.211  -3.665  0.00  0.00    -0.274 OA
ATOM     25  H   UNL d   1      27.636 -10.800  -1.662  0.00  0.00     0.171 HD
ENDBRANCH  19  21
ENDBRANCH  17  19
ENDBRANCH   3  17
TORSDOF 6
ENDMDL
MODEL 9
REMARK VINA RESULT:    -7.007      2.476      3.282
REMARK INTER + INTRA:         -10.322
REMARK INTER:                  -8.797
REMARK INTRA:                  -1.525
REMARK CONF_INDEPENDENT:        1.790
REMARK UNBOUND:                -1.525
REMARK  6 active torsions:
REMARK  status: ('A' for Active; 'I' for Inactive)
REMARK    1  A    between atoms: C_2  and  C_3 
REMARK       I    between atoms: C_3  and  N_5 
REMARK    2  A    between atoms: N_5  and  C_6 
REMARK    3  A    between atoms: C_9  and  C_10 
REMARK       I    between atoms: C_10  and  N_12 
REMARK    4  A    between atoms: N_12  and  N_13 
REMARK    5  A    between atoms: N_13  and  C_14 
REMARK    6  A    between atoms: C_14  and  N_16 
REMARK       I    between atoms: N_16  and  C_17 
ROOT
ATOM      1  C   UNL d   1      25.604 -15.906  -1.665  0.00  0.00     0.270 C 
ATOM      2  O   UNL d   1      26.773 -16.293  -1.656  0.00  0.00    -0.266 OA
ATOM      3  N   UNL d   1      25.244 -14.676  -2.168  0.00  0.00    -0.264 N 
ATOM      4  H   UNL d   1      24.276 -14.362  -2.198  0.00  0.00     0.190 HD
ENDROOT
BRANCH   1   5
ATOM      5  C   UNL d   1      24.479 -16.783  -1.138  0.00  0.00     0.033 A 
ATOM      6  C   UNL d   1      24.736 -18.139  -0.866  0.00  0.00     0.019 A 
ATOM      7  C   UNL d   1      23.710 -19.020  -0.448  0.00  0.00     0.030 A 
ATOM      8  C   UNL d   1      22.408 -18.550  -0.260  0.00  0.00     0.034 A 
ATOM      9  C   UNL d   1      22.155 -17.201  -0.520  0.00  0.00     0.030 A 
ATOM     10  C   UNL d   1      23.170 -16.325  -0.939  0.00  0.00     0.019 A 
BRANCH   8  11
ATOM     11  N   UNL d   1      21.382 -19.387   0.261  0.00  0.00    -0.327 N 
ATOM     12  C   UNL d   1      20.323 -19.844  -0.515  0.00  0.00     0.221 C 
ATOM     13  O   UNL d   1      20.264 -19.700  -1.736  0.00  0.00    -0.273 OA
ATOM     14  H   UNL d   1      21.472 -19.702   1.219  0.00  0.00     0.169 HD
BRANCH  12  15
ATOM     15  C   UNL d   1      19.217 -20.581   0.230  0.00  0.00     0.098 C 
ATOM     16  C   UNL d   1      19.065 -19.996   1.636  0.00  0.00     0.014 C 
ENDBRANCH  12  15
ENDBRANCH   8  11
ENDBRANCH   1   5
BRANCH   3  17
ATOM     17  N   UNL d   1      26.154 -13.728  -2.741  0.00  0.00    -0.273 N 
ATOM     18  H   UNL d   1      26.145 -13.648  -3.758  0.00  0.00     0.189 HD
BRANCH  17  19
ATOM     19  C   UNL d   1      26.938 -13.005  -1.831  0.00  0.00     0.193 C 
ATOM     20  S   UNL d   1      27.267 -11.384  -2.174  0.00  0.00    -0.039 SA
BRANCH  19  21
ATOM     21  N   UNL d   1      27.369 -13.725  -0.702  0.00  0.00    -0.303 N 
ATOM     22  C   UNL d   1      27.302 -13.524   0.680  0.00  0.00     0.219 C 
ATOM     23  C   UNL d   1      26.655 -12.300   1.282  0.00  0.00     0.117 C 
ATOM     24  O   UNL d   1      27.790 -14.377   1.431  0.00  0.00    -0.274 OA
ATOM     25  H   UNL d   1      27.842 -14.606  -0.878  0.00  0.00     0.171 HD
ENDBRANCH  19  21
ENDBRANCH  17  19
ENDBRANCH   3  17
TORSDOF 6
ENDMDL
