MODEL 1
REMARK VINA RESULT:    -7.926      0.000      0.000
REMARK INTER + INTRA:         -13.375
REMARK INTER:                 -11.505
REMARK INTRA:                  -1.869
REMARK CONF_INDEPENDENT:        3.580
REMARK UNBOUND:                -1.869
REMARK  12 active torsions:
REMARK  status: ('A' for Active; 'I' for Inactive)
REMARK    1  A    between atoms: C_2  and  N_3 
REMARK    2  A    between atoms: N_3  and  C_4 
REMARK    3  A    between atoms: N_3  and  C_6 
REMARK    4  A    between atoms: C_6  and  C_7 
REMARK    5  A    between atoms: C_7  and  N_8 
REMARK       I    between atoms: N_8  and  C_9 
REMARK    6  A    between atoms: C_9  and  C_11 
REMARK    7  A    between atoms: C_14  and  N_15 
REMARK    8  A    between atoms: N_15  and  C_16 
REMARK    9  A    between atoms: C_16  and  N_18 
REMARK       I    between atoms: N_18  and  C_19 
REMARK   10  A    between atoms: C_19  and  C_21 
REMARK   11  A    between atoms: C_23  and  N_24 
REMARK   12  A    between atoms: C_28  and  N_29 
ROOT
ATOM      1  N   UNL d   1      29.174 -14.616   3.528  0.00  0.00    -0.333 N 
ATOM      2  H   UNL d   1      29.587 -15.546   3.561  0.00  0.00     0.168 HD
ENDROOT
BRANCH   1   3
ATOM      3  C   UNL d   1      28.870 -14.053   4.848  0.00  0.00     0.034 A 
ATOM      4  C   UNL d   1      27.940 -13.021   5.061  0.00  0.00     0.030 A 
ATOM      5  C   UNL d   1      27.781 -12.437   6.359  0.00  0.00     0.019 A 
ATOM      6  C   UNL d   1      28.516 -12.903   7.460  0.00  0.00     0.032 A 
ATOM      7  C   UNL d   1      29.387 -13.942   7.271  0.00  0.00     0.019 A 
ATOM      8  C   UNL d   1      29.499 -14.501   6.011  0.00  0.00     0.030 A 
BRANCH   6   9
ATOM      9  C   UNL d   1      28.286 -12.468   8.859  0.00  0.00     0.251 C 
ATOM     10  N   UNL d   1      28.155 -13.487   9.803  0.00  0.00    -0.355 N 
ATOM     11  H   UNL d   1      28.346 -14.444   9.527  0.00  0.00     0.162 HD
ATOM     12  O   UNL d   1      28.179 -11.290   9.138  0.00  0.00    -0.268 OA
BRANCH  10  13
ATOM     13  C   UNL d   1      27.937 -13.128  11.184  0.00  0.00     0.150 C 
BRANCH  13  14
ATOM     14  C   UNL d   1      29.204 -12.670  11.921  0.00  0.00     0.254 C 
BRANCH  14  15
ATOM     15  N   UNL d   1      29.958 -11.539  11.188  0.00  0.00    -0.070 N 
ATOM     16  H   UNL d   1      29.272 -11.074  10.574  0.00  0.00     0.279 HD
BRANCH  15  17
ATOM     17  C   UNL d   1      30.421 -10.523  12.230  0.00  0.00     0.230 C 
ATOM     18  C   UNL d   1      30.449  -9.096  11.723  0.00  0.00     0.034 C 
ENDBRANCH  15  17
BRANCH  15  19
ATOM     19  C   UNL d   1      31.067 -12.126  10.325  0.00  0.00     0.230 C 
ATOM     20  C   UNL d   1      31.234 -13.623  10.449  0.00  0.00     0.034 C 
ENDBRANCH  15  19
ENDBRANCH  14  15
ENDBRANCH  13  14
ENDBRANCH  10  13
ENDBRANCH   6   9
ENDBRANCH   1   3
BRANCH   1  21
ATOM     21  C   UNL d   1      28.835 -14.049   2.256  0.00  0.00     0.179 C 
ATOM     22  S   UNL d   1      29.028 -12.427   1.814  0.00  0.00    -0.040 SA
BRANCH  21  23
ATOM     23  N   UNL d   1      28.279 -14.939   1.307  0.00  0.00    -0.299 N 
ATOM     24  C   UNL d   1      27.263 -14.553   0.397  0.00  0.00     0.258 C 
ATOM     25  O   UNL d   1      26.733 -13.449   0.289  0.00  0.00    -0.267 OA
ATOM     26  H   UNL d   1      28.612 -15.892   1.266  0.00  0.00     0.171 HD
BRANCH  24  27
ATOM     27  C   UNL d   1      26.659 -15.487  -0.556  0.00  0.00     0.037 A 
ATOM     28  C   UNL d   1      26.724 -15.140  -1.928  0.00  0.00     0.053 A 
ATOM     29  C   UNL d   1      25.896 -15.784  -2.850  0.00  0.00     0.106 A 
ATOM     30  C   UNL d   1      25.077 -16.837  -2.436  0.00  0.00     0.072 A 
ATOM     31  C   UNL d   1      25.005 -17.144  -1.066  0.00  0.00     0.106 A 
ATOM     32  C   UNL d   1      25.774 -16.459  -0.114  0.00  0.00     0.053 A 
BRANCH  29  33
ATOM     33  N   UNL d   1      25.785 -15.280  -4.230  0.00  0.00    -0.116 N 
ATOM     34  O   UNL d   1      24.780 -14.623  -4.527  0.00  0.00    -0.532 OA
ATOM     35  O   UNL d   1      26.695 -15.575  -5.016  0.00  0.00    -0.532 OA
ENDBRANCH  29  33
BRANCH  31  36
ATOM     36  N   UNL d   1      24.047 -18.150  -0.602  0.00  0.00    -0.116 N 
ATOM     37  O   UNL d   1      24.170 -18.568   0.555  0.00  0.00    -0.532 OA
ATOM     38  O   UNL d   1      23.173 -18.509  -1.402  0.00  0.00    -0.532 OA
ENDBRANCH  31  36
ENDBRANCH  24  27
ENDBRANCH  21  23
ENDBRANCH   1  21
TORSDOF 12
ENDMDL
MODEL 2
REMARK VINA RESULT:    -7.240      1.170      1.436
REMARK INTER + INTRA:         -13.288
REMARK INTER:                 -10.820
REMARK INTRA:                  -2.468
REMARK CONF_INDEPENDENT:        3.580
REMARK UNBOUND:                -2.468
REMARK  12 active torsions:
REMARK  status: ('A' for Active; 'I' for Inactive)
REMARK    1  A    between atoms: C_2  and  N_3 
REMARK    2  A    between atoms: N_3  and  C_4 
REMARK    3  A    between atoms: N_3  and  C_6 
REMARK    4  A    between atoms: C_6  and  C_7 
REMARK    5  A    between atoms: C_7  and  N_8 
REMARK       I    between atoms: N_8  and  C_9 
REMARK    6  A    between atoms: C_9  and  C_11 
REMARK    7  A    between atoms: C_14  and  N_15 
REMARK    8  A    between atoms: N_15  and  C_16 
REMARK    9  A    between atoms: C_16  and  N_18 
REMARK       I    between atoms: N_18  and  C_19 
REMARK   10  A    between atoms: C_19  and  C_21 
REMARK   11  A    between atoms: C_23  and  N_24 
REMARK   12  A    between atoms: C_28  and  N_29 
ROOT
ATOM      1  N   UNL d   1      28.251 -13.617   2.912  0.00  0.00    -0.333 N 
ATOM      2  H   UNL d   1      27.591 -12.993   2.454  0.00  0.00     0.168 HD
ENDROOT
BRANCH   1   3
ATOM      3  C   UNL d   1      28.275 -13.488   4.374  0.00  0.00     0.034 A 
ATOM      4  C   UNL d   1      27.877 -12.330   5.063  0.00  0.00     0.030 A 
ATOM      5  C   UNL d   1      28.041 -12.231   6.482  0.00  0.00     0.019 A 
ATOM      6  C   UNL d   1      28.562 -13.298   7.229  0.00  0.00     0.032 A 
ATOM      7  C   UNL d   1      28.905 -14.449   6.572  0.00  0.00     0.019 A 
ATOM      8  C   UNL d   1      28.712 -14.523   5.204  0.00  0.00     0.030 A 
BRANCH   6   9
ATOM      9  C   UNL d   1      28.604 -13.336   8.711  0.00  0.00     0.251 C 
ATOM     10  N   UNL d   1      28.705 -14.602   9.288  0.00  0.00    -0.355 N 
ATOM     11  H   UNL d   1      28.871 -15.405   8.692  0.00  0.00     0.162 HD
ATOM     12  O   UNL d   1      28.512 -12.316   9.365  0.00  0.00    -0.268 OA
BRANCH  10  13
ATOM     13  C   UNL d   1      28.756 -14.706  10.727  0.00  0.00     0.150 C 
BRANCH  13  14
ATOM     14  C   UNL d   1      30.172 -14.596  11.314  0.00  0.00     0.254 C 
BRANCH  14  15
ATOM     15  N   UNL d   1      31.090 -13.648  10.511  0.00  0.00    -0.070 N 
ATOM     16  H   UNL d   1      30.473 -13.033   9.960  0.00  0.00     0.279 HD
BRANCH  15  17
ATOM     17  C   UNL d   1      31.858 -12.777  11.504  0.00  0.00     0.230 C 
ATOM     18  C   UNL d   1      31.788 -11.295  11.199  0.00  0.00     0.034 C 
ENDBRANCH  15  17
BRANCH  15  19
ATOM     19  C   UNL d   1      31.960 -14.452   9.554  0.00  0.00     0.230 C 
ATOM     20  C   UNL d   1      33.103 -15.190  10.214  0.00  0.00     0.034 C 
ENDBRANCH  15  19
ENDBRANCH  14  15
ENDBRANCH  13  14
ENDBRANCH  10  13
ENDBRANCH   6   9
ENDBRANCH   1   3
BRANCH   1  21
ATOM     21  C   UNL d   1      29.130 -14.414   2.108  0.00  0.00     0.179 C 
ATOM     22  S   UNL d   1      30.818 -14.450   2.226  0.00  0.00    -0.040 SA
BRANCH  21  23
ATOM     23  N   UNL d   1      28.510 -15.224   1.127  0.00  0.00    -0.299 N 
ATOM     24  C   UNL d   1      27.319 -14.842   0.458  0.00  0.00     0.258 C 
ATOM     25  O   UNL d   1      26.671 -13.809   0.612  0.00  0.00    -0.267 OA
ATOM     26  H   UNL d   1      28.925 -16.112   0.883  0.00  0.00     0.171 HD
BRANCH  24  27
ATOM     27  C   UNL d   1      26.657 -15.700  -0.527  0.00  0.00     0.037 A 
ATOM     28  C   UNL d   1      26.728 -15.297  -1.883  0.00  0.00     0.053 A 
ATOM     29  C   UNL d   1      25.859 -15.854  -2.823  0.00  0.00     0.106 A 
ATOM     30  C   UNL d   1      24.987 -16.879  -2.445  0.00  0.00     0.072 A 
ATOM     31  C   UNL d   1      24.910 -17.241  -1.089  0.00  0.00     0.106 A 
ATOM     32  C   UNL d   1      25.724 -16.641  -0.117  0.00  0.00     0.053 A 
BRANCH  29  33
ATOM     33  N   UNL d   1      25.763 -15.286  -4.178  0.00  0.00    -0.116 N 
ATOM     34  O   UNL d   1      24.780 -14.584  -4.443  0.00  0.00    -0.532 OA
ATOM     35  O   UNL d   1      26.662 -15.575  -4.979  0.00  0.00    -0.532 OA
ENDBRANCH  29  33
BRANCH  31  36
ATOM     36  N   UNL d   1      23.903 -18.213  -0.658  0.00  0.00    -0.116 N 
ATOM     37  O   UNL d   1      23.174 -18.707  -1.525  0.00  0.00    -0.532 OA
ATOM     38  O   UNL d   1      23.856 -18.480   0.551  0.00  0.00    -0.532 OA
ENDBRANCH  31  36
ENDBRANCH  24  27
ENDBRANCH  21  23
ENDBRANCH   1  21
TORSDOF 12
ENDMDL
MODEL 3
REMARK VINA RESULT:    -7.240      3.631     10.125
REMARK INTER + INTRA:         -13.181
REMARK INTER:                 -10.820
REMARK INTRA:                  -2.362
REMARK CONF_INDEPENDENT:        3.580
REMARK UNBOUND:                -2.362
REMARK  12 active torsions:
REMARK  status: ('A' for Active; 'I' for Inactive)
REMARK    1  A    between atoms: C_2  and  N_3 
REMARK    2  A    between atoms: N_3  and  C_4 
REMARK    3  A    between atoms: N_3  and  C_6 
REMARK    4  A    between atoms: C_6  and  C_7 
REMARK    5  A    between atoms: C_7  and  N_8 
REMARK       I    between atoms: N_8  and  C_9 
REMARK    6  A    between atoms: C_9  and  C_11 
REMARK    7  A    between atoms: C_14  and  N_15 
REMARK    8  A    between atoms: N_15  and  C_16 
REMARK    9  A    between atoms: C_16  and  N_18 
REMARK       I    between atoms: N_18  and  C_19 
REMARK   10  A    between atoms: C_19  and  C_21 
REMARK   11  A    between atoms: C_23  and  N_24 
REMARK   12  A    between atoms: C_28  and  N_29 
ROOT
ATOM      1  N   UNL d   1      29.065 -14.040   7.453  0.00  0.00    -0.333 N 
ATOM      2  H   UNL d   1      29.518 -14.825   7.915  0.00  0.00     0.168 HD
ENDROOT
BRANCH   1   3
ATOM      3  C   UNL d   1      28.903 -14.215   6.005  0.00  0.00     0.034 A 
ATOM      4  C   UNL d   1      29.974 -14.407   5.116  0.00  0.00     0.030 A 
ATOM      5  C   UNL d   1      29.753 -14.450   3.702  0.00  0.00     0.019 A 
ATOM      6  C   UNL d   1      28.460 -14.344   3.166  0.00  0.00     0.032 A 
ATOM      7  C   UNL d   1      27.405 -14.209   4.028  0.00  0.00     0.019 A 
ATOM      8  C   UNL d   1      27.650 -14.196   5.390  0.00  0.00     0.030 A 
BRANCH   6   9
ATOM      9  C   UNL d   1      28.133 -14.549   1.734  0.00  0.00     0.251 C 
ATOM     10  N   UNL d   1      29.032 -15.328   1.007  0.00  0.00    -0.355 N 
ATOM     11  H   UNL d   1      29.775 -15.814   1.497  0.00  0.00     0.162 HD
ATOM     12  O   UNL d   1      27.157 -14.024   1.235  0.00  0.00    -0.268 OA
BRANCH  10  13
ATOM     13  C   UNL d   1      28.766 -15.570  -0.392  0.00  0.00     0.150 C 
BRANCH  13  14
ATOM     14  C   UNL d   1      27.844 -16.769  -0.657  0.00  0.00     0.254 C 
BRANCH  14  15
ATOM     15  N   UNL d   1      26.460 -16.631   0.016  0.00  0.00    -0.070 N 
ATOM     16  H   UNL d   1      26.605 -16.099   0.887  0.00  0.00     0.279 HD
BRANCH  15  17
ATOM     17  C   UNL d   1      25.567 -15.799  -0.902  0.00  0.00     0.230 C 
ATOM     18  C   UNL d   1      25.590 -16.246  -2.349  0.00  0.00     0.034 C 
ENDBRANCH  15  17
BRANCH  15  19
ATOM     19  C   UNL d   1      25.913 -18.008   0.369  0.00  0.00     0.230 C 
ATOM     20  C   UNL d   1      24.445 -18.198   0.064  0.00  0.00     0.034 C 
ENDBRANCH  15  19
ENDBRANCH  14  15
ENDBRANCH  13  14
ENDBRANCH  10  13
ENDBRANCH   6   9
ENDBRANCH   1   3
BRANCH   1  21
ATOM     21  C   UNL d   1      28.773 -12.859   8.210  0.00  0.00     0.179 C 
ATOM     22  S   UNL d   1      28.887 -12.710   9.892  0.00  0.00    -0.040 SA
BRANCH  21  23
ATOM     23  N   UNL d   1      28.337 -11.736   7.467  0.00  0.00    -0.299 N 
ATOM     24  C   UNL d   1      29.146 -11.105   6.488  0.00  0.00     0.258 C 
ATOM     25  O   UNL d   1      30.286 -11.410   6.147  0.00  0.00    -0.267 OA
ATOM     26  H   UNL d   1      27.413 -11.361   7.630  0.00  0.00     0.171 HD
BRANCH  24  27
ATOM     27  C   UNL d   1      28.709  -9.917   5.750  0.00  0.00     0.037 A 
ATOM     28  C   UNL d   1      28.906  -8.662   6.376  0.00  0.00     0.053 A 
ATOM     29  C   UNL d   1      28.226  -7.535   5.907  0.00  0.00     0.106 A 
ATOM     30  C   UNL d   1      27.431  -7.626   4.762  0.00  0.00     0.072 A 
ATOM     31  C   UNL d   1      27.225  -8.887   4.176  0.00  0.00     0.106 A 
ATOM     32  C   UNL d   1      27.840 -10.043   4.676  0.00  0.00     0.053 A 
BRANCH  29  33
ATOM     33  N   UNL d   1      28.240  -6.282   6.681  0.00  0.00    -0.116 N 
ATOM     34  O   UNL d   1      27.184  -5.642   6.765  0.00  0.00    -0.532 OA
ATOM     35  O   UNL d   1      29.320  -5.932   7.175  0.00  0.00    -0.532 OA
ENDBRANCH  29  33
BRANCH  31  36
ATOM     36  N   UNL d   1      26.284  -9.019   3.062  0.00  0.00    -0.116 N 
ATOM     37  O   UNL d   1      25.941 -10.160   2.733  0.00  0.00    -0.532 OA
ATOM     38  O   UNL d   1      25.889  -7.974   2.529  0.00  0.00    -0.532 OA
ENDBRANCH  31  36
ENDBRANCH  24  27
ENDBRANCH  21  23
ENDBRANCH   1  21
TORSDOF 12
ENDMDL
MODEL 4
REMARK VINA RESULT:    -6.936      1.174      2.886
REMARK INTER + INTRA:         -12.945
REMARK INTER:                 -10.515
REMARK INTRA:                  -2.430
REMARK CONF_INDEPENDENT:        3.580
REMARK UNBOUND:                -2.430
REMARK  12 active torsions:
REMARK  status: ('A' for Active; 'I' for Inactive)
REMARK    1  A    between atoms: C_2  and  N_3 
REMARK    2  A    between atoms: N_3  and  C_4 
REMARK    3  A    between atoms: N_3  and  C_6 
REMARK    4  A    between atoms: C_6  and  C_7 
REMARK    5  A    between atoms: C_7  and  N_8 
REMARK       I    between atoms: N_8  and  C_9 
REMARK    6  A    between atoms: C_9  and  C_11 
REMARK    7  A    between atoms: C_14  and  N_15 
REMARK    8  A    between atoms: N_15  and  C_16 
REMARK    9  A    between atoms: C_16  and  N_18 
REMARK       I    between atoms: N_18  and  C_19 
REMARK   10  A    between atoms: C_19  and  C_21 
REMARK   11  A    between atoms: C_23  and  N_24 
REMARK   12  A    between atoms: C_28  and  N_29 
ROOT
ATOM      1  N   UNL d   1      28.992 -14.357   2.812  0.00  0.00    -0.333 N 
ATOM      2  H   UNL d   1      29.195 -15.326   2.576  0.00  0.00     0.168 HD
ENDROOT
BRANCH   1   3
ATOM      3  C   UNL d   1      28.836 -14.116   4.251  0.00  0.00     0.034 A 
ATOM      4  C   UNL d   1      27.862 -13.264   4.799  0.00  0.00     0.030 A 
ATOM      5  C   UNL d   1      27.845 -12.981   6.203  0.00  0.00     0.019 A 
ATOM      6  C   UNL d   1      28.770 -13.575   7.075  0.00  0.00     0.032 A 
ATOM      7  C   UNL d   1      29.690 -14.446   6.556  0.00  0.00     0.019 A 
ATOM      8  C   UNL d   1      29.665 -14.718   5.200  0.00  0.00     0.030 A 
BRANCH   6   9
ATOM      9  C   UNL d   1      28.710 -13.466   8.553  0.00  0.00     0.251 C 
ATOM     10  N   UNL d   1      28.808 -14.665   9.259  0.00  0.00    -0.355 N 
ATOM     11  H   UNL d   1      29.038 -15.517   8.759  0.00  0.00     0.162 HD
ATOM     12  O   UNL d   1      28.543 -12.391   9.094  0.00  0.00    -0.268 OA
BRANCH  10  13
ATOM     13  C   UNL d   1      28.763 -14.625  10.702  0.00  0.00     0.150 C 
BRANCH  13  14
ATOM     14  C   UNL d   1      30.016 -14.021  11.352  0.00  0.00     0.254 C 
BRANCH  14  15
ATOM     15  N   UNL d   1      31.060 -13.536  10.322  0.00  0.00    -0.070 N 
ATOM     16  H   UNL d   1      30.536 -13.097   9.551  0.00  0.00     0.279 HD
BRANCH  15  17
ATOM     17  C   UNL d   1      31.915 -12.457  10.985  0.00  0.00     0.230 C 
ATOM     18  C   UNL d   1      31.448 -11.045  10.698  0.00  0.00     0.034 C 
ENDBRANCH  15  17
BRANCH  15  19
ATOM     19  C   UNL d   1      31.839 -14.723   9.770  0.00  0.00     0.230 C 
ATOM     20  C   UNL d   1      32.513 -15.576  10.820  0.00  0.00     0.034 C 
ENDBRANCH  15  19
ENDBRANCH  14  15
ENDBRANCH  13  14
ENDBRANCH  10  13
ENDBRANCH   6   9
ENDBRANCH   1   3
BRANCH   1  21
ATOM     21  C   UNL d   1      28.764 -13.415   1.756  0.00  0.00     0.179 C 
ATOM     22  S   UNL d   1      29.586 -11.951   1.543  0.00  0.00    -0.040 SA
BRANCH  21  23
ATOM     23  N   UNL d   1      27.748 -13.753   0.831  0.00  0.00    -0.299 N 
ATOM     24  C   UNL d   1      27.426 -15.094   0.502  0.00  0.00     0.258 C 
ATOM     25  O   UNL d   1      27.944 -16.119   0.939  0.00  0.00    -0.267 OA
ATOM     26  H   UNL d   1      27.222 -13.016   0.381  0.00  0.00     0.171 HD
BRANCH  24  27
ATOM     27  C   UNL d   1      26.402 -15.440  -0.487  0.00  0.00     0.037 A 
ATOM     28  C   UNL d   1      25.506 -16.483  -0.147  0.00  0.00     0.053 A 
ATOM     29  C   UNL d   1      24.738 -17.094  -1.141  0.00  0.00     0.106 A 
ATOM     30  C   UNL d   1      24.781 -16.610  -2.451  0.00  0.00     0.072 A 
ATOM     31  C   UNL d   1      25.700 -15.597  -2.772  0.00  0.00     0.106 A 
ATOM     32  C   UNL d   1      26.532 -15.020  -1.802  0.00  0.00     0.053 A 
BRANCH  29  33
ATOM     33  N   UNL d   1      23.979 -18.322  -0.848  0.00  0.00    -0.116 N 
ATOM     34  O   UNL d   1      24.522 -19.183  -0.145  0.00  0.00    -0.532 OA
ATOM     35  O   UNL d   1      22.853 -18.426  -1.350  0.00  0.00    -0.532 OA
ENDBRANCH  29  33
BRANCH  31  36
ATOM     36  N   UNL d   1      25.855 -15.179  -4.167  0.00  0.00    -0.116 N 
ATOM     37  O   UNL d   1      26.853 -15.576  -4.779  0.00  0.00    -0.532 OA
ATOM     38  O   UNL d   1      24.967 -14.458  -4.643  0.00  0.00    -0.532 OA
ENDBRANCH  31  36
ENDBRANCH  24  27
ENDBRANCH  21  23
ENDBRANCH   1  21
TORSDOF 12
ENDMDL
MODEL 5
REMARK VINA RESULT:    -6.004      6.694     10.795
REMARK INTER + INTRA:         -14.920
REMARK INTER:                  -9.583
REMARK INTRA:                  -5.337
REMARK CONF_INDEPENDENT:        3.580
REMARK UNBOUND:                -5.337
REMARK  12 active torsions:
REMARK  status: ('A' for Active; 'I' for Inactive)
REMARK    1  A    between atoms: C_2  and  N_3 
REMARK    2  A    between atoms: N_3  and  C_4 
REMARK    3  A    between atoms: N_3  and  C_6 
REMARK    4  A    between atoms: C_6  and  C_7 
REMARK    5  A    between atoms: C_7  and  N_8 
REMARK       I    between atoms: N_8  and  C_9 
REMARK    6  A    between atoms: C_9  and  C_11 
REMARK    7  A    between atoms: C_14  and  N_15 
REMARK    8  A    between atoms: N_15  and  C_16 
REMARK    9  A    between atoms: C_16  and  N_18 
REMARK       I    between atoms: N_18  and  C_19 
REMARK   10  A    between atoms: C_19  and  C_21 
REMARK   11  A    between atoms: C_23  and  N_24 
REMARK   12  A    between atoms: C_28  and  N_29 
ROOT
ATOM      1  N   UNL d   1      25.280  -9.271  -5.652  0.00  0.00    -0.333 N 
ATOM      2  H   UNL d   1      24.963  -9.106  -6.604  0.00  0.00     0.168 HD
ENDROOT
BRANCH   1   3
ATOM      3  C   UNL d   1      25.890 -10.591  -5.448  0.00  0.00     0.034 A 
ATOM      4  C   UNL d   1      26.862 -11.142  -6.300  0.00  0.00     0.030 A 
ATOM      5  C   UNL d   1      27.325 -12.484  -6.109  0.00  0.00     0.019 A 
ATOM      6  C   UNL d   1      26.854 -13.271  -5.047  0.00  0.00     0.032 A 
ATOM      7  C   UNL d   1      25.944 -12.723  -4.183  0.00  0.00     0.019 A 
ATOM      8  C   UNL d   1      25.536 -11.416  -4.379  0.00  0.00     0.030 A 
BRANCH   6   9
ATOM      9  C   UNL d   1      27.406 -14.599  -4.686  0.00  0.00     0.251 C 
ATOM     10  N   UNL d   1      27.954 -14.706  -3.408  0.00  0.00    -0.355 N 
ATOM     11  H   UNL d   1      27.840 -13.938  -2.755  0.00  0.00     0.162 HD
ATOM     12  O   UNL d   1      27.408 -15.513  -5.485  0.00  0.00    -0.268 OA
BRANCH  10  13
ATOM     13  C   UNL d   1      28.503 -15.976  -2.993  0.00  0.00     0.150 C 
BRANCH  13  14
ATOM     14  C   UNL d   1      28.682 -16.115  -1.474  0.00  0.00     0.254 C 
BRANCH  14  15
ATOM     15  N   UNL d   1      27.379 -15.867  -0.683  0.00  0.00    -0.070 N 
ATOM     16  H   UNL d   1      27.339 -14.856  -0.487  0.00  0.00     0.279 HD
BRANCH  15  17
ATOM     17  C   UNL d   1      26.200 -16.219  -1.588  0.00  0.00     0.230 C 
ATOM     18  C   UNL d   1      25.288 -15.047  -1.888  0.00  0.00     0.034 C 
ENDBRANCH  15  17
BRANCH  15  19
ATOM     19  C   UNL d   1      27.421 -16.621   0.640  0.00  0.00     0.230 C 
ATOM     20  C   UNL d   1      26.660 -17.926   0.644  0.00  0.00     0.034 C 
ENDBRANCH  15  19
ENDBRANCH  14  15
ENDBRANCH  13  14
ENDBRANCH  10  13
ENDBRANCH   6   9
ENDBRANCH   1   3
BRANCH   1  21
ATOM     21  C   UNL d   1      24.991  -8.297  -4.641  0.00  0.00     0.179 C 
ATOM     22  S   UNL d   1      24.332  -6.761  -4.908  0.00  0.00    -0.040 SA
BRANCH  21  23
ATOM     23  N   UNL d   1      25.307  -8.668  -3.312  0.00  0.00    -0.299 N 
ATOM     24  C   UNL d   1      26.628  -8.966  -2.893  0.00  0.00     0.258 C 
ATOM     25  O   UNL d   1      27.652  -8.952  -3.573  0.00  0.00    -0.267 OA
ATOM     26  H   UNL d   1      24.569  -8.724  -2.624  0.00  0.00     0.171 HD
BRANCH  24  27
ATOM     27  C   UNL d   1      26.946  -9.390  -1.528  0.00  0.00     0.037 A 
ATOM     28  C   UNL d   1      27.378 -10.728  -1.354  0.00  0.00     0.053 A 
ATOM     29  C   UNL d   1      27.374 -11.303  -0.081  0.00  0.00     0.106 A 
ATOM     30  C   UNL d   1      27.038 -10.528   1.032  0.00  0.00     0.072 A 
ATOM     31  C   UNL d   1      26.581  -9.214   0.834  0.00  0.00     0.106 A 
ATOM     32  C   UNL d   1      26.510  -8.643  -0.445  0.00  0.00     0.053 A 
BRANCH  29  33
ATOM     33  N   UNL d   1      27.598 -12.749   0.085  0.00  0.00    -0.116 N 
ATOM     34  O   UNL d   1      28.327 -13.320  -0.735  0.00  0.00    -0.532 OA
ATOM     35  O   UNL d   1      27.014 -13.309   1.022  0.00  0.00    -0.532 OA
ENDBRANCH  29  33
BRANCH  31  36
ATOM     36  N   UNL d   1      26.094  -8.439   1.977  0.00  0.00    -0.116 N 
ATOM     37  O   UNL d   1      26.290  -8.899   3.107  0.00  0.00    -0.532 OA
ATOM     38  O   UNL d   1      25.522  -7.368   1.731  0.00  0.00    -0.532 OA
ENDBRANCH  31  36
ENDBRANCH  24  27
ENDBRANCH  21  23
ENDBRANCH   1  21
TORSDOF 12
ENDMDL
MODEL 6
REMARK VINA RESULT:    -5.680      6.424     10.737
REMARK INTER + INTRA:         -14.533
REMARK INTER:                  -9.260
REMARK INTRA:                  -5.273
REMARK CONF_INDEPENDENT:        3.580
REMARK UNBOUND:                -5.273
REMARK  12 active torsions:
REMARK  status: ('A' for Active; 'I' for Inactive)
REMARK    1  A    between atoms: C_2  and  N_3 
REMARK    2  A    between atoms: N_3  and  C_4 
REMARK    3  A    between atoms: N_3  and  C_6 
REMARK    4  A    between atoms: C_6  and  C_7 
REMARK    5  A    between atoms: C_7  and  N_8 
REMARK       I    between atoms: N_8  and  C_9 
REMARK    6  A    between atoms: C_9  and  C_11 
REMARK    7  A    between atoms: C_14  and  N_15 
REMARK    8  A    between atoms: N_15  and  C_16 
REMARK    9  A    between atoms: C_16  and  N_18 
REMARK       I    between atoms: N_18  and  C_19 
REMARK   10  A    between atoms: C_19  and  C_21 
REMARK   11  A    between atoms: C_23  and  N_24 
REMARK   12  A    between atoms: C_28  and  N_29 
ROOT
ATOM      1  N   UNL d   1      25.252  -9.179  -5.904  0.00  0.00    -0.333 N 
ATOM      2  H   UNL d   1      25.039  -9.020  -6.886  0.00  0.00     0.168 HD
ENDROOT
BRANCH   1   3
ATOM      3  C   UNL d   1      25.873 -10.480  -5.632  0.00  0.00     0.034 A 
ATOM      4  C   UNL d   1      26.845 -11.070  -6.458  0.00  0.00     0.030 A 
ATOM      5  C   UNL d   1      27.319 -12.396  -6.198  0.00  0.00     0.019 A 
ATOM      6  C   UNL d   1      26.860 -13.127  -5.092  0.00  0.00     0.032 A 
ATOM      7  C   UNL d   1      25.951 -12.540  -4.254  0.00  0.00     0.019 A 
ATOM      8  C   UNL d   1      25.531 -11.249  -4.518  0.00  0.00     0.030 A 
BRANCH   6   9
ATOM      9  C   UNL d   1      27.424 -14.430  -4.662  0.00  0.00     0.251 C 
ATOM     10  N   UNL d   1      27.966 -14.467  -3.377  0.00  0.00    -0.355 N 
ATOM     11  H   UNL d   1      27.839 -13.669  -2.763  0.00  0.00     0.162 HD
ATOM     12  O   UNL d   1      27.442 -15.382  -5.415  0.00  0.00    -0.268 OA
BRANCH  10  13
ATOM     13  C   UNL d   1      28.525 -15.708  -2.896  0.00  0.00     0.150 C 
BRANCH  13  14
ATOM     14  C   UNL d   1      29.076 -15.636  -1.465  0.00  0.00     0.254 C 
BRANCH  14  15
ATOM     15  N   UNL d   1      28.008 -15.241  -0.422  0.00  0.00    -0.070 N 
ATOM     16  H   UNL d   1      27.885 -14.220  -0.494  0.00  0.00     0.279 HD
BRANCH  15  17
ATOM     17  C   UNL d   1      26.689 -15.903  -0.820  0.00  0.00     0.230 C 
ATOM     18  C   UNL d   1      26.390 -17.176  -0.056  0.00  0.00     0.034 C 
ENDBRANCH  15  17
BRANCH  15  19
ATOM     19  C   UNL d   1      28.498 -15.577   0.980  0.00  0.00     0.230 C 
ATOM     20  C   UNL d   1      29.522 -14.614   1.535  0.00  0.00     0.034 C 
ENDBRANCH  15  19
ENDBRANCH  14  15
ENDBRANCH  13  14
ENDBRANCH  10  13
ENDBRANCH   6   9
ENDBRANCH   1   3
BRANCH   1  21
ATOM     21  C   UNL d   1      24.825  -8.215  -4.933  0.00  0.00     0.179 C 
ATOM     22  S   UNL d   1      23.997  -6.777  -5.266  0.00  0.00    -0.040 SA
BRANCH  21  23
ATOM     23  N   UNL d   1      25.147  -8.505  -3.586  0.00  0.00    -0.299 N 
ATOM     24  C   UNL d   1      26.482  -8.630  -3.127  0.00  0.00     0.258 C 
ATOM     25  O   UNL d   1      27.515  -8.514  -3.783  0.00  0.00    -0.267 OA
ATOM     26  H   UNL d   1      24.403  -8.630  -2.914  0.00  0.00     0.171 HD
BRANCH  24  27
ATOM     27  C   UNL d   1      26.812  -8.973  -1.741  0.00  0.00     0.037 A 
ATOM     28  C   UNL d   1      27.386 -10.248  -1.512  0.00  0.00     0.053 A 
ATOM     29  C   UNL d   1      27.414 -10.778  -0.221  0.00  0.00     0.106 A 
ATOM     30  C   UNL d   1      26.967 -10.011   0.858  0.00  0.00     0.072 A 
ATOM     31  C   UNL d   1      26.373  -8.763   0.605  0.00  0.00     0.106 A 
ATOM     32  C   UNL d   1      26.269  -8.244  -0.694  0.00  0.00     0.053 A 
BRANCH  29  33
ATOM     33  N   UNL d   1      27.792 -12.185  -0.001  0.00  0.00    -0.116 N 
ATOM     34  O   UNL d   1      28.469 -12.745  -0.871  0.00  0.00    -0.532 OA
ATOM     35  O   UNL d   1      27.382 -12.727   1.033  0.00  0.00    -0.532 OA
ENDBRANCH  29  33
BRANCH  31  36
ATOM     36  N   UNL d   1      25.775  -8.011   1.710  0.00  0.00    -0.116 N 
ATOM     37  O   UNL d   1      25.925  -8.455   2.854  0.00  0.00    -0.532 OA
ATOM     38  O   UNL d   1      25.162  -6.974   1.422  0.00  0.00    -0.532 OA
ENDBRANCH  31  36
ENDBRANCH  24  27
ENDBRANCH  21  23
ENDBRANCH   1  21
TORSDOF 12
ENDMDL
MODEL 7
REMARK VINA RESULT:    -5.454      6.211     10.543
REMARK INTER + INTRA:         -13.288
REMARK INTER:                  -9.034
REMARK INTRA:                  -4.255
REMARK CONF_INDEPENDENT:        3.580
REMARK UNBOUND:                -4.255
REMARK  12 active torsions:
REMARK  status: ('A' for Active; 'I' for Inactive)
REMARK    1  A    between atoms: C_2  and  N_3 
REMARK    2  A    between atoms: N_3  and  C_4 
REMARK    3  A    between atoms: N_3  and  C_6 
REMARK    4  A    between atoms: C_6  and  C_7 
REMARK    5  A    between atoms: C_7  and  N_8 
REMARK       I    between atoms: N_8  and  C_9 
REMARK    6  A    between atoms: C_9  and  C_11 
REMARK    7  A    between atoms: C_14  and  N_15 
REMARK    8  A    between atoms: N_15  and  C_16 
REMARK    9  A    between atoms: C_16  and  N_18 
REMARK       I    between atoms: N_18  and  C_19 
REMARK   10  A    between atoms: C_19  and  C_21 
REMARK   11  A    between atoms: C_23  and  N_24 
REMARK   12  A    between atoms: C_28  and  N_29 
ROOT
ATOM      1  N   UNL d   1      27.746  -9.014  -4.898  0.00  0.00    -0.333 N 
ATOM      2  H   UNL d   1      27.841  -8.785  -5.884  0.00  0.00     0.168 HD
ENDROOT
BRANCH   1   3
ATOM      3  C   UNL d   1      27.260 -10.376  -4.648  0.00  0.00     0.034 A 
ATOM      4  C   UNL d   1      27.856 -11.529  -5.187  0.00  0.00     0.030 A 
ATOM      5  C   UNL d   1      27.258 -12.817  -5.000  0.00  0.00     0.019 A 
ATOM      6  C   UNL d   1      26.087 -12.971  -4.242  0.00  0.00     0.032 A 
ATOM      7  C   UNL d   1      25.529 -11.859  -3.671  0.00  0.00     0.019 A 
ATOM      8  C   UNL d   1      26.145 -10.633  -3.849  0.00  0.00     0.030 A 
BRANCH   6   9
ATOM      9  C   UNL d   1      25.506 -14.282  -3.863  0.00  0.00     0.251 C 
ATOM     10  N   UNL d   1      25.440 -14.549  -2.496  0.00  0.00    -0.355 N 
ATOM     11  H   UNL d   1      25.661 -13.812  -1.837  0.00  0.00     0.162 HD
ATOM     12  O   UNL d   1      25.155 -15.078  -4.711  0.00  0.00    -0.268 OA
BRANCH  10  13
ATOM     13  C   UNL d   1      24.878 -15.807  -2.063  0.00  0.00     0.150 C 
BRANCH  13  14
ATOM     14  C   UNL d   1      25.925 -16.878  -1.722  0.00  0.00     0.254 C 
BRANCH  14  15
ATOM     15  N   UNL d   1      26.622 -16.635  -0.365  0.00  0.00    -0.070 N 
ATOM     16  H   UNL d   1      26.280 -15.729  -0.013  0.00  0.00     0.279 HD
BRANCH  15  17
ATOM     17  C   UNL d   1      26.163 -17.722   0.606  0.00  0.00     0.230 C 
ATOM     18  C   UNL d   1      24.747 -18.203   0.360  0.00  0.00     0.034 C 
ENDBRANCH  15  17
BRANCH  15  19
ATOM     19  C   UNL d   1      28.130 -16.545  -0.562  0.00  0.00     0.230 C 
ATOM     20  C   UNL d   1      28.559 -15.739  -1.766  0.00  0.00     0.034 C 
ENDBRANCH  15  19
ENDBRANCH  14  15
ENDBRANCH  13  14
ENDBRANCH  10  13
ENDBRANCH   6   9
ENDBRANCH   1   3
BRANCH   1  21
ATOM     21  C   UNL d   1      27.961  -7.989  -3.919  0.00  0.00     0.179 C 
ATOM     22  S   UNL d   1      28.573  -6.442  -4.227  0.00  0.00    -0.040 SA
BRANCH  21  23
ATOM     23  N   UNL d   1      27.640  -8.329  -2.583  0.00  0.00    -0.299 N 
ATOM     24  C   UNL d   1      28.264  -9.398  -1.893  0.00  0.00     0.258 C 
ATOM     25  O   UNL d   1      29.132 -10.159  -2.316  0.00  0.00    -0.267 OA
ATOM     26  H   UNL d   1      26.940  -7.793  -2.090  0.00  0.00     0.171 HD
BRANCH  24  27
ATOM     27  C   UNL d   1      27.900  -9.774  -0.525  0.00  0.00     0.037 A 
ATOM     28  C   UNL d   1      27.708 -11.154  -0.266  0.00  0.00     0.053 A 
ATOM     29  C   UNL d   1      27.043 -11.560   0.893  0.00  0.00     0.106 A 
ATOM     30  C   UNL d   1      26.656 -10.612   1.843  0.00  0.00     0.072 A 
ATOM     31  C   UNL d   1      26.827  -9.247   1.551  0.00  0.00     0.106 A 
ATOM     32  C   UNL d   1      27.427  -8.817   0.360  0.00  0.00     0.053 A 
BRANCH  29  33
ATOM     33  N   UNL d   1      26.634 -12.964   1.064  0.00  0.00    -0.116 N 
ATOM     34  O   UNL d   1      26.616 -13.689   0.062  0.00  0.00    -0.532 OA
ATOM     35  O   UNL d   1      26.304 -13.324   2.202  0.00  0.00    -0.532 OA
ENDBRANCH  29  33
BRANCH  31  36
ATOM     36  N   UNL d   1      26.300  -8.241   2.475  0.00  0.00    -0.116 N 
ATOM     37  O   UNL d   1      25.530  -7.388   2.017  0.00  0.00    -0.532 OA
ATOM     38  O   UNL d   1      26.657  -8.317   3.658  0.00  0.00    -0.532 OA
ENDBRANCH  31  36
ENDBRANCH  24  27
ENDBRANCH  21  23
ENDBRANCH   1  21
TORSDOF 12
ENDMDL
MODEL 8
REMARK VINA RESULT:    -5.221      5.612     10.985
REMARK INTER + INTRA:         -13.309
REMARK INTER:                  -8.800
REMARK INTRA:                  -4.508
REMARK CONF_INDEPENDENT:        3.580
REMARK UNBOUND:                -4.508
REMARK  12 active torsions:
REMARK  status: ('A' for Active; 'I' for Inactive)
REMARK    1  A    between atoms: C_2  and  N_3 
REMARK    2  A    between atoms: N_3  and  C_4 
REMARK    3  A    between atoms: N_3  and  C_6 
REMARK    4  A    between atoms: C_6  and  C_7 
REMARK    5  A    between atoms: C_7  and  N_8 
REMARK       I    between atoms: N_8  and  C_9 
REMARK    6  A    between atoms: C_9  and  C_11 
REMARK    7  A    between atoms: C_14  and  N_15 
REMARK    8  A    between atoms: N_15  and  C_16 
REMARK    9  A    between atoms: C_16  and  N_18 
REMARK       I    between atoms: N_18  and  C_19 
REMARK   10  A    between atoms: C_19  and  C_21 
REMARK   11  A    between atoms: C_23  and  N_24 
REMARK   12  A    between atoms: C_28  and  N_29 
ROOT
ATOM      1  N   UNL d   1      28.519 -15.351   1.365  0.00  0.00    -0.333 N 
ATOM      2  H   UNL d   1      28.831 -16.282   1.632  0.00  0.00     0.168 HD
ENDROOT
BRANCH   1   3
ATOM      3  C   UNL d   1      28.207 -15.215  -0.063  0.00  0.00     0.034 A 
ATOM      4  C   UNL d   1      27.144 -15.880  -0.697  0.00  0.00     0.030 A 
ATOM      5  C   UNL d   1      26.971 -15.795  -2.116  0.00  0.00     0.019 A 
ATOM      6  C   UNL d   1      27.830 -15.016  -2.907  0.00  0.00     0.032 A 
ATOM      7  C   UNL d   1      28.837 -14.325  -2.290  0.00  0.00     0.019 A 
ATOM      8  C   UNL d   1      28.963 -14.407  -0.915  0.00  0.00     0.030 A 
BRANCH   6   9
ATOM      9  C   UNL d   1      27.616 -14.744  -4.349  0.00  0.00     0.251 C 
ATOM     10  N   UNL d   1      27.990 -13.476  -4.794  0.00  0.00    -0.355 N 
ATOM     11  H   UNL d   1      28.495 -12.860  -4.165  0.00  0.00     0.162 HD
ATOM     12  O   UNL d   1      27.105 -15.575  -5.073  0.00  0.00    -0.268 OA
BRANCH  10  13
ATOM     13  C   UNL d   1      27.813 -13.151  -6.190  0.00  0.00     0.150 C 
BRANCH  13  14
ATOM     14  C   UNL d   1      27.442 -11.684  -6.450  0.00  0.00     0.254 C 
BRANCH  14  15
ATOM     15  N   UNL d   1      26.422 -11.126  -5.433  0.00  0.00    -0.070 N 
ATOM     16  H   UNL d   1      26.967 -10.746  -4.645  0.00  0.00     0.279 HD
BRANCH  15  17
ATOM     17  C   UNL d   1      25.678  -9.966  -6.094  0.00  0.00     0.230 C 
ATOM     18  C   UNL d   1      26.424  -9.345  -7.258  0.00  0.00     0.034 C 
ENDBRANCH  15  17
BRANCH  15  19
ATOM     19  C   UNL d   1      25.533 -12.249  -4.917  0.00  0.00     0.230 C 
ATOM     20  C   UNL d   1      25.476 -12.363  -3.411  0.00  0.00     0.034 C 
ENDBRANCH  15  19
ENDBRANCH  14  15
ENDBRANCH  13  14
ENDBRANCH  10  13
ENDBRANCH   6   9
ENDBRANCH   1   3
BRANCH   1  21
ATOM     21  C   UNL d   1      28.544 -14.301   2.340  0.00  0.00     0.179 C 
ATOM     22  S   UNL d   1      28.602 -14.511   4.018  0.00  0.00    -0.040 SA
BRANCH  21  23
ATOM     23  N   UNL d   1      28.502 -12.981   1.831  0.00  0.00    -0.299 N 
ATOM     24  C   UNL d   1      27.398 -12.475   1.100  0.00  0.00     0.258 C 
ATOM     25  O   UNL d   1      26.360 -13.065   0.807  0.00  0.00    -0.267 OA
ATOM     26  H   UNL d   1      29.286 -12.363   1.991  0.00  0.00     0.171 HD
BRANCH  24  27
ATOM     27  C   UNL d   1      27.375 -11.123   0.539  0.00  0.00     0.037 A 
ATOM     28  C   UNL d   1      26.980 -10.073   1.405  0.00  0.00     0.053 A 
ATOM     29  C   UNL d   1      26.608  -8.835   0.877  0.00  0.00     0.106 A 
ATOM     30  C   UNL d   1      26.721  -8.601  -0.496  0.00  0.00     0.072 A 
ATOM     31  C   UNL d   1      27.083  -9.665  -1.340  0.00  0.00     0.106 A 
ATOM     32  C   UNL d   1      27.390 -10.937  -0.835  0.00  0.00     0.053 A 
BRANCH  29  33
ATOM     33  N   UNL d   1      25.981  -7.816   1.735  0.00  0.00    -0.116 N 
ATOM     34  O   UNL d   1      26.291  -7.797   2.932  0.00  0.00    -0.532 OA
ATOM     35  O   UNL d   1      25.156  -7.060   1.207  0.00  0.00    -0.532 OA
ENDBRANCH  29  33
BRANCH  31  36
ATOM     36  N   UNL d   1      27.069  -9.472  -2.791  0.00  0.00    -0.116 N 
ATOM     37  O   UNL d   1      25.973  -9.304  -3.338  0.00  0.00    -0.532 OA
ATOM     38  O   UNL d   1      28.162  -9.482  -3.374  0.00  0.00    -0.532 OA
ENDBRANCH  31  36
ENDBRANCH  24  27
ENDBRANCH  21  23
ENDBRANCH   1  21
TORSDOF 12
ENDMDL
