MODEL 1
REMARK VINA RESULT:    -8.157      0.000      0.000
REMARK INTER + INTRA:         -16.026
REMARK INTER:                 -12.930
REMARK INTRA:                  -3.096
REMARK CONF_INDEPENDENT:        4.773
REMARK UNBOUND:                -3.096
REMARK  16 active torsions:
REMARK  status: ('A' for Active; 'I' for Inactive)
REMARK    1  A    between atoms: C_2  and  C_3 
REMARK    2  A    between atoms: C_3  and  C_4 
REMARK    3  A    between atoms: C_4  and  C_5 
REMARK    4  A    between atoms: C_5  and  C_6 
REMARK    5  A    between atoms: C_6  and  N_7 
REMARK       I    between atoms: N_7  and  C_8 
REMARK    6  A    between atoms: C_18  and  N_7 
REMARK    7  A    between atoms: C_8  and  C_10 
REMARK    8  A    between atoms: C_11  and  C_12 
REMARK    9  A    between atoms: C_18  and  C_26 
REMARK   10  A    between atoms: C_18  and  C_19 
REMARK       I    between atoms: C_19  and  N_21 
REMARK   11  A    between atoms: N_21  and  C_22 
REMARK   12  A    between atoms: C_22  and  C_23 
REMARK   13  A    between atoms: C_23  and  C_24 
REMARK   14  A    between atoms: C_27  and  O_28 
REMARK   15  A    between atoms: C_30  and  O_31 
REMARK   16  A    between atoms: C_33  and  O_34 
ROOT
ATOM      1  C   UNL d   1      27.566 -16.436  -0.108  0.00  0.00     0.219 C 
ENDROOT
BRANCH   1   2
ATOM      2  C   UNL d   1      28.639 -16.276  -1.176  0.00  0.00     0.040 C 
ATOM      3  C   UNL d   1      29.456 -17.311  -1.557  0.00  0.00     0.080 C 
ATOM      4  C   UNL d   1      30.025 -17.360  -2.810  0.00  0.00     0.073 C 
ATOM      5  C   UNL d   1      30.177 -16.251  -3.573  0.00  0.00     0.071 C 
ATOM      6  C   UNL d   1      29.684 -15.075  -3.072  0.00  0.00     0.073 C 
ATOM      7  C   UNL d   1      28.877 -15.104  -1.906  0.00  0.00     0.080 C 
BRANCH   3   8
ATOM      8  O   UNL d   1      29.918 -18.253  -0.684  0.00  0.00    -0.360 OA
ATOM      9  H   UNL d   1      29.541 -18.042   0.186  0.00  0.00     0.217 HD
ENDBRANCH   3   8
BRANCH   5  10
ATOM     10  O   UNL d   1      30.916 -16.335  -4.710  0.00  0.00    -0.361 OA
ATOM     11  H   UNL d   1      30.564 -17.077  -5.243  0.00  0.00     0.217 HD
ENDBRANCH   5  10
BRANCH   7  12
ATOM     12  O   UNL d   1      28.400 -13.920  -1.418  0.00  0.00    -0.360 OA
ATOM     13  H   UNL d   1      27.443 -14.051  -1.284  0.00  0.00     0.217 HD
ENDBRANCH   7  12
ENDBRANCH   1   2
BRANCH   1  14
ATOM     14  C   UNL d   1      27.369 -15.148   0.750  0.00  0.00     0.245 C 
ATOM     15  O   UNL d   1      26.468 -14.343   0.502  0.00  0.00    -0.271 OA
ATOM     16  N   UNL d   1      28.158 -14.987   1.880  0.00  0.00    -0.359 N 
ATOM     17  H   UNL d   1      28.898 -15.641   2.106  0.00  0.00     0.162 HD
BRANCH  16  18
ATOM     18  C   UNL d   1      27.963 -13.810   2.716  0.00  0.00     0.122 C 
BRANCH  18  19
ATOM     19  C   UNL d   1      27.404 -14.136   4.095  0.00  0.00     0.019 C 
BRANCH  19  20
ATOM     20  C   UNL d   1      28.453 -14.826   4.972  0.00  0.00    -0.003 C 
ATOM     21  C   UNL d   1      29.731 -14.007   5.037  0.00  0.00     0.005 C 
ENDBRANCH  19  20
ENDBRANCH  18  19
ENDBRANCH  16  18
ENDBRANCH   1  14
BRANCH   1  22
ATOM     22  N   UNL d   1      26.197 -16.858  -0.605  0.00  0.00    -0.324 N 
ATOM     23  C   UNL d   1      25.298 -15.977  -1.326  0.00  0.00     0.299 C 
ATOM     24  O   UNL d   1      24.084 -16.001  -1.170  0.00  0.00    -0.258 OA
BRANCH  22  25
ATOM     25  C   UNL d   1      25.737 -18.163  -0.060  0.00  0.00     0.128 C 
BRANCH  25  26
ATOM     26  C   UNL d   1      24.271 -18.212   0.336  0.00  0.00     0.020 C 
BRANCH  26  27
ATOM     27  C   UNL d   1      23.413 -19.135  -0.512  0.00  0.00     0.002 C 
BRANCH  27  28
ATOM     28  C   UNL d   1      22.037 -18.488  -0.668  0.00  0.00    -0.000 C 
BRANCH  28  29
ATOM     29  C   UNL d   1      20.948 -19.404  -0.140  0.00  0.00    -0.005 C 
ATOM     30  C   UNL d   1      19.652 -19.177  -0.894  0.00  0.00     0.005 C 
ENDBRANCH  28  29
ENDBRANCH  27  28
ENDBRANCH  26  27
ENDBRANCH  25  26
ENDBRANCH  22  25
BRANCH  23  31
ATOM     31  C   UNL d   1      25.768 -15.237  -2.535  0.00  0.00     0.000 C 
ATOM     32  C   UNL d   1      26.216 -14.871  -3.585  0.00  0.00    -0.057 C 
BRANCH  32  33
ATOM     33  C   UNL d   1      26.884 -14.383  -4.803  0.00  0.00     0.018 C 
ATOM     34  C   UNL d   1      26.751 -13.027  -5.040  0.00  0.00     0.020 C 
ATOM     35  C   UNL d   1      27.413 -12.411  -6.105  0.00  0.00     0.001 C 
ATOM     36  C   UNL d   1      28.318 -13.118  -6.894  0.00  0.00     0.000 C 
ATOM     37  C   UNL d   1      28.511 -14.470  -6.656  0.00  0.00     0.001 C 
ATOM     38  C   UNL d   1      27.718 -15.117  -5.683  0.00  0.00     0.020 C 
ENDBRANCH  32  33
ENDBRANCH  23  31
ENDBRANCH   1  22
TORSDOF 16
ENDMDL
MODEL 2
REMARK VINA RESULT:    -7.643      2.197      6.369
REMARK INTER + INTRA:         -16.013
REMARK INTER:                 -12.416
REMARK INTRA:                  -3.597
REMARK CONF_INDEPENDENT:        4.773
REMARK UNBOUND:                -3.597
REMARK  16 active torsions:
REMARK  status: ('A' for Active; 'I' for Inactive)
REMARK    1  A    between atoms: C_2  and  C_3 
REMARK    2  A    between atoms: C_3  and  C_4 
REMARK    3  A    between atoms: C_4  and  C_5 
REMARK    4  A    between atoms: C_5  and  C_6 
REMARK    5  A    between atoms: C_6  and  N_7 
REMARK       I    between atoms: N_7  and  C_8 
REMARK    6  A    between atoms: C_18  and  N_7 
REMARK    7  A    between atoms: C_8  and  C_10 
REMARK    8  A    between atoms: C_11  and  C_12 
REMARK    9  A    between atoms: C_18  and  C_26 
REMARK   10  A    between atoms: C_18  and  C_19 
REMARK       I    between atoms: C_19  and  N_21 
REMARK   11  A    between atoms: N_21  and  C_22 
REMARK   12  A    between atoms: C_22  and  C_23 
REMARK   13  A    between atoms: C_23  and  C_24 
REMARK   14  A    between atoms: C_27  and  O_28 
REMARK   15  A    between atoms: C_30  and  O_31 
REMARK   16  A    between atoms: C_33  and  O_34 
ROOT
ATOM      1  C   UNL d   1      29.133 -14.527  -2.939  0.00  0.00     0.219 C 
ENDROOT
BRANCH   1   2
ATOM      2  C   UNL d   1      27.727 -14.191  -3.414  0.00  0.00     0.040 C 
ATOM      3  C   UNL d   1      27.088 -14.918  -4.387  0.00  0.00     0.080 C 
ATOM      4  C   UNL d   1      25.713 -14.986  -4.455  0.00  0.00     0.073 C 
ATOM      5  C   UNL d   1      24.920 -14.052  -3.876  0.00  0.00     0.071 C 
ATOM      6  C   UNL d   1      25.539 -13.060  -3.163  0.00  0.00     0.073 C 
ATOM      7  C   UNL d   1      26.928 -13.163  -2.896  0.00  0.00     0.080 C 
BRANCH   3   8
ATOM      8  O   UNL d   1      27.738 -15.459  -5.458  0.00  0.00    -0.360 OA
ATOM      9  H   UNL d   1      28.225 -14.736  -5.888  0.00  0.00     0.217 HD
ENDBRANCH   3   8
BRANCH   5  10
ATOM     10  O   UNL d   1      23.588 -14.072  -4.142  0.00  0.00    -0.361 OA
ATOM     11  H   UNL d   1      23.425 -13.486  -4.910  0.00  0.00     0.217 HD
ENDBRANCH   5  10
BRANCH   7  12
ATOM     12  O   UNL d   1      27.528 -12.159  -2.189  0.00  0.00    -0.360 OA
ATOM     13  H   UNL d   1      28.412 -12.042  -2.586  0.00  0.00     0.217 HD
ENDBRANCH   7  12
ENDBRANCH   1   2
BRANCH   1  14
ATOM     14  C   UNL d   1      29.516 -13.797  -1.613  0.00  0.00     0.245 C 
ATOM     15  O   UNL d   1      30.219 -12.784  -1.617  0.00  0.00    -0.271 OA
ATOM     16  N   UNL d   1      28.944 -14.246  -0.431  0.00  0.00    -0.359 N 
ATOM     17  H   UNL d   1      28.357 -15.071  -0.407  0.00  0.00     0.162 HD
BRANCH  16  18
ATOM     18  C   UNL d   1      29.257 -13.555   0.812  0.00  0.00     0.122 C 
BRANCH  18  19
ATOM     19  C   UNL d   1      28.624 -14.201   2.038  0.00  0.00     0.019 C 
BRANCH  19  20
ATOM     20  C   UNL d   1      27.481 -13.344   2.590  0.00  0.00    -0.003 C 
ATOM     21  C   UNL d   1      26.512 -12.954   1.486  0.00  0.00     0.005 C 
ENDBRANCH  19  20
ENDBRANCH  18  19
ENDBRANCH  16  18
ENDBRANCH   1  14
BRANCH   1  22
ATOM     22  N   UNL d   1      29.429 -16.001  -2.740  0.00  0.00    -0.324 N 
ATOM     23  C   UNL d   1      28.912 -16.781  -1.633  0.00  0.00     0.299 C 
ATOM     24  O   UNL d   1      29.564 -17.659  -1.082  0.00  0.00    -0.258 OA
BRANCH  22  25
ATOM     25  C   UNL d   1      30.509 -16.519  -3.621  0.00  0.00     0.128 C 
BRANCH  25  26
ATOM     26  C   UNL d   1      30.029 -17.289  -4.839  0.00  0.00     0.020 C 
BRANCH  26  27
ATOM     27  C   UNL d   1      30.393 -16.662  -6.174  0.00  0.00     0.002 C 
BRANCH  27  28
ATOM     28  C   UNL d   1      31.152 -17.704  -6.994  0.00  0.00    -0.000 C 
BRANCH  28  29
ATOM     29  C   UNL d   1      31.192 -19.037  -6.268  0.00  0.00    -0.005 C 
ATOM     30  C   UNL d   1      30.407 -20.082  -7.037  0.00  0.00     0.005 C 
ENDBRANCH  28  29
ENDBRANCH  27  28
ENDBRANCH  26  27
ENDBRANCH  25  26
ENDBRANCH  22  25
BRANCH  23  31
ATOM     31  C   UNL d   1      27.450 -16.793  -1.330  0.00  0.00     0.000 C 
ATOM     32  C   UNL d   1      26.327 -17.025  -0.981  0.00  0.00    -0.057 C 
BRANCH  32  33
ATOM     33  C   UNL d   1      24.922 -17.352  -0.687  0.00  0.00     0.018 C 
ATOM     34  C   UNL d   1      24.008 -16.372  -1.029  0.00  0.00     0.020 C 
ATOM     35  C   UNL d   1      22.634 -16.586  -0.896  0.00  0.00     0.001 C 
ATOM     36  C   UNL d   1      22.134 -17.832  -0.523  0.00  0.00     0.000 C 
ATOM     37  C   UNL d   1      23.020 -18.853  -0.217  0.00  0.00     0.001 C 
ATOM     38  C   UNL d   1      24.405 -18.579  -0.198  0.00  0.00     0.020 C 
ENDBRANCH  32  33
ENDBRANCH  23  31
ENDBRANCH   1  22
TORSDOF 16
ENDMDL
MODEL 3
REMARK VINA RESULT:    -7.546      1.622      5.738
REMARK INTER + INTRA:         -16.237
REMARK INTER:                 -12.319
REMARK INTRA:                  -3.918
REMARK CONF_INDEPENDENT:        4.773
REMARK UNBOUND:                -3.918
REMARK  16 active torsions:
REMARK  status: ('A' for Active; 'I' for Inactive)
REMARK    1  A    between atoms: C_2  and  C_3 
REMARK    2  A    between atoms: C_3  and  C_4 
REMARK    3  A    between atoms: C_4  and  C_5 
REMARK    4  A    between atoms: C_5  and  C_6 
REMARK    5  A    between atoms: C_6  and  N_7 
REMARK       I    between atoms: N_7  and  C_8 
REMARK    6  A    between atoms: C_18  and  N_7 
REMARK    7  A    between atoms: C_8  and  C_10 
REMARK    8  A    between atoms: C_11  and  C_12 
REMARK    9  A    between atoms: C_18  and  C_26 
REMARK   10  A    between atoms: C_18  and  C_19 
REMARK       I    between atoms: C_19  and  N_21 
REMARK   11  A    between atoms: N_21  and  C_22 
REMARK   12  A    between atoms: C_22  and  C_23 
REMARK   13  A    between atoms: C_23  and  C_24 
REMARK   14  A    between atoms: C_27  and  O_28 
REMARK   15  A    between atoms: C_30  and  O_31 
REMARK   16  A    between atoms: C_33  and  O_34 
ROOT
ATOM      1  C   UNL d   1      25.904 -15.033  -0.680  0.00  0.00     0.219 C 
ENDROOT
BRANCH   1   2
ATOM      2  C   UNL d   1      26.067 -14.209  -1.950  0.00  0.00     0.040 C 
ATOM      3  C   UNL d   1      25.563 -14.618  -3.160  0.00  0.00     0.080 C 
ATOM      4  C   UNL d   1      25.231 -13.717  -4.147  0.00  0.00     0.073 C 
ATOM      5  C   UNL d   1      25.747 -12.464  -4.178  0.00  0.00     0.071 C 
ATOM      6  C   UNL d   1      26.574 -12.103  -3.147  0.00  0.00     0.073 C 
ATOM      7  C   UNL d   1      26.688 -12.955  -2.020  0.00  0.00     0.080 C 
BRANCH   3   8
ATOM      8  O   UNL d   1      25.535 -15.926  -3.550  0.00  0.00    -0.360 OA
ATOM      9  H   UNL d   1      24.767 -16.333  -3.116  0.00  0.00     0.217 HD
ENDBRANCH   3   8
BRANCH   5  10
ATOM     10  O   UNL d   1      25.531 -11.695  -5.277  0.00  0.00    -0.361 OA
ATOM     11  H   UNL d   1      24.648 -11.923  -5.635  0.00  0.00     0.217 HD
ENDBRANCH   5  10
BRANCH   7  12
ATOM     12  O   UNL d   1      27.523 -12.581  -1.005  0.00  0.00    -0.360 OA
ATOM     13  H   UNL d   1      28.376 -13.021  -1.182  0.00  0.00     0.217 HD
ENDBRANCH   7  12
ENDBRANCH   1   2
BRANCH   1  14
ATOM     14  C   UNL d   1      24.873 -16.194  -0.839  0.00  0.00     0.245 C 
ATOM     15  O   UNL d   1      23.804 -16.027  -1.431  0.00  0.00    -0.271 OA
ATOM     16  N   UNL d   1      25.239 -17.459  -0.401  0.00  0.00    -0.359 N 
ATOM     17  H   UNL d   1      26.115 -17.619   0.081  0.00  0.00     0.162 HD
BRANCH  16  18
ATOM     18  C   UNL d   1      24.306 -18.564  -0.575  0.00  0.00     0.122 C 
BRANCH  18  19
ATOM     19  C   UNL d   1      22.983 -18.356   0.151  0.00  0.00     0.019 C 
BRANCH  19  20
ATOM     20  C   UNL d   1      21.793 -18.587  -0.785  0.00  0.00    -0.003 C 
ATOM     21  C   UNL d   1      20.675 -19.327  -0.070  0.00  0.00     0.005 C 
ENDBRANCH  19  20
ENDBRANCH  18  19
ENDBRANCH  16  18
ENDBRANCH   1  14
BRANCH   1  22
ATOM     22  N   UNL d   1      27.177 -15.638  -0.119  0.00  0.00    -0.324 N 
ATOM     23  C   UNL d   1      27.965 -16.637  -0.813  0.00  0.00     0.299 C 
ATOM     24  O   UNL d   1      28.524 -17.559  -0.231  0.00  0.00    -0.258 OA
BRANCH  22  25
ATOM     25  C   UNL d   1      27.407 -15.324   1.317  0.00  0.00     0.128 C 
BRANCH  25  26
ATOM     26  C   UNL d   1      28.205 -14.057   1.576  0.00  0.00     0.020 C 
BRANCH  26  27
ATOM     27  C   UNL d   1      27.668 -13.183   2.696  0.00  0.00     0.002 C 
BRANCH  27  28
ATOM     28  C   UNL d   1      27.410 -14.076   3.909  0.00  0.00    -0.000 C 
BRANCH  28  29
ATOM     29  C   UNL d   1      28.011 -13.468   5.163  0.00  0.00    -0.005 C 
ATOM     30  C   UNL d   1      28.924 -14.464   5.851  0.00  0.00     0.005 C 
ENDBRANCH  28  29
ENDBRANCH  27  28
ENDBRANCH  26  27
ENDBRANCH  25  26
ENDBRANCH  22  25
BRANCH  23  31
ATOM     31  C   UNL d   1      28.416 -16.408  -2.217  0.00  0.00     0.000 C 
ATOM     32  C   UNL d   1      28.666 -16.000  -3.316  0.00  0.00    -0.057 C 
BRANCH  32  33
ATOM     33  C   UNL d   1      28.863 -15.577  -4.713  0.00  0.00     0.018 C 
ATOM     34  C   UNL d   1      28.143 -14.459  -5.093  0.00  0.00     0.020 C 
ATOM     35  C   UNL d   1      28.307 -13.890  -6.358  0.00  0.00     0.001 C 
ATOM     36  C   UNL d   1      29.281 -14.359  -7.237  0.00  0.00     0.000 C 
ATOM     37  C   UNL d   1      30.054 -15.450  -6.871  0.00  0.00     0.001 C 
ATOM     38  C   UNL d   1      29.771 -16.117  -5.658  0.00  0.00     0.020 C 
ENDBRANCH  32  33
ENDBRANCH  23  31
ENDBRANCH   1  22
TORSDOF 16
ENDMDL
MODEL 4
REMARK VINA RESULT:    -7.436      2.118      5.681
REMARK INTER + INTRA:         -15.762
REMARK INTER:                 -12.209
REMARK INTRA:                  -3.553
REMARK CONF_INDEPENDENT:        4.773
REMARK UNBOUND:                -3.553
REMARK  16 active torsions:
REMARK  status: ('A' for Active; 'I' for Inactive)
REMARK    1  A    between atoms: C_2  and  C_3 
REMARK    2  A    between atoms: C_3  and  C_4 
REMARK    3  A    between atoms: C_4  and  C_5 
REMARK    4  A    between atoms: C_5  and  C_6 
REMARK    5  A    between atoms: C_6  and  N_7 
REMARK       I    between atoms: N_7  and  C_8 
REMARK    6  A    between atoms: C_18  and  N_7 
REMARK    7  A    between atoms: C_8  and  C_10 
REMARK    8  A    between atoms: C_11  and  C_12 
REMARK    9  A    between atoms: C_18  and  C_26 
REMARK   10  A    between atoms: C_18  and  C_19 
REMARK       I    between atoms: C_19  and  N_21 
REMARK   11  A    between atoms: N_21  and  C_22 
REMARK   12  A    between atoms: C_22  and  C_23 
REMARK   13  A    between atoms: C_23  and  C_24 
REMARK   14  A    between atoms: C_27  and  O_28 
REMARK   15  A    between atoms: C_30  and  O_31 
REMARK   16  A    between atoms: C_33  and  O_34 
ROOT
ATOM      1  C   UNL d   1      26.784 -15.581  -2.553  0.00  0.00     0.219 C 
ENDROOT
BRANCH   1   2
ATOM      2  C   UNL d   1      26.212 -14.193  -2.806  0.00  0.00     0.040 C 
ATOM      3  C   UNL d   1      26.459 -13.134  -1.969  0.00  0.00     0.080 C 
ATOM      4  C   UNL d   1      26.422 -11.832  -2.418  0.00  0.00     0.073 C 
ATOM      5  C   UNL d   1      25.751 -11.481  -3.542  0.00  0.00     0.071 C 
ATOM      6  C   UNL d   1      25.156 -12.487  -4.256  0.00  0.00     0.073 C 
ATOM      7  C   UNL d   1      25.431 -13.835  -3.913  0.00  0.00     0.080 C 
BRANCH   3   8
ATOM      8  O   UNL d   1      26.567 -13.265  -0.615  0.00  0.00    -0.360 OA
ATOM      9  H   UNL d   1      27.482 -13.533  -0.429  0.00  0.00     0.217 HD
ENDBRANCH   3   8
BRANCH   5  10
ATOM     10  O   UNL d   1      25.593 -10.161  -3.823  0.00  0.00    -0.361 OA
ATOM     11  H   UNL d   1      24.632  -9.975  -3.865  0.00  0.00     0.217 HD
ENDBRANCH   5  10
BRANCH   7  12
ATOM     12  O   UNL d   1      24.823 -14.825  -4.633  0.00  0.00    -0.360 OA
ATOM     13  H   UNL d   1      24.021 -14.424  -5.017  0.00  0.00     0.217 HD
ENDBRANCH   7  12
ENDBRANCH   1   2
BRANCH   1  14
ATOM     14  C   UNL d   1      28.282 -15.549  -2.116  0.00  0.00     0.245 C 
ATOM     15  O   UNL d   1      28.797 -14.524  -1.666  0.00  0.00    -0.271 OA
ATOM     16  N   UNL d   1      28.993 -16.741  -2.132  0.00  0.00    -0.359 N 
ATOM     17  H   UNL d   1      28.585 -17.595  -2.491  0.00  0.00     0.162 HD
BRANCH  16  18
ATOM     18  C   UNL d   1      30.381 -16.740  -1.692  0.00  0.00     0.122 C 
BRANCH  18  19
ATOM     19  C   UNL d   1      30.534 -16.801  -0.178  0.00  0.00     0.019 C 
BRANCH  19  20
ATOM     20  C   UNL d   1      31.540 -15.760   0.322  0.00  0.00    -0.003 C 
ATOM     21  C   UNL d   1      30.827 -14.574   0.950  0.00  0.00     0.005 C 
ENDBRANCH  19  20
ENDBRANCH  18  19
ENDBRANCH  16  18
ENDBRANCH   1  14
BRANCH   1  22
ATOM     22  N   UNL d   1      26.039 -16.426  -1.537  0.00  0.00    -0.324 N 
ATOM     23  C   UNL d   1      26.606 -16.844  -0.270  0.00  0.00     0.299 C 
ATOM     24  O   UNL d   1      26.382 -17.943   0.223  0.00  0.00    -0.258 OA
BRANCH  22  25
ATOM     25  C   UNL d   1      24.778 -17.019  -2.060  0.00  0.00     0.128 C 
BRANCH  25  26
ATOM     26  C   UNL d   1      23.587 -16.920  -1.123  0.00  0.00     0.020 C 
BRANCH  26  27
ATOM     27  C   UNL d   1      23.084 -18.250  -0.590  0.00  0.00     0.002 C 
BRANCH  27  28
ATOM     28  C   UNL d   1      21.590 -18.347  -0.895  0.00  0.00    -0.000 C 
BRANCH  28  29
ATOM     29  C   UNL d   1      20.932 -19.410  -0.035  0.00  0.00    -0.005 C 
ATOM     30  C   UNL d   1      19.504 -19.651  -0.489  0.00  0.00     0.005 C 
ENDBRANCH  28  29
ENDBRANCH  27  28
ENDBRANCH  26  27
ENDBRANCH  25  26
ENDBRANCH  22  25
BRANCH  23  31
ATOM     31  C   UNL d   1      27.210 -15.843   0.658  0.00  0.00     0.000 C 
ATOM     32  C   UNL d   1      27.549 -15.150   1.575  0.00  0.00    -0.057 C 
BRANCH  32  33
ATOM     33  C   UNL d   1      27.875 -14.200   2.652  0.00  0.00     0.018 C 
ATOM     34  C   UNL d   1      27.815 -12.866   2.293  0.00  0.00     0.020 C 
ATOM     35  C   UNL d   1      28.005 -11.854   3.238  0.00  0.00     0.001 C 
ATOM     36  C   UNL d   1      28.148 -12.153   4.592  0.00  0.00     0.000 C 
ATOM     37  C   UNL d   1      28.167 -13.479   4.994  0.00  0.00     0.001 C 
ATOM     38  C   UNL d   1      28.136 -14.495   4.014  0.00  0.00     0.020 C 
ENDBRANCH  32  33
ENDBRANCH  23  31
ENDBRANCH   1  22
TORSDOF 16
ENDMDL
MODEL 5
REMARK VINA RESULT:    -7.430      2.450      4.513
REMARK INTER + INTRA:         -16.128
REMARK INTER:                 -12.203
REMARK INTRA:                  -3.926
REMARK CONF_INDEPENDENT:        4.773
REMARK UNBOUND:                -3.926
REMARK  16 active torsions:
REMARK  status: ('A' for Active; 'I' for Inactive)
REMARK    1  A    between atoms: C_2  and  C_3 
REMARK    2  A    between atoms: C_3  and  C_4 
REMARK    3  A    between atoms: C_4  and  C_5 
REMARK    4  A    between atoms: C_5  and  C_6 
REMARK    5  A    between atoms: C_6  and  N_7 
REMARK       I    between atoms: N_7  and  C_8 
REMARK    6  A    between atoms: C_18  and  N_7 
REMARK    7  A    between atoms: C_8  and  C_10 
REMARK    8  A    between atoms: C_11  and  C_12 
REMARK    9  A    between atoms: C_18  and  C_26 
REMARK   10  A    between atoms: C_18  and  C_19 
REMARK       I    between atoms: C_19  and  N_21 
REMARK   11  A    between atoms: N_21  and  C_22 
REMARK   12  A    between atoms: C_22  and  C_23 
REMARK   13  A    between atoms: C_23  and  C_24 
REMARK   14  A    between atoms: C_27  and  O_28 
REMARK   15  A    between atoms: C_30  and  O_31 
REMARK   16  A    between atoms: C_33  and  O_34 
ROOT
ATOM      1  C   UNL d   1      26.551 -14.499  -1.439  0.00  0.00     0.219 C 
ENDROOT
BRANCH   1   2
ATOM      2  C   UNL d   1      27.782 -15.360  -1.189  0.00  0.00     0.040 C 
ATOM      3  C   UNL d   1      27.850 -16.260  -0.155  0.00  0.00     0.080 C 
ATOM      4  C   UNL d   1      28.664 -17.370  -0.214  0.00  0.00     0.073 C 
ATOM      5  C   UNL d   1      29.727 -17.435  -1.052  0.00  0.00     0.071 C 
ATOM      6  C   UNL d   1      29.930 -16.371  -1.890  0.00  0.00     0.073 C 
ATOM      7  C   UNL d   1      28.933 -15.367  -1.988  0.00  0.00     0.080 C 
BRANCH   3   8
ATOM      8  O   UNL d   1      27.282 -16.036   1.065  0.00  0.00    -0.360 OA
ATOM      9  H   UNL d   1      27.875 -16.427   1.729  0.00  0.00     0.217 HD
ENDBRANCH   3   8
BRANCH   5  10
ATOM     10  O   UNL d   1      30.597 -18.471  -0.925  0.00  0.00    -0.361 OA
ATOM     11  H   UNL d   1      30.369 -18.956  -0.105  0.00  0.00     0.217 HD
ENDBRANCH   5  10
BRANCH   7  12
ATOM     12  O   UNL d   1      29.157 -14.310  -2.824  0.00  0.00    -0.360 OA
ATOM     13  H   UNL d   1      29.262 -13.529  -2.248  0.00  0.00     0.217 HD
ENDBRANCH   7  12
ENDBRANCH   1   2
BRANCH   1  14
ATOM     14  C   UNL d   1      26.907 -13.021  -1.792  0.00  0.00     0.245 C 
ATOM     15  O   UNL d   1      27.962 -12.507  -1.412  0.00  0.00    -0.271 OA
ATOM     16  N   UNL d   1      26.062 -12.331  -2.650  0.00  0.00    -0.359 N 
ATOM     17  H   UNL d   1      25.196 -12.739  -2.979  0.00  0.00     0.162 HD
BRANCH  16  18
ATOM     18  C   UNL d   1      26.397 -10.964  -3.023  0.00  0.00     0.122 C 
BRANCH  18  19
ATOM     19  C   UNL d   1      27.032 -10.854  -4.403  0.00  0.00     0.019 C 
BRANCH  19  20
ATOM     20  C   UNL d   1      26.205 -11.596  -5.457  0.00  0.00    -0.003 C 
ATOM     21  C   UNL d   1      25.581 -10.623  -6.443  0.00  0.00     0.005 C 
ENDBRANCH  19  20
ENDBRANCH  18  19
ENDBRANCH  16  18
ENDBRANCH   1  14
BRANCH   1  22
ATOM     22  N   UNL d   1      25.602 -14.999  -2.510  0.00  0.00    -0.324 N 
ATOM     23  C   UNL d   1      25.710 -14.640  -3.910  0.00  0.00     0.299 C 
ATOM     24  O   UNL d   1      24.731 -14.449  -4.621  0.00  0.00    -0.258 OA
BRANCH  22  25
ATOM     25  C   UNL d   1      24.390 -15.672  -1.970  0.00  0.00     0.128 C 
BRANCH  25  26
ATOM     26  C   UNL d   1      24.553 -17.156  -1.688  0.00  0.00     0.020 C 
BRANCH  26  27
ATOM     27  C   UNL d   1      24.052 -17.604  -0.326  0.00  0.00     0.002 C 
BRANCH  27  28
ATOM     28  C   UNL d   1      22.537 -17.410  -0.293  0.00  0.00    -0.000 C 
BRANCH  28  29
ATOM     29  C   UNL d   1      21.826 -18.611  -0.893  0.00  0.00    -0.005 C 
ATOM     30  C   UNL d   1      21.009 -19.327   0.166  0.00  0.00     0.005 C 
ENDBRANCH  28  29
ENDBRANCH  27  28
ENDBRANCH  26  27
ENDBRANCH  25  26
ENDBRANCH  22  25
BRANCH  23  31
ATOM     31  C   UNL d   1      27.000 -14.815  -4.642  0.00  0.00     0.000 C 
ATOM     32  C   UNL d   1      27.974 -15.199  -5.226  0.00  0.00    -0.057 C 
BRANCH  32  33
ATOM     33  C   UNL d   1      29.240 -15.661  -5.819  0.00  0.00     0.018 C 
ATOM     34  C   UNL d   1      29.830 -14.776  -6.703  0.00  0.00     0.020 C 
ATOM     35  C   UNL d   1      31.081 -15.042  -7.264  0.00  0.00     0.001 C 
ATOM     36  C   UNL d   1      31.826 -16.150  -6.867  0.00  0.00     0.000 C 
ATOM     37  C   UNL d   1      31.285 -17.036  -5.948  0.00  0.00     0.001 C 
ATOM     38  C   UNL d   1      29.956 -16.844  -5.509  0.00  0.00     0.020 C 
ENDBRANCH  32  33
ENDBRANCH  23  31
ENDBRANCH   1  22
TORSDOF 16
ENDMDL
MODEL 6
REMARK VINA RESULT:    -7.346      2.328      6.021
REMARK INTER + INTRA:         -15.694
REMARK INTER:                 -12.119
REMARK INTRA:                  -3.575
REMARK CONF_INDEPENDENT:        4.773
REMARK UNBOUND:                -3.575
REMARK  16 active torsions:
REMARK  status: ('A' for Active; 'I' for Inactive)
REMARK    1  A    between atoms: C_2  and  C_3 
REMARK    2  A    between atoms: C_3  and  C_4 
REMARK    3  A    between atoms: C_4  and  C_5 
REMARK    4  A    between atoms: C_5  and  C_6 
REMARK    5  A    between atoms: C_6  and  N_7 
REMARK       I    between atoms: N_7  and  C_8 
REMARK    6  A    between atoms: C_18  and  N_7 
REMARK    7  A    between atoms: C_8  and  C_10 
REMARK    8  A    between atoms: C_11  and  C_12 
REMARK    9  A    between atoms: C_18  and  C_26 
REMARK   10  A    between atoms: C_18  and  C_19 
REMARK       I    between atoms: C_19  and  N_21 
REMARK   11  A    between atoms: N_21  and  C_22 
REMARK   12  A    between atoms: C_22  and  C_23 
REMARK   13  A    between atoms: C_23  and  C_24 
REMARK   14  A    between atoms: C_27  and  O_28 
REMARK   15  A    between atoms: C_30  and  O_31 
REMARK   16  A    between atoms: C_33  and  O_34 
ROOT
ATOM      1  C   UNL d   1      27.032 -14.159  -2.833  0.00  0.00     0.219 C 
ENDROOT
BRANCH   1   2
ATOM      2  C   UNL d   1      27.581 -13.973  -4.240  0.00  0.00     0.040 C 
ATOM      3  C   UNL d   1      28.357 -12.895  -4.588  0.00  0.00     0.080 C 
ATOM      4  C   UNL d   1      29.264 -12.961  -5.623  0.00  0.00     0.073 C 
ATOM      5  C   UNL d   1      29.166 -13.890  -6.605  0.00  0.00     0.071 C 
ATOM      6  C   UNL d   1      28.156 -14.808  -6.499  0.00  0.00     0.073 C 
ATOM      7  C   UNL d   1      27.404 -14.875  -5.298  0.00  0.00     0.080 C 
BRANCH   3   8
ATOM      8  O   UNL d   1      28.161 -11.643  -4.082  0.00  0.00    -0.360 OA
ATOM      9  H   UNL d   1      28.175 -11.724  -3.114  0.00  0.00     0.217 HD
ENDBRANCH   3   8
BRANCH   5  10
ATOM     10  O   UNL d   1      29.974 -13.780  -7.691  0.00  0.00    -0.361 OA
ATOM     11  H   UNL d   1      29.405 -13.701  -8.484  0.00  0.00     0.217 HD
ENDBRANCH   5  10
BRANCH   7  12
ATOM     12  O   UNL d   1      26.396 -15.793  -5.213  0.00  0.00    -0.360 OA
ATOM     13  H   UNL d   1      25.566 -15.280  -5.189  0.00  0.00     0.217 HD
ENDBRANCH   7  12
ENDBRANCH   1   2
BRANCH   1  14
ATOM     14  C   UNL d   1      25.729 -15.018  -2.800  0.00  0.00     0.245 C 
ATOM     15  O   UNL d   1      24.762 -14.744  -3.514  0.00  0.00    -0.271 OA
ATOM     16  N   UNL d   1      25.727 -16.174  -2.033  0.00  0.00    -0.359 N 
ATOM     17  H   UNL d   1      26.514 -16.420  -1.445  0.00  0.00     0.162 HD
BRANCH  16  18
ATOM     18  C   UNL d   1      24.535 -17.010  -2.018  0.00  0.00     0.122 C 
BRANCH  18  19
ATOM     19  C   UNL d   1      24.332 -17.749  -0.702  0.00  0.00     0.019 C 
BRANCH  19  20
ATOM     20  C   UNL d   1      22.874 -17.670  -0.239  0.00  0.00    -0.003 C 
ATOM     21  C   UNL d   1      22.036 -18.753  -0.898  0.00  0.00     0.005 C 
ENDBRANCH  19  20
ENDBRANCH  18  19
ENDBRANCH  16  18
ENDBRANCH   1  14
BRANCH   1  22
ATOM     22  N   UNL d   1      27.991 -14.760  -1.824  0.00  0.00    -0.324 N 
ATOM     23  C   UNL d   1      28.580 -16.078  -1.962  0.00  0.00     0.299 C 
ATOM     24  O   UNL d   1      28.773 -16.819  -1.007  0.00  0.00    -0.258 OA
BRANCH  22  25
ATOM     25  C   UNL d   1      28.070 -14.002  -0.546  0.00  0.00     0.128 C 
BRANCH  25  26
ATOM     26  C   UNL d   1      27.225 -14.562   0.585  0.00  0.00     0.020 C 
BRANCH  26  27
ATOM     27  C   UNL d   1      27.048 -13.628   1.770  0.00  0.00     0.002 C 
BRANCH  27  28
ATOM     28  C   UNL d   1      28.047 -14.040   2.849  0.00  0.00    -0.000 C 
BRANCH  28  29
ATOM     29  C   UNL d   1      27.428 -13.924   4.231  0.00  0.00    -0.005 C 
ATOM     30  C   UNL d   1      28.142 -14.835   5.211  0.00  0.00     0.005 C 
ENDBRANCH  28  29
ENDBRANCH  27  28
ENDBRANCH  26  27
ENDBRANCH  25  26
ENDBRANCH  22  25
BRANCH  23  31
ATOM     31  C   UNL d   1      29.289 -16.464  -3.218  0.00  0.00     0.000 C 
ATOM     32  C   UNL d   1      29.718 -16.982  -4.211  0.00  0.00    -0.057 C 
BRANCH  32  33
ATOM     33  C   UNL d   1      30.357 -17.658  -5.352  0.00  0.00     0.018 C 
ATOM     34  C   UNL d   1      30.403 -19.037  -5.264  0.00  0.00     0.020 C 
ATOM     35  C   UNL d   1      30.893 -19.813  -6.318  0.00  0.00     0.001 C 
ATOM     36  C   UNL d   1      31.244 -19.232  -7.535  0.00  0.00     0.000 C 
ATOM     37  C   UNL d   1      31.166 -17.855  -7.675  0.00  0.00     0.001 C 
ATOM     38  C   UNL d   1      30.825 -17.067  -6.553  0.00  0.00     0.020 C 
ENDBRANCH  32  33
ENDBRANCH  23  31
ENDBRANCH   1  22
TORSDOF 16
ENDMDL
MODEL 7
REMARK VINA RESULT:    -7.007      2.017      6.272
REMARK INTER + INTRA:         -16.143
REMARK INTER:                 -11.780
REMARK INTRA:                  -4.363
REMARK CONF_INDEPENDENT:        4.773
REMARK UNBOUND:                -4.363
REMARK  16 active torsions:
REMARK  status: ('A' for Active; 'I' for Inactive)
REMARK    1  A    between atoms: C_2  and  C_3 
REMARK    2  A    between atoms: C_3  and  C_4 
REMARK    3  A    between atoms: C_4  and  C_5 
REMARK    4  A    between atoms: C_5  and  C_6 
REMARK    5  A    between atoms: C_6  and  N_7 
REMARK       I    between atoms: N_7  and  C_8 
REMARK    6  A    between atoms: C_18  and  N_7 
REMARK    7  A    between atoms: C_8  and  C_10 
REMARK    8  A    between atoms: C_11  and  C_12 
REMARK    9  A    between atoms: C_18  and  C_26 
REMARK   10  A    between atoms: C_18  and  C_19 
REMARK       I    between atoms: C_19  and  N_21 
REMARK   11  A    between atoms: N_21  and  C_22 
REMARK   12  A    between atoms: C_22  and  C_23 
REMARK   13  A    between atoms: C_23  and  C_24 
REMARK   14  A    between atoms: C_27  and  O_28 
REMARK   15  A    between atoms: C_30  and  O_31 
REMARK   16  A    between atoms: C_33  and  O_34 
ROOT
ATOM      1  C   UNL d   1      28.817 -14.752  -2.276  0.00  0.00     0.219 C 
ENDROOT
BRANCH   1   2
ATOM      2  C   UNL d   1      27.380 -14.740  -2.780  0.00  0.00     0.040 C 
ATOM      3  C   UNL d   1      26.334 -14.303  -2.006  0.00  0.00     0.080 C 
ATOM      4  C   UNL d   1      25.182 -13.795  -2.565  0.00  0.00     0.073 C 
ATOM      5  C   UNL d   1      24.824 -14.071  -3.843  0.00  0.00     0.071 C 
ATOM      6  C   UNL d   1      25.688 -14.832  -4.585  0.00  0.00     0.073 C 
ATOM      7  C   UNL d   1      26.977 -15.119  -4.067  0.00  0.00     0.080 C 
BRANCH   3   8
ATOM      8  O   UNL d   1      26.269 -14.510  -0.658  0.00  0.00    -0.360 OA
ATOM      9  H   UNL d   1      26.775 -13.795  -0.238  0.00  0.00     0.217 HD
ENDBRANCH   3   8
BRANCH   5  10
ATOM     10  O   UNL d   1      23.589 -13.700  -4.269  0.00  0.00    -0.361 OA
ATOM     11  H   UNL d   1      23.691 -13.244  -5.130  0.00  0.00     0.217 HD
ENDBRANCH   5  10
BRANCH   7  12
ATOM     12  O   UNL d   1      27.822 -15.885  -4.819  0.00  0.00    -0.360 OA
ATOM     13  H   UNL d   1      28.087 -15.330  -5.576  0.00  0.00     0.217 HD
ENDBRANCH   7  12
ENDBRANCH   1   2
BRANCH   1  14
ATOM     14  C   UNL d   1      29.025 -13.851  -1.019  0.00  0.00     0.245 C 
ATOM     15  O   UNL d   1      28.568 -12.707  -0.966  0.00  0.00    -0.271 OA
ATOM     16  N   UNL d   1      29.637 -14.411   0.094  0.00  0.00    -0.359 N 
ATOM     17  H   UNL d   1      30.012 -15.352   0.073  0.00  0.00     0.162 HD
BRANCH  16  18
ATOM     18  C   UNL d   1      29.806 -13.600   1.290  0.00  0.00     0.122 C 
BRANCH  18  19
ATOM     19  C   UNL d   1      28.901 -14.024   2.440  0.00  0.00     0.019 C 
BRANCH  19  20
ATOM     20  C   UNL d   1      27.428 -13.756   2.116  0.00  0.00    -0.003 C 
ATOM     21  C   UNL d   1      27.181 -12.272   1.900  0.00  0.00     0.005 C 
ENDBRANCH  19  20
ENDBRANCH  18  19
ENDBRANCH  16  18
ENDBRANCH   1  14
BRANCH   1  22
ATOM     22  N   UNL d   1      29.391 -16.117  -1.950  0.00  0.00    -0.324 N 
ATOM     23  C   UNL d   1      28.935 -16.936  -0.843  0.00  0.00     0.299 C 
ATOM     24  O   UNL d   1      29.696 -17.625  -0.175  0.00  0.00    -0.258 OA
BRANCH  22  25
ATOM     25  C   UNL d   1      30.641 -16.433  -2.690  0.00  0.00     0.128 C 
BRANCH  25  26
ATOM     26  C   UNL d   1      30.482 -16.551  -4.196  0.00  0.00     0.020 C 
BRANCH  26  27
ATOM     27  C   UNL d   1      30.501 -17.973  -4.730  0.00  0.00     0.002 C 
BRANCH  27  28
ATOM     28  C   UNL d   1      30.793 -17.911  -6.228  0.00  0.00    -0.000 C 
BRANCH  28  29
ATOM     29  C   UNL d   1      30.684 -19.289  -6.856  0.00  0.00    -0.005 C 
ATOM     30  C   UNL d   1      30.450 -20.341  -5.789  0.00  0.00     0.005 C 
ENDBRANCH  28  29
ENDBRANCH  27  28
ENDBRANCH  26  27
ENDBRANCH  25  26
ENDBRANCH  22  25
BRANCH  23  31
ATOM     31  C   UNL d   1      27.485 -17.246  -0.675  0.00  0.00     0.000 C 
ATOM     32  C   UNL d   1      26.299 -17.395  -0.770  0.00  0.00    -0.057 C 
BRANCH  32  33
ATOM     33  C   UNL d   1      24.829 -17.460  -0.805  0.00  0.00     0.018 C 
ATOM     34  C   UNL d   1      24.289 -18.696  -0.501  0.00  0.00     0.020 C 
ATOM     35  C   UNL d   1      22.907 -18.877  -0.402  0.00  0.00     0.001 C 
ATOM     36  C   UNL d   1      22.033 -17.796  -0.493  0.00  0.00     0.000 C 
ATOM     37  C   UNL d   1      22.542 -16.533  -0.752  0.00  0.00     0.001 C 
ATOM     38  C   UNL d   1      23.923 -16.388  -1.010  0.00  0.00     0.020 C 
ENDBRANCH  32  33
ENDBRANCH  23  31
ENDBRANCH   1  22
TORSDOF 16
ENDMDL
MODEL 8
REMARK VINA RESULT:    -6.598      2.233      6.985
REMARK INTER + INTRA:         -15.751
REMARK INTER:                 -11.371
REMARK INTRA:                  -4.380
REMARK CONF_INDEPENDENT:        4.773
REMARK UNBOUND:                -4.380
REMARK  16 active torsions:
REMARK  status: ('A' for Active; 'I' for Inactive)
REMARK    1  A    between atoms: C_2  and  C_3 
REMARK    2  A    between atoms: C_3  and  C_4 
REMARK    3  A    between atoms: C_4  and  C_5 
REMARK    4  A    between atoms: C_5  and  C_6 
REMARK    5  A    between atoms: C_6  and  N_7 
REMARK       I    between atoms: N_7  and  C_8 
REMARK    6  A    between atoms: C_18  and  N_7 
REMARK    7  A    between atoms: C_8  and  C_10 
REMARK    8  A    between atoms: C_11  and  C_12 
REMARK    9  A    between atoms: C_18  and  C_26 
REMARK   10  A    between atoms: C_18  and  C_19 
REMARK       I    between atoms: C_19  and  N_21 
REMARK   11  A    between atoms: N_21  and  C_22 
REMARK   12  A    between atoms: C_22  and  C_23 
REMARK   13  A    between atoms: C_23  and  C_24 
REMARK   14  A    between atoms: C_27  and  O_28 
REMARK   15  A    between atoms: C_30  and  O_31 
REMARK   16  A    between atoms: C_33  and  O_34 
ROOT
ATOM      1  C   UNL d   1      27.740 -13.755   0.676  0.00  0.00     0.219 C 
ENDROOT
BRANCH   1   2
ATOM      2  C   UNL d   1      28.108 -13.770   2.153  0.00  0.00     0.040 C 
ATOM      3  C   UNL d   1      27.348 -13.137   3.105  0.00  0.00     0.080 C 
ATOM      4  C   UNL d   1      27.339 -13.554   4.418  0.00  0.00     0.073 C 
ATOM      5  C   UNL d   1      28.345 -14.296   4.942  0.00  0.00     0.071 C 
ATOM      6  C   UNL d   1      29.353 -14.671   4.094  0.00  0.00     0.073 C 
ATOM      7  C   UNL d   1      29.204 -14.450   2.701  0.00  0.00     0.080 C 
BRANCH   3   8
ATOM      8  O   UNL d   1      26.708 -11.954   2.879  0.00  0.00    -0.360 OA
ATOM      9  H   UNL d   1      27.233 -11.469   2.222  0.00  0.00     0.217 HD
ENDBRANCH   3   8
BRANCH   5  10
ATOM     10  O   UNL d   1      28.369 -14.509   6.283  0.00  0.00    -0.361 OA
ATOM     11  H   UNL d   1      28.536 -15.462   6.434  0.00  0.00     0.217 HD
ENDBRANCH   5  10
BRANCH   7  12
ATOM     12  O   UNL d   1      30.224 -14.825   1.872  0.00  0.00    -0.360 OA
ATOM     13  H   UNL d   1      30.043 -15.751   1.626  0.00  0.00     0.217 HD
ENDBRANCH   7  12
ENDBRANCH   1   2
BRANCH   1  14
ATOM     14  C   UNL d   1      27.789 -12.325   0.054  0.00  0.00     0.245 C 
ATOM     15  O   UNL d   1      28.396 -11.405   0.607  0.00  0.00    -0.271 OA
ATOM     16  N   UNL d   1      27.232 -12.138  -1.204  0.00  0.00    -0.359 N 
ATOM     17  H   UNL d   1      26.736 -12.883  -1.678  0.00  0.00     0.162 HD
BRANCH  16  18
ATOM     18  C   UNL d   1      27.301 -10.820  -1.818  0.00  0.00     0.122 C 
BRANCH  18  19
ATOM     19  C   UNL d   1      26.280 -10.619  -2.931  0.00  0.00     0.019 C 
BRANCH  19  20
ATOM     20  C   UNL d   1      25.826 -11.958  -3.519  0.00  0.00    -0.003 C 
ATOM     21  C   UNL d   1      25.914 -11.943  -5.036  0.00  0.00     0.005 C 
ENDBRANCH  19  20
ENDBRANCH  18  19
ENDBRANCH  16  18
ENDBRANCH   1  14
BRANCH   1  22
ATOM     22  N   UNL d   1      28.564 -14.661  -0.219  0.00  0.00    -0.324 N 
ATOM     23  C   UNL d   1      28.453 -16.106  -0.219  0.00  0.00     0.299 C 
ATOM     24  O   UNL d   1      29.420 -16.843  -0.365  0.00  0.00    -0.258 OA
BRANCH  22  25
ATOM     25  C   UNL d   1      29.687 -13.966  -0.904  0.00  0.00     0.128 C 
BRANCH  25  26
ATOM     26  C   UNL d   1      29.863 -14.324  -2.370  0.00  0.00     0.020 C 
BRANCH  26  27
ATOM     27  C   UNL d   1      28.648 -14.060  -3.241  0.00  0.00     0.002 C 
BRANCH  27  28
ATOM     28  C   UNL d   1      27.987 -15.403  -3.549  0.00  0.00    -0.000 C 
BRANCH  28  29
ATOM     29  C   UNL d   1      26.630 -15.200  -4.200  0.00  0.00    -0.005 C 
ATOM     30  C   UNL d   1      25.531 -15.235  -3.155  0.00  0.00     0.005 C 
ENDBRANCH  28  29
ENDBRANCH  27  28
ENDBRANCH  26  27
ENDBRANCH  25  26
ENDBRANCH  22  25
BRANCH  23  31
ATOM     31  C   UNL d   1      27.123 -16.766  -0.380  0.00  0.00     0.000 C 
ATOM     32  C   UNL d   1      25.967 -17.081  -0.411  0.00  0.00    -0.057 C 
BRANCH  32  33
ATOM     33  C   UNL d   1      24.572 -17.543  -0.330  0.00  0.00     0.018 C 
ATOM     34  C   UNL d   1      23.618 -16.563  -0.531  0.00  0.00     0.020 C 
ATOM     35  C   UNL d   1      22.257 -16.877  -0.579  0.00  0.00     0.001 C 
ATOM     36  C   UNL d   1      21.823 -18.200  -0.538  0.00  0.00     0.000 C 
ATOM     37  C   UNL d   1      22.756 -19.214  -0.383  0.00  0.00     0.001 C 
ATOM     38  C   UNL d   1      24.111 -18.875  -0.174  0.00  0.00     0.020 C 
ENDBRANCH  32  33
ENDBRANCH  23  31
ENDBRANCH   1  22
TORSDOF 16
ENDMDL
MODEL 9
REMARK VINA RESULT:    -6.594      2.137      6.537
REMARK INTER + INTRA:         -15.971
REMARK INTER:                 -11.367
REMARK INTRA:                  -4.604
REMARK CONF_INDEPENDENT:        4.773
REMARK UNBOUND:                -4.604
REMARK  16 active torsions:
REMARK  status: ('A' for Active; 'I' for Inactive)
REMARK    1  A    between atoms: C_2  and  C_3 
REMARK    2  A    between atoms: C_3  and  C_4 
REMARK    3  A    between atoms: C_4  and  C_5 
REMARK    4  A    between atoms: C_5  and  C_6 
REMARK    5  A    between atoms: C_6  and  N_7 
REMARK       I    between atoms: N_7  and  C_8 
REMARK    6  A    between atoms: C_18  and  N_7 
REMARK    7  A    between atoms: C_8  and  C_10 
REMARK    8  A    between atoms: C_11  and  C_12 
REMARK    9  A    between atoms: C_18  and  C_26 
REMARK   10  A    between atoms: C_18  and  C_19 
REMARK       I    between atoms: C_19  and  N_21 
REMARK   11  A    between atoms: N_21  and  C_22 
REMARK   12  A    between atoms: C_22  and  C_23 
REMARK   13  A    between atoms: C_23  and  C_24 
REMARK   14  A    between atoms: C_27  and  O_28 
REMARK   15  A    between atoms: C_30  and  O_31 
REMARK   16  A    between atoms: C_33  and  O_34 
ROOT
ATOM      1  C   UNL d   1      29.102 -14.454  -3.289  0.00  0.00     0.219 C 
ENDROOT
BRANCH   1   2
ATOM      2  C   UNL d   1      27.647 -14.151  -3.620  0.00  0.00     0.040 C 
ATOM      3  C   UNL d   1      26.902 -14.949  -4.452  0.00  0.00     0.080 C 
ATOM      4  C   UNL d   1      25.530 -15.018  -4.352  0.00  0.00     0.073 C 
ATOM      5  C   UNL d   1      24.805 -14.039  -3.759  0.00  0.00     0.071 C 
ATOM      6  C   UNL d   1      25.497 -12.996  -3.203  0.00  0.00     0.073 C 
ATOM      7  C   UNL d   1      26.909 -13.083  -3.094  0.00  0.00     0.080 C 
BRANCH   3   8
ATOM      8  O   UNL d   1      27.425 -15.575  -5.547  0.00  0.00    -0.360 OA
ATOM      9  H   UNL d   1      28.063 -16.231  -5.220  0.00  0.00     0.217 HD
ENDBRANCH   3   8
BRANCH   5  10
ATOM     10  O   UNL d   1      23.451 -14.075  -3.863  0.00  0.00    -0.361 OA
ATOM     11  H   UNL d   1      23.197 -13.572  -4.665  0.00  0.00     0.217 HD
ENDBRANCH   5  10
BRANCH   7  12
ATOM     12  O   UNL d   1      27.583 -12.029  -2.543  0.00  0.00    -0.360 OA
ATOM     13  H   UNL d   1      28.447 -11.997  -2.995  0.00  0.00     0.217 HD
ENDBRANCH   7  12
ENDBRANCH   1   2
BRANCH   1  14
ATOM     14  C   UNL d   1      29.611 -13.681  -2.032  0.00  0.00     0.245 C 
ATOM     15  O   UNL d   1      30.356 -12.704  -2.137  0.00  0.00    -0.271 OA
ATOM     16  N   UNL d   1      29.107 -14.046  -0.791  0.00  0.00    -0.359 N 
ATOM     17  H   UNL d   1      28.488 -14.840  -0.685  0.00  0.00     0.162 HD
BRANCH  16  18
ATOM     18  C   UNL d   1      29.539 -13.312   0.389  0.00  0.00     0.122 C 
BRANCH  18  19
ATOM     19  C   UNL d   1      28.389 -12.908   1.303  0.00  0.00     0.019 C 
BRANCH  19  20
ATOM     20  C   UNL d   1      27.418 -14.071   1.523  0.00  0.00    -0.003 C 
ATOM     21  C   UNL d   1      26.293 -14.040   0.501  0.00  0.00     0.005 C 
ENDBRANCH  19  20
ENDBRANCH  18  19
ENDBRANCH  16  18
ENDBRANCH   1  14
BRANCH   1  22
ATOM     22  N   UNL d   1      29.441 -15.917  -3.083  0.00  0.00    -0.324 N 
ATOM     23  C   UNL d   1      29.051 -16.675  -1.910  0.00  0.00     0.299 C 
ATOM     24  O   UNL d   1      29.771 -17.527  -1.405  0.00  0.00    -0.258 OA
BRANCH  22  25
ATOM     25  C   UNL d   1      30.437 -16.444  -4.055  0.00  0.00     0.128 C 
BRANCH  25  26
ATOM     26  C   UNL d   1      31.056 -15.400  -4.968  0.00  0.00     0.020 C 
BRANCH  26  27
ATOM     27  C   UNL d   1      30.902 -15.680  -6.453  0.00  0.00     0.002 C 
BRANCH  27  28
ATOM     28  C   UNL d   1      29.701 -14.883  -6.961  0.00  0.00    -0.000 C 
BRANCH  28  29
ATOM     29  C   UNL d   1      29.768 -13.443  -6.484  0.00  0.00    -0.005 C 
ATOM     30  C   UNL d   1      28.468 -12.723  -6.787  0.00  0.00     0.005 C 
ENDBRANCH  28  29
ENDBRANCH  27  28
ENDBRANCH  26  27
ENDBRANCH  25  26
ENDBRANCH  22  25
BRANCH  23  31
ATOM     31  C   UNL d   1      27.627 -16.700  -1.461  0.00  0.00     0.000 C 
ATOM     32  C   UNL d   1      26.526 -16.967  -1.072  0.00  0.00    -0.057 C 
BRANCH  32  33
ATOM     33  C   UNL d   1      25.131 -17.292  -0.730  0.00  0.00     0.018 C 
ATOM     34  C   UNL d   1      24.203 -16.325  -1.071  0.00  0.00     0.020 C 
ATOM     35  C   UNL d   1      22.835 -16.542  -0.895  0.00  0.00     0.001 C 
ATOM     36  C   UNL d   1      22.351 -17.780  -0.476  0.00  0.00     0.000 C 
ATOM     37  C   UNL d   1      23.251 -18.789  -0.168  0.00  0.00     0.001 C 
ATOM     38  C   UNL d   1      24.635 -18.508  -0.195  0.00  0.00     0.020 C 
ENDBRANCH  32  33
ENDBRANCH  23  31
ENDBRANCH   1  22
TORSDOF 16
ENDMDL
