MODEL 1
REMARK VINA RESULT:   -10.885      0.000      0.000
REMARK INTER + INTRA:         -14.820
REMARK INTER:                 -13.569
REMARK INTRA:                  -1.251
REMARK CONF_INDEPENDENT:        2.685
REMARK UNBOUND:                -1.251
REMARK  9 active torsions:
REMARK  status: ('A' for Active; 'I' for Inactive)
REMARK    1  A    between atoms: C_2  and  C_3 
REMARK       I    between atoms: C_2  and  N_21 
REMARK    2  A    between atoms: C_3  and  N_4 
REMARK    3  A    between atoms: N_4  and  C_5 
REMARK    4  A    between atoms: C_10  and  C_11 
REMARK       I    between atoms: C_11  and  N_13 
REMARK    5  A    between atoms: N_13  and  C_14 
REMARK    6  A    between atoms: N_21  and  C_22 
REMARK    7  A    between atoms: C_25  and  C_26 
REMARK       I    between atoms: C_26  and  N_28 
REMARK    8  A    between atoms: N_28  and  C_29 
REMARK    9  A    between atoms: C_29  and  C_30 
ROOT
ATOM      1  O   UNL d   1      29.577 -15.549   0.443  0.00  0.00    -0.271 OA
ATOM      2  C   UNL d   1      28.353 -15.675   0.525  0.00  0.00     0.239 C 
ATOM      3  N   UNL d   1      27.736 -16.745  -0.109  0.00  0.00    -0.326 N 
ATOM      4  H   UNL d   1      28.384 -17.427  -0.490  0.00  0.00     0.169 HD
ENDROOT
BRANCH   2   5
ATOM      5  C   UNL d   1      27.487 -14.735   1.391  0.00  0.00     0.223 C 
BRANCH   5   6
ATOM      6  N   UNL d   1      27.805 -14.775   2.832  0.00  0.00    -0.381 N 
ATOM      7  H   UNL d   1      28.337 -15.583   3.140  0.00  0.00     0.160 HD
BRANCH   6   8
ATOM      8  C   UNL d   1      27.920 -13.548   3.491  0.00  0.00     0.029 A 
ATOM      9  C   UNL d   1      27.889 -12.380   2.727  0.00  0.00     0.031 A 
ATOM     10  C   UNL d   1      28.046 -11.126   3.304  0.00  0.00     0.027 A 
ATOM     11  C   UNL d   1      28.265 -10.988   4.675  0.00  0.00     0.049 A 
ATOM     12 CL   UNL d   1      28.463  -9.350   5.196  0.00  0.00    -0.083 Cl
ATOM     13  C   UNL d   1      28.313 -12.124   5.498  0.00  0.00     0.055 A 
ATOM     14  C   UNL d   1      28.134 -13.407   4.880  0.00  0.00     0.048 A 
BRANCH  13  15
ATOM     15  C   UNL d   1      28.547 -12.075   6.994  0.00  0.00     0.253 C 
ATOM     16  O   UNL d   1      28.761 -10.987   7.532  0.00  0.00    -0.268 OA
ATOM     17  N   UNL d   1      28.517 -13.255   7.730  0.00  0.00    -0.352 N 
ATOM     18  H   UNL d   1      28.493 -14.132   7.222  0.00  0.00     0.163 HD
BRANCH  17  19
ATOM     19  C   UNL d   1      28.919 -13.329   9.133  0.00  0.00     0.084 C 
ATOM     20  C   UNL d   1      28.314 -12.205   9.999  0.00  0.00     0.025 C 
ATOM     21  C   UNL d   1      28.775 -12.336  11.458  0.00  0.00     0.002 C 
ATOM     22  C   UNL d   1      28.433 -13.707  12.038  0.00  0.00     0.000 C 
ATOM     23  C   UNL d   1      28.996 -14.825  11.167  0.00  0.00     0.002 C 
ATOM     24  C   UNL d   1      28.531 -14.693   9.720  0.00  0.00     0.025 C 
ENDBRANCH  17  19
ENDBRANCH  13  15
ENDBRANCH   6   8
ENDBRANCH   5   6
ENDBRANCH   2   5
BRANCH   3  25
ATOM     25  C   UNL d   1      26.357 -16.994  -0.257  0.00  0.00     0.034 A 
ATOM     26  C   UNL d   1      25.543 -16.109  -0.966  0.00  0.00     0.030 A 
ATOM     27  C   UNL d   1      24.160 -16.370  -1.088  0.00  0.00     0.019 A 
ATOM     28  C   UNL d   1      23.590 -17.539  -0.548  0.00  0.00     0.032 A 
ATOM     29  C   UNL d   1      24.408 -18.378   0.201  0.00  0.00     0.019 A 
ATOM     30  C   UNL d   1      25.760 -18.086   0.366  0.00  0.00     0.030 A 
BRANCH  28  31
ATOM     31  C   UNL d   1      22.145 -17.863  -0.784  0.00  0.00     0.251 C 
ATOM     32  O   UNL d   1      21.407 -17.000  -1.266  0.00  0.00    -0.268 OA
ATOM     33  N   UNL d   1      21.693 -19.138  -0.468  0.00  0.00    -0.354 N 
ATOM     34  H   UNL d   1      22.329 -19.876  -0.208  0.00  0.00     0.162 HD
BRANCH  33  35
ATOM     35  C   UNL d   1      20.324 -19.539  -0.758  0.00  0.00     0.155 C 
BRANCH  35  36
ATOM     36  C   UNL d   1      19.697 -20.571   0.199  0.00  0.00     0.139 C 
ATOM     37  C   UNL d   1      18.208 -20.825   0.048  0.00  0.00     0.035 C 
ATOM     38  C   UNL d   1      17.885 -21.514   1.355  0.00  0.00     0.029 C 
ATOM     39  C   UNL d   1      18.791 -20.801   2.339  0.00  0.00     0.168 C 
ATOM     40  O   UNL d   1      19.887 -20.240   1.589  0.00  0.00    -0.384 OA
ENDBRANCH  35  36
ENDBRANCH  33  35
ENDBRANCH  28  31
ENDBRANCH   3  25
TORSDOF 9
ENDMDL
MODEL 2
REMARK VINA RESULT:    -9.687      5.976      9.235
REMARK INTER + INTRA:         -14.324
REMARK INTER:                 -12.372
REMARK INTRA:                  -1.952
REMARK CONF_INDEPENDENT:        2.685
REMARK UNBOUND:                -1.952
REMARK  9 active torsions:
REMARK  status: ('A' for Active; 'I' for Inactive)
REMARK    1  A    between atoms: C_2  and  C_3 
REMARK       I    between atoms: C_2  and  N_21 
REMARK    2  A    between atoms: C_3  and  N_4 
REMARK    3  A    between atoms: N_4  and  C_5 
REMARK    4  A    between atoms: C_10  and  C_11 
REMARK       I    between atoms: C_11  and  N_13 
REMARK    5  A    between atoms: N_13  and  C_14 
REMARK    6  A    between atoms: N_21  and  C_22 
REMARK    7  A    between atoms: C_25  and  C_26 
REMARK       I    between atoms: C_26  and  N_28 
REMARK    8  A    between atoms: N_28  and  C_29 
REMARK    9  A    between atoms: C_29  and  C_30 
ROOT
ATOM      1  O   UNL d   1      29.610 -15.240   0.824  0.00  0.00    -0.271 OA
ATOM      2  C   UNL d   1      28.779 -15.961   0.267  0.00  0.00     0.239 C 
ATOM      3  N   UNL d   1      27.432 -15.639   0.358  0.00  0.00    -0.326 N 
ATOM      4  H   UNL d   1      27.252 -14.733   0.779  0.00  0.00     0.169 HD
ENDROOT
BRANCH   2   5
ATOM      5  C   UNL d   1      29.190 -17.162  -0.611  0.00  0.00     0.223 C 
BRANCH   5   6
ATOM      6  N   UNL d   1      30.434 -16.953  -1.380  0.00  0.00    -0.381 N 
ATOM      7  H   UNL d   1      31.251 -17.442  -1.028  0.00  0.00     0.160 HD
BRANCH   6   8
ATOM      8  C   UNL d   1      30.299 -16.670  -2.742  0.00  0.00     0.029 A 
ATOM      9  C   UNL d   1      31.287 -17.128  -3.615  0.00  0.00     0.031 A 
ATOM     10  C   UNL d   1      31.248 -16.846  -4.974  0.00  0.00     0.027 A 
ATOM     11  C   UNL d   1      30.225 -16.069  -5.517  0.00  0.00     0.049 A 
ATOM     12 CL   UNL d   1      30.367 -15.806  -7.222  0.00  0.00    -0.083 Cl
ATOM     13  C   UNL d   1      29.203 -15.573  -4.692  0.00  0.00     0.055 A 
ATOM     14  C   UNL d   1      29.259 -15.891  -3.293  0.00  0.00     0.048 A 
BRANCH  13  15
ATOM     15  C   UNL d   1      28.053 -14.720  -5.189  0.00  0.00     0.253 C 
ATOM     16  O   UNL d   1      27.238 -15.212  -5.971  0.00  0.00    -0.268 OA
ATOM     17  N   UNL d   1      27.940 -13.404  -4.753  0.00  0.00    -0.352 N 
ATOM     18  H   UNL d   1      28.717 -13.005  -4.238  0.00  0.00     0.163 HD
BRANCH  17  19
ATOM     19  C   UNL d   1      26.984 -12.456  -5.322  0.00  0.00     0.084 C 
ATOM     20  C   UNL d   1      26.685 -11.263  -4.393  0.00  0.00     0.025 C 
ATOM     21  C   UNL d   1      25.675 -10.307  -5.044  0.00  0.00     0.002 C 
ATOM     22  C   UNL d   1      26.155  -9.820  -6.409  0.00  0.00     0.000 C 
ATOM     23  C   UNL d   1      26.488 -10.996  -7.322  0.00  0.00     0.002 C 
ATOM     24  C   UNL d   1      27.496 -11.939  -6.673  0.00  0.00     0.025 C 
ENDBRANCH  17  19
ENDBRANCH  13  15
ENDBRANCH   6   8
ENDBRANCH   5   6
ENDBRANCH   2   5
BRANCH   3  25
ATOM     25  C   UNL d   1      26.324 -16.392  -0.078  0.00  0.00     0.034 A 
ATOM     26  C   UNL d   1      25.980 -17.589   0.552  0.00  0.00     0.030 A 
ATOM     27  C   UNL d   1      24.875 -18.337   0.088  0.00  0.00     0.019 A 
ATOM     28  C   UNL d   1      24.077 -17.871  -0.975  0.00  0.00     0.032 A 
ATOM     29  C   UNL d   1      24.469 -16.704  -1.623  0.00  0.00     0.019 A 
ATOM     30  C   UNL d   1      25.593 -16.002  -1.197  0.00  0.00     0.030 A 
BRANCH  28  31
ATOM     31  C   UNL d   1      22.839 -18.613  -1.382  0.00  0.00     0.251 C 
ATOM     32  O   UNL d   1      22.866 -19.317  -2.395  0.00  0.00    -0.268 OA
ATOM     33  N   UNL d   1      21.705 -18.495  -0.588  0.00  0.00    -0.354 N 
ATOM     34  H   UNL d   1      21.733 -18.033   0.309  0.00  0.00     0.162 HD
BRANCH  33  35
ATOM     35  C   UNL d   1      20.503 -19.260  -0.882  0.00  0.00     0.155 C 
BRANCH  35  36
ATOM     36  C   UNL d   1      20.030 -20.237   0.211  0.00  0.00     0.139 C 
ATOM     37  C   UNL d   1      18.558 -20.610   0.203  0.00  0.00     0.035 C 
ATOM     38  C   UNL d   1      18.386 -21.191   1.589  0.00  0.00     0.029 C 
ATOM     39  C   UNL d   1      19.303 -20.324   2.429  0.00  0.00     0.168 C 
ATOM     40  O   UNL d   1      20.293 -19.761   1.546  0.00  0.00    -0.384 OA
ENDBRANCH  35  36
ENDBRANCH  33  35
ENDBRANCH  28  31
ENDBRANCH   3  25
TORSDOF 9
ENDMDL
MODEL 3
REMARK VINA RESULT:    -9.500      6.500     10.087
REMARK INTER + INTRA:         -13.858
REMARK INTER:                 -12.184
REMARK INTRA:                  -1.674
REMARK CONF_INDEPENDENT:        2.685
REMARK UNBOUND:                -1.674
REMARK  9 active torsions:
REMARK  status: ('A' for Active; 'I' for Inactive)
REMARK    1  A    between atoms: C_2  and  C_3 
REMARK       I    between atoms: C_2  and  N_21 
REMARK    2  A    between atoms: C_3  and  N_4 
REMARK    3  A    between atoms: N_4  and  C_5 
REMARK    4  A    between atoms: C_10  and  C_11 
REMARK       I    between atoms: C_11  and  N_13 
REMARK    5  A    between atoms: N_13  and  C_14 
REMARK    6  A    between atoms: N_21  and  C_22 
REMARK    7  A    between atoms: C_25  and  C_26 
REMARK       I    between atoms: C_26  and  N_28 
REMARK    8  A    between atoms: N_28  and  C_29 
REMARK    9  A    between atoms: C_29  and  C_30 
ROOT
ATOM      1  O   UNL d   1      27.674 -10.665  -2.966  0.00  0.00    -0.271 OA
ATOM      2  C   UNL d   1      26.948 -11.643  -2.771  0.00  0.00     0.239 C 
ATOM      3  N   UNL d   1      27.367 -12.635  -1.895  0.00  0.00    -0.326 N 
ATOM      4  H   UNL d   1      28.204 -12.397  -1.373  0.00  0.00     0.169 HD
ENDROOT
BRANCH   2   5
ATOM      5  C   UNL d   1      25.542 -11.759  -3.396  0.00  0.00     0.223 C 
BRANCH   5   6
ATOM      6  N   UNL d   1      25.534 -11.789  -4.872  0.00  0.00    -0.381 N 
ATOM      7  H   UNL d   1      24.895 -11.138  -5.318  0.00  0.00     0.160 HD
BRANCH   6   8
ATOM      8  C   UNL d   1      26.717 -12.181  -5.506  0.00  0.00     0.029 A 
ATOM      9  C   UNL d   1      27.225 -11.367  -6.520  0.00  0.00     0.031 A 
ATOM     10  C   UNL d   1      28.368 -11.713  -7.229  0.00  0.00     0.027 A 
ATOM     11  C   UNL d   1      29.042 -12.907  -6.969  0.00  0.00     0.049 A 
ATOM     12 CL   UNL d   1      30.425 -13.172  -7.975  0.00  0.00    -0.083 Cl
ATOM     13  C   UNL d   1      28.577 -13.773  -5.965  0.00  0.00     0.055 A 
ATOM     14  C   UNL d   1      27.403 -13.385  -5.237  0.00  0.00     0.048 A 
BRANCH  13  15
ATOM     15  C   UNL d   1      29.238 -15.089  -5.611  0.00  0.00     0.253 C 
ATOM     16  O   UNL d   1      29.278 -15.442  -4.431  0.00  0.00    -0.268 OA
ATOM     17  N   UNL d   1      29.786 -15.872  -6.622  0.00  0.00    -0.352 N 
ATOM     18  H   UNL d   1      29.865 -15.467  -7.548  0.00  0.00     0.163 HD
BRANCH  17  19
ATOM     19  C   UNL d   1      30.606 -17.053  -6.359  0.00  0.00     0.084 C 
ATOM     20  C   UNL d   1      30.032 -17.956  -5.248  0.00  0.00     0.025 C 
ATOM     21  C   UNL d   1      30.938 -19.175  -5.017  0.00  0.00     0.002 C 
ATOM     22  C   UNL d   1      31.153 -19.972  -6.302  0.00  0.00     0.000 C 
ATOM     23  C   UNL d   1      31.685 -19.077  -7.417  0.00  0.00     0.002 C 
ATOM     24  C   UNL d   1      30.780 -17.871  -7.646  0.00  0.00     0.025 C 
ENDBRANCH  17  19
ENDBRANCH  13  15
ENDBRANCH   6   8
ENDBRANCH   5   6
ENDBRANCH   2   5
BRANCH   3  25
ATOM     25  C   UNL d   1      26.765 -13.883  -1.639  0.00  0.00     0.034 A 
ATOM     26  C   UNL d   1      26.594 -14.340  -0.332  0.00  0.00     0.030 A 
ATOM     27  C   UNL d   1      26.003 -15.602  -0.099  0.00  0.00     0.019 A 
ATOM     28  C   UNL d   1      25.535 -16.393  -1.165  0.00  0.00     0.032 A 
ATOM     29  C   UNL d   1      25.765 -15.945  -2.462  0.00  0.00     0.019 A 
ATOM     30  C   UNL d   1      26.400 -14.725  -2.686  0.00  0.00     0.030 A 
BRANCH  28  31
ATOM     31  C   UNL d   1      24.804 -17.676  -0.901  0.00  0.00     0.251 C 
ATOM     32  O   UNL d   1      25.284 -18.488  -0.105  0.00  0.00    -0.268 OA
ATOM     33  N   UNL d   1      23.596 -17.895  -1.550  0.00  0.00    -0.354 N 
ATOM     34  H   UNL d   1      23.144 -17.170  -2.087  0.00  0.00     0.162 HD
BRANCH  33  35
ATOM     35  C   UNL d   1      22.798 -19.079  -1.266  0.00  0.00     0.155 C 
BRANCH  35  36
ATOM     36  C   UNL d   1      21.361 -18.832  -0.769  0.00  0.00     0.139 C 
ATOM     37  C   UNL d   1      21.018 -19.356   0.614  0.00  0.00     0.035 C 
ATOM     38  C   UNL d   1      19.506 -19.326   0.582  0.00  0.00     0.029 C 
ATOM     39  C   UNL d   1      19.196 -19.705  -0.853  0.00  0.00     0.168 C 
ATOM     40  O   UNL d   1      20.358 -19.386  -1.644  0.00  0.00    -0.384 OA
ENDBRANCH  35  36
ENDBRANCH  33  35
ENDBRANCH  28  31
ENDBRANCH   3  25
TORSDOF 9
ENDMDL
MODEL 4
REMARK VINA RESULT:    -9.296      6.851     10.538
REMARK INTER + INTRA:         -13.894
REMARK INTER:                 -11.981
REMARK INTRA:                  -1.913
REMARK CONF_INDEPENDENT:        2.685
REMARK UNBOUND:                -1.913
REMARK  9 active torsions:
REMARK  status: ('A' for Active; 'I' for Inactive)
REMARK    1  A    between atoms: C_2  and  C_3 
REMARK       I    between atoms: C_2  and  N_21 
REMARK    2  A    between atoms: C_3  and  N_4 
REMARK    3  A    between atoms: N_4  and  C_5 
REMARK    4  A    between atoms: C_10  and  C_11 
REMARK       I    between atoms: C_11  and  N_13 
REMARK    5  A    between atoms: N_13  and  C_14 
REMARK    6  A    between atoms: N_21  and  C_22 
REMARK    7  A    between atoms: C_25  and  C_26 
REMARK       I    between atoms: C_26  and  N_28 
REMARK    8  A    between atoms: N_28  and  C_29 
REMARK    9  A    between atoms: C_29  and  C_30 
ROOT
ATOM      1  O   UNL d   1      25.575 -11.666  -3.486  0.00  0.00    -0.271 OA
ATOM      2  C   UNL d   1      26.033 -12.765  -3.806  0.00  0.00     0.239 C 
ATOM      3  N   UNL d   1      27.403 -12.905  -3.982  0.00  0.00    -0.326 N 
ATOM      4  H   UNL d   1      27.940 -12.093  -3.695  0.00  0.00     0.169 HD
ENDROOT
BRANCH   2   5
ATOM      5  C   UNL d   1      25.145 -14.021  -3.926  0.00  0.00     0.223 C 
BRANCH   5   6
ATOM      6  N   UNL d   1      24.277 -14.265  -2.756  0.00  0.00    -0.381 N 
ATOM      7  H   UNL d   1      23.300 -14.019  -2.878  0.00  0.00     0.160 HD
BRANCH   6   8
ATOM      8  C   UNL d   1      24.654 -15.295  -1.889  0.00  0.00     0.029 A 
ATOM      9  C   UNL d   1      25.948 -15.281  -1.367  0.00  0.00     0.031 A 
ATOM     10  C   UNL d   1      26.412 -16.294  -0.538  0.00  0.00     0.027 A 
ATOM     11  C   UNL d   1      25.602 -17.384  -0.213  0.00  0.00     0.049 A 
ATOM     12 CL   UNL d   1      26.368 -18.553   0.807  0.00  0.00    -0.083 Cl
ATOM     13  C   UNL d   1      24.291 -17.460  -0.711  0.00  0.00     0.055 A 
ATOM     14  C   UNL d   1      23.832 -16.393  -1.553  0.00  0.00     0.048 A 
BRANCH  13  15
ATOM     15  C   UNL d   1      23.340 -18.601  -0.416  0.00  0.00     0.253 C 
ATOM     16  O   UNL d   1      23.543 -19.700  -0.936  0.00  0.00    -0.268 OA
ATOM     17  N   UNL d   1      22.260 -18.389   0.433  0.00  0.00    -0.352 N 
ATOM     18  H   UNL d   1      22.051 -17.435   0.707  0.00  0.00     0.163 HD
BRANCH  17  19
ATOM     19  C   UNL d   1      21.190 -19.367   0.622  0.00  0.00     0.084 C 
ATOM     20  C   UNL d   1      20.592 -19.347   2.043  0.00  0.00     0.025 C 
ATOM     21  C   UNL d   1      19.479 -20.396   2.179  0.00  0.00     0.002 C 
ATOM     22  C   UNL d   1      18.386 -20.200   1.131  0.00  0.00     0.000 C 
ATOM     23  C   UNL d   1      18.974 -20.182  -0.276  0.00  0.00     0.002 C 
ATOM     24  C   UNL d   1      20.076 -19.134  -0.407  0.00  0.00     0.025 C 
ENDBRANCH  17  19
ENDBRANCH  13  15
ENDBRANCH   6   8
ENDBRANCH   5   6
ENDBRANCH   2   5
BRANCH   3  25
ATOM     25  C   UNL d   1      28.109 -14.020  -4.476  0.00  0.00     0.034 A 
ATOM     26  C   UNL d   1      28.555 -14.057  -5.798  0.00  0.00     0.030 A 
ATOM     27  C   UNL d   1      29.247 -15.191  -6.277  0.00  0.00     0.019 A 
ATOM     28  C   UNL d   1      29.543 -16.274  -5.426  0.00  0.00     0.032 A 
ATOM     29  C   UNL d   1      29.043 -16.241  -4.129  0.00  0.00     0.019 A 
ATOM     30  C   UNL d   1      28.311 -15.144  -3.680  0.00  0.00     0.030 A 
BRANCH  28  31
ATOM     31  C   UNL d   1      30.379 -17.420  -5.913  0.00  0.00     0.251 C 
ATOM     32  O   UNL d   1      31.359 -17.188  -6.627  0.00  0.00    -0.268 OA
ATOM     33  N   UNL d   1      30.029 -18.706  -5.523  0.00  0.00    -0.354 N 
ATOM     34  H   UNL d   1      29.316 -18.875  -4.830  0.00  0.00     0.162 HD
BRANCH  33  35
ATOM     35  C   UNL d   1      30.854 -19.848  -5.889  0.00  0.00     0.155 C 
BRANCH  35  36
ATOM     36  C   UNL d   1      31.674 -20.492  -4.755  0.00  0.00     0.139 C 
ATOM     37  C   UNL d   1      31.487 -21.983  -4.539  0.00  0.00     0.035 C 
ATOM     38  C   UNL d   1      32.071 -22.162  -3.155  0.00  0.00     0.029 C 
ATOM     39  C   UNL d   1      31.661 -20.883  -2.452  0.00  0.00     0.168 C 
ATOM     40  O   UNL d   1      31.428 -19.888  -3.469  0.00  0.00    -0.384 OA
ENDBRANCH  35  36
ENDBRANCH  33  35
ENDBRANCH  28  31
ENDBRANCH   3  25
TORSDOF 9
ENDMDL
