MODEL 1
REMARK VINA RESULT:    -9.308      0.000      0.000
REMARK INTER + INTRA:         -13.240
REMARK INTER:                 -11.396
REMARK INTRA:                  -1.844
REMARK CONF_INDEPENDENT:        2.088
REMARK UNBOUND:                -1.844
REMARK  7 active torsions:
REMARK  status: ('A' for Active; 'I' for Inactive)
REMARK    1  A    between atoms: C_2  and  C_3 
REMARK       I    between atoms: C_2  and  N_14 
REMARK    2  A    between atoms: C_3  and  C_4 
REMARK    3  A    between atoms: C_4  and  C_5 
REMARK    4  A    between atoms: N_14  and  N_15 
REMARK    5  A    between atoms: C_25  and  S_26 
REMARK    6  A    between atoms: S_26  and  C_27 
REMARK    7  A    between atoms: C_27  and  C_28 
ROOT
ATOM      1  N   UNL d   1      25.175 -15.264  -2.606  0.00  0.00    -0.129 NA
ATOM      2  C   UNL d   1      25.232 -14.617  -3.870  0.00  0.00     0.255 C 
ATOM      3  O   UNL d   1      24.340 -13.961  -4.318  0.00  0.00    -0.272 OA
ATOM      4  C   UNL d   1      26.647 -14.511  -4.390  0.00  0.00     0.049 C 
ATOM      5  C   UNL d   1      27.492 -15.575  -4.682  0.00  0.00     0.018 C 
ATOM      6  C   UNL d   1      28.909 -15.395  -4.720  0.00  0.00     0.001 C 
ATOM      7  C   UNL d   1      29.494 -14.160  -4.463  0.00  0.00     0.002 C 
ATOM      8  C   UNL d   1      28.642 -13.144  -4.086  0.00  0.00     0.024 C 
ATOM      9  C   UNL d   1      27.317 -13.499  -3.731  0.00  0.00     0.025 C 
ATOM     10  N   UNL d   1      27.023 -13.593  -2.246  0.00  0.00    -0.265 NA
ATOM     11  C   UNL d   1      26.341 -14.904  -1.784  0.00  0.00     0.227 C 
ATOM     12  H   UNL d   1      26.251 -12.903  -2.216  0.00  0.00     0.130 HD
ENDROOT
BRANCH   1  13
ATOM     13  N   UNL d   1      23.834 -15.224  -1.940  0.00  0.00    -0.280 N 
ATOM     14  C   UNL d   1      23.201 -16.233  -1.209  0.00  0.00     0.232 C 
ATOM     15  O   UNL d   1      21.998 -16.166  -0.954  0.00  0.00    -0.272 OA
ATOM     16  H   UNL d   1      23.183 -14.552  -2.358  0.00  0.00     0.184 HD
BRANCH  14  17
ATOM     17  C   UNL d   1      24.021 -17.360  -0.635  0.00  0.00     0.108 C 
BRANCH  17  18
ATOM     18  C   UNL d   1      23.326 -18.305   0.366  0.00  0.00     0.046 C 
BRANCH  18  19
ATOM     19  C   UNL d   1      22.020 -18.863  -0.155  0.00  0.00    -0.050 A 
ATOM     20  C   UNL d   1      20.966 -19.328   0.532  0.00  0.00    -0.006 A 
ATOM     21  C   UNL d   1      20.642 -19.451   1.917  0.00  0.00     0.014 A 
ATOM     22  C   UNL d   1      19.992 -19.761  -0.492  0.00  0.00     0.038 A 
ATOM     23  C   UNL d   1      19.488 -20.022   2.279  0.00  0.00     0.001 A 
ATOM     24  C   UNL d   1      18.522 -20.462   1.294  0.00  0.00     0.002 A 
ATOM     25  C   UNL d   1      18.716 -20.348  -0.034  0.00  0.00     0.030 A 
ATOM     26  N   UNL d   1      20.416 -19.553  -1.679  0.00  0.00    -0.385 N 
ATOM     27  C   UNL d   1      21.765 -18.950  -1.640  0.00  0.00     0.155 A 
ATOM     28  H   UNL d   1      19.877 -19.779  -2.512  0.00  0.00     0.160 HD
ENDBRANCH  18  19
ENDBRANCH  17  18
ENDBRANCH  14  17
ENDBRANCH   1  13
BRANCH  11  29
ATOM     29  S   UNL d   1      27.241 -16.511  -1.312  0.00  0.00    -0.127 SA
BRANCH  29  30
ATOM     30  C   UNL d   1      28.033 -16.281   0.264  0.00  0.00     0.115 C 
BRANCH  30  31
ATOM     31  C   UNL d   1      28.218 -14.932   0.951  0.00  0.00    -0.046 A 
ATOM     32  C   UNL d   1      27.037 -14.205   1.273  0.00  0.00     0.008 A 
ATOM     33  C   UNL d   1      27.060 -12.964   1.914  0.00  0.00     0.004 A 
ATOM     34  C   UNL d   1      28.282 -12.376   2.198  0.00  0.00     0.042 A 
ATOM     35  C   UNL d   1      29.450 -13.073   1.897  0.00  0.00     0.117 A 
ATOM     36  F   UNL d   1      30.632 -12.501   2.170  0.00  0.00    -0.206 F 
ATOM     37  C   UNL d   1      29.430 -14.352   1.317  0.00  0.00     0.050 A 
ENDBRANCH  30  31
ENDBRANCH  29  30
ENDBRANCH  11  29
TORSDOF 7
ENDMDL
MODEL 2
REMARK VINA RESULT:    -8.849      4.245      6.633
REMARK INTER + INTRA:         -12.790
REMARK INTER:                 -10.937
REMARK INTRA:                  -1.853
REMARK CONF_INDEPENDENT:        2.088
REMARK UNBOUND:                -1.853
REMARK  7 active torsions:
REMARK  status: ('A' for Active; 'I' for Inactive)
REMARK    1  A    between atoms: C_2  and  C_3 
REMARK       I    between atoms: C_2  and  N_14 
REMARK    2  A    between atoms: C_3  and  C_4 
REMARK    3  A    between atoms: C_4  and  C_5 
REMARK    4  A    between atoms: N_14  and  N_15 
REMARK    5  A    between atoms: C_25  and  S_26 
REMARK    6  A    between atoms: S_26  and  C_27 
REMARK    7  A    between atoms: C_27  and  C_28 
ROOT
ATOM      1  N   UNL d   1      26.528 -12.677  -5.771  0.00  0.00    -0.129 NA
ATOM      2  C   UNL d   1      26.562 -11.379  -6.348  0.00  0.00     0.255 C 
ATOM      3  O   UNL d   1      25.949 -10.448  -5.920  0.00  0.00    -0.272 OA
ATOM      4  C   UNL d   1      27.736 -11.206  -7.285  0.00  0.00     0.049 C 
ATOM      5  C   UNL d   1      27.971 -11.936  -8.443  0.00  0.00     0.018 C 
ATOM      6  C   UNL d   1      29.286 -12.029  -8.995  0.00  0.00     0.001 C 
ATOM      7  C   UNL d   1      30.373 -11.401  -8.397  0.00  0.00     0.002 C 
ATOM      8  C   UNL d   1      30.131 -10.761  -7.201  0.00  0.00     0.024 C 
ATOM      9  C   UNL d   1      28.896 -11.022  -6.557  0.00  0.00     0.025 C 
ATOM     10  N   UNL d   1      28.932 -12.021  -5.418  0.00  0.00    -0.265 NA
ATOM     11  C   UNL d   1      27.889 -13.164  -5.500  0.00  0.00     0.227 C 
ATOM     12  H   UNL d   1      28.546 -11.403  -4.682  0.00  0.00     0.130 HD
ENDROOT
BRANCH   1  13
ATOM     13  N   UNL d   1      25.513 -12.854  -4.684  0.00  0.00    -0.280 N 
ATOM     14  C   UNL d   1      25.138 -14.032  -4.033  0.00  0.00     0.232 C 
ATOM     15  O   UNL d   1      24.108 -14.080  -3.360  0.00  0.00    -0.272 OA
ATOM     16  H   UNL d   1      24.785 -12.132  -4.674  0.00  0.00     0.184 HD
BRANCH  14  17
ATOM     17  C   UNL d   1      26.060 -15.225  -4.067  0.00  0.00     0.108 C 
BRANCH  17  18
ATOM     18  C   UNL d   1      27.322 -15.172  -3.182  0.00  0.00     0.046 C 
BRANCH  18  19
ATOM     19  C   UNL d   1      27.253 -16.105  -1.994  0.00  0.00    -0.050 A 
ATOM     20  C   UNL d   1      26.178 -16.673  -1.428  0.00  0.00    -0.006 A 
ATOM     21  C   UNL d   1      24.777 -16.668  -1.698  0.00  0.00     0.014 A 
ATOM     22  C   UNL d   1      26.705 -17.465  -0.296  0.00  0.00     0.038 A 
ATOM     23  C   UNL d   1      23.942 -17.322  -0.883  0.00  0.00     0.001 A 
ATOM     24  C   UNL d   1      24.434 -18.098   0.237  0.00  0.00     0.002 A 
ATOM     25  C   UNL d   1      25.741 -18.202   0.547  0.00  0.00     0.030 A 
ATOM     26  N   UNL d   1      27.977 -17.394  -0.209  0.00  0.00    -0.385 N 
ATOM     27  C   UNL d   1      28.514 -16.522  -1.276  0.00  0.00     0.155 A 
ATOM     28  H   UNL d   1      28.517 -17.882   0.503  0.00  0.00     0.160 HD
ENDBRANCH  18  19
ENDBRANCH  17  18
ENDBRANCH  14  17
ENDBRANCH   1  13
BRANCH  11  29
ATOM     29  S   UNL d   1      28.119 -14.805  -6.432  0.00  0.00    -0.127 SA
BRANCH  29  30
ATOM     30  C   UNL d   1      29.805 -15.339  -6.241  0.00  0.00     0.115 C 
BRANCH  30  31
ATOM     31  C   UNL d   1      30.244 -16.797  -6.137  0.00  0.00    -0.046 A 
ATOM     32  C   UNL d   1      30.062 -17.437  -4.878  0.00  0.00     0.008 A 
ATOM     33  C   UNL d   1      30.407 -18.772  -4.649  0.00  0.00     0.004 A 
ATOM     34  C   UNL d   1      31.010 -19.495  -5.664  0.00  0.00     0.042 A 
ATOM     35  C   UNL d   1      31.191 -18.890  -6.906  0.00  0.00     0.117 A 
ATOM     36  F   UNL d   1      31.778 -19.591  -7.886  0.00  0.00    -0.206 F 
ATOM     37  C   UNL d   1      30.781 -17.571  -7.163  0.00  0.00     0.050 A 
ENDBRANCH  30  31
ENDBRANCH  29  30
ENDBRANCH  11  29
TORSDOF 7
ENDMDL
MODEL 3
REMARK VINA RESULT:    -8.645      4.625      8.742
REMARK INTER + INTRA:         -12.782
REMARK INTER:                 -10.733
REMARK INTRA:                  -2.049
REMARK CONF_INDEPENDENT:        2.088
REMARK UNBOUND:                -2.049
REMARK  7 active torsions:
REMARK  status: ('A' for Active; 'I' for Inactive)
REMARK    1  A    between atoms: C_2  and  C_3 
REMARK       I    between atoms: C_2  and  N_14 
REMARK    2  A    between atoms: C_3  and  C_4 
REMARK    3  A    between atoms: C_4  and  C_5 
REMARK    4  A    between atoms: N_14  and  N_15 
REMARK    5  A    between atoms: C_25  and  S_26 
REMARK    6  A    between atoms: S_26  and  C_27 
REMARK    7  A    between atoms: C_27  and  C_28 
ROOT
ATOM      1  N   UNL d   1      28.921 -14.641  -5.821  0.00  0.00    -0.129 NA
ATOM      2  C   UNL d   1      28.154 -13.497  -6.169  0.00  0.00     0.255 C 
ATOM      3  O   UNL d   1      28.022 -13.103  -7.289  0.00  0.00    -0.272 OA
ATOM      4  C   UNL d   1      27.219 -13.081  -5.056  0.00  0.00     0.049 C 
ATOM      5  C   UNL d   1      27.595 -12.680  -3.780  0.00  0.00     0.018 C 
ATOM      6  C   UNL d   1      26.675 -12.752  -2.689  0.00  0.00     0.001 C 
ATOM      7  C   UNL d   1      25.379 -13.229  -2.859  0.00  0.00     0.002 C 
ATOM      8  C   UNL d   1      25.060 -13.707  -4.112  0.00  0.00     0.024 C 
ATOM      9  C   UNL d   1      26.126 -13.926  -5.020  0.00  0.00     0.025 C 
ATOM     10  N   UNL d   1      26.600 -15.359  -5.164  0.00  0.00    -0.265 NA
ATOM     11  C   UNL d   1      28.126 -15.575  -5.009  0.00  0.00     0.227 C 
ATOM     12  H   UNL d   1      26.452 -15.449  -6.184  0.00  0.00     0.130 HD
ENDROOT
BRANCH   1  13
ATOM     13  N   UNL d   1      29.719 -15.227  -6.946  0.00  0.00    -0.280 N 
ATOM     14  C   UNL d   1      30.824 -16.079  -6.871  0.00  0.00     0.232 C 
ATOM     15  O   UNL d   1      31.547 -16.261  -7.851  0.00  0.00    -0.272 OA
ATOM     16  H   UNL d   1      29.686 -14.675  -7.809  0.00  0.00     0.184 HD
BRANCH  14  17
ATOM     17  C   UNL d   1      31.070 -16.866  -5.608  0.00  0.00     0.108 C 
BRANCH  17  18
ATOM     18  C   UNL d   1      30.145 -18.068  -5.329  0.00  0.00     0.046 C 
BRANCH  18  19
ATOM     19  C   UNL d   1      30.704 -19.377  -5.839  0.00  0.00    -0.050 A 
ATOM     20  C   UNL d   1      31.059 -19.716  -7.087  0.00  0.00    -0.006 A 
ATOM     21  C   UNL d   1      31.089 -19.040  -8.343  0.00  0.00     0.014 A 
ATOM     22  C   UNL d   1      31.514 -21.119  -6.997  0.00  0.00     0.038 A 
ATOM     23  C   UNL d   1      31.463 -19.701  -9.444  0.00  0.00     0.001 A 
ATOM     24  C   UNL d   1      31.906 -21.080  -9.382  0.00  0.00     0.002 A 
ATOM     25  C   UNL d   1      31.956 -21.789  -8.238  0.00  0.00     0.030 A 
ATOM     26  N   UNL d   1      31.459 -21.568  -5.802  0.00  0.00    -0.385 N 
ATOM     27  C   UNL d   1      30.939 -20.528  -4.890  0.00  0.00     0.155 A 
ATOM     28  H   UNL d   1      31.742 -22.512  -5.546  0.00  0.00     0.160 HD
ENDBRANCH  18  19
ENDBRANCH  17  18
ENDBRANCH  14  17
ENDBRANCH   1  13
BRANCH  11  29
ATOM     29  S   UNL d   1      29.043 -15.847  -3.366  0.00  0.00    -0.127 SA
BRANCH  29  30
ATOM     30  C   UNL d   1      27.955 -15.416  -2.026  0.00  0.00     0.115 C 
BRANCH  30  31
ATOM     31  C   UNL d   1      26.914 -16.354  -1.422  0.00  0.00    -0.046 A 
ATOM     32  C   UNL d   1      27.334 -17.167  -0.331  0.00  0.00     0.008 A 
ATOM     33  C   UNL d   1      26.480 -18.059   0.323  0.00  0.00     0.004 A 
ATOM     34  C   UNL d   1      25.184 -18.213  -0.140  0.00  0.00     0.042 A 
ATOM     35  C   UNL d   1      24.750 -17.422  -1.201  0.00  0.00     0.117 A 
ATOM     36  F   UNL d   1      23.496 -17.573  -1.650  0.00  0.00    -0.206 F 
ATOM     37  C   UNL d   1      25.583 -16.472  -1.817  0.00  0.00     0.050 A 
ENDBRANCH  30  31
ENDBRANCH  29  30
ENDBRANCH  11  29
TORSDOF 7
ENDMDL
MODEL 4
REMARK VINA RESULT:    -8.483      2.963      7.922
REMARK INTER + INTRA:         -12.933
REMARK INTER:                 -10.571
REMARK INTRA:                  -2.361
REMARK CONF_INDEPENDENT:        2.088
REMARK UNBOUND:                -2.361
REMARK  7 active torsions:
REMARK  status: ('A' for Active; 'I' for Inactive)
REMARK    1  A    between atoms: C_2  and  C_3 
REMARK       I    between atoms: C_2  and  N_14 
REMARK    2  A    between atoms: C_3  and  C_4 
REMARK    3  A    between atoms: C_4  and  C_5 
REMARK    4  A    between atoms: N_14  and  N_15 
REMARK    5  A    between atoms: C_25  and  S_26 
REMARK    6  A    between atoms: S_26  and  C_27 
REMARK    7  A    between atoms: C_27  and  C_28 
ROOT
ATOM      1  N   UNL d   1      26.616 -14.041  -1.454  0.00  0.00    -0.129 NA
ATOM      2  C   UNL d   1      27.313 -12.817  -1.277  0.00  0.00     0.255 C 
ATOM      3  O   UNL d   1      26.894 -11.758  -1.639  0.00  0.00    -0.272 OA
ATOM      4  C   UNL d   1      28.417 -12.935  -0.251  0.00  0.00     0.049 C 
ATOM      5  C   UNL d   1      29.521 -13.774  -0.333  0.00  0.00     0.018 C 
ATOM      6  C   UNL d   1      30.241 -14.155   0.841  0.00  0.00     0.001 C 
ATOM      7  C   UNL d   1      29.864 -13.709   2.103  0.00  0.00     0.002 C 
ATOM      8  C   UNL d   1      28.712 -12.954   2.168  0.00  0.00     0.024 C 
ATOM      9  C   UNL d   1      27.880 -12.929   1.021  0.00  0.00     0.025 C 
ATOM     10  N   UNL d   1      26.666 -13.837   1.054  0.00  0.00    -0.265 NA
ATOM     11  C   UNL d   1      26.492 -14.761  -0.177  0.00  0.00     0.227 C 
ATOM     12  H   UNL d   1      25.947 -13.108   0.905  0.00  0.00     0.130 HD
ENDROOT
BRANCH   1  13
ATOM     13  N   UNL d   1      25.385 -13.946  -2.303  0.00  0.00    -0.280 N 
ATOM     14  C   UNL d   1      25.177 -14.458  -3.586  0.00  0.00     0.232 C 
ATOM     15  O   UNL d   1      24.228 -14.075  -4.271  0.00  0.00    -0.272 OA
ATOM     16  H   UNL d   1      24.791 -13.140  -2.083  0.00  0.00     0.184 HD
BRANCH  14  17
ATOM     17  C   UNL d   1      26.060 -15.570  -4.094  0.00  0.00     0.108 C 
BRANCH  17  18
ATOM     18  C   UNL d   1      27.569 -15.279  -4.215  0.00  0.00     0.046 C 
BRANCH  18  19
ATOM     19  C   UNL d   1      27.919 -14.464  -5.440  0.00  0.00    -0.050 A 
ATOM     20  C   UNL d   1      27.527 -13.225  -5.771  0.00  0.00    -0.006 A 
ATOM     21  C   UNL d   1      26.717 -12.227  -5.151  0.00  0.00     0.014 A 
ATOM     22  C   UNL d   1      28.158 -12.952  -7.079  0.00  0.00     0.038 A 
ATOM     23  C   UNL d   1      26.476 -11.077  -5.792  0.00  0.00     0.001 A 
ATOM     24  C   UNL d   1      27.076 -10.790  -7.079  0.00  0.00     0.002 A 
ATOM     25  C   UNL d   1      27.890 -11.649  -7.722  0.00  0.00     0.030 A 
ATOM     26  N   UNL d   1      28.877 -13.928  -7.481  0.00  0.00    -0.385 N 
ATOM     27  C   UNL d   1      28.835 -15.031  -6.498  0.00  0.00     0.155 A 
ATOM     28  H   UNL d   1      29.397 -13.916  -8.356  0.00  0.00     0.160 HD
ENDBRANCH  18  19
ENDBRANCH  17  18
ENDBRANCH  14  17
ENDBRANCH   1  13
BRANCH  11  29
ATOM     29  S   UNL d   1      27.286 -16.475  -0.393  0.00  0.00    -0.127 SA
BRANCH  29  30
ATOM     30  C   UNL d   1      26.115 -17.716   0.113  0.00  0.00     0.115 C 
BRANCH  30  31
ATOM     31  C   UNL d   1      24.631 -17.698  -0.238  0.00  0.00    -0.046 A 
ATOM     32  C   UNL d   1      23.953 -18.950  -0.237  0.00  0.00     0.008 A 
ATOM     33  C   UNL d   1      22.591 -19.077  -0.527  0.00  0.00     0.004 A 
ATOM     34  C   UNL d   1      21.874 -17.950  -0.894  0.00  0.00     0.042 A 
ATOM     35  C   UNL d   1      22.516 -16.714  -0.895  0.00  0.00     0.117 A 
ATOM     36  F   UNL d   1      21.821 -15.625  -1.253  0.00  0.00    -0.206 F 
ATOM     37  C   UNL d   1      23.867 -16.572  -0.536  0.00  0.00     0.050 A 
ENDBRANCH  30  31
ENDBRANCH  29  30
ENDBRANCH  11  29
TORSDOF 7
ENDMDL
MODEL 5
REMARK VINA RESULT:    -8.290      3.465      5.901
REMARK INTER + INTRA:         -12.976
REMARK INTER:                 -10.378
REMARK INTRA:                  -2.598
REMARK CONF_INDEPENDENT:        2.088
REMARK UNBOUND:                -2.598
REMARK  7 active torsions:
REMARK  status: ('A' for Active; 'I' for Inactive)
REMARK    1  A    between atoms: C_2  and  C_3 
REMARK       I    between atoms: C_2  and  N_14 
REMARK    2  A    between atoms: C_3  and  C_4 
REMARK    3  A    between atoms: C_4  and  C_5 
REMARK    4  A    between atoms: N_14  and  N_15 
REMARK    5  A    between atoms: C_25  and  S_26 
REMARK    6  A    between atoms: S_26  and  C_27 
REMARK    7  A    between atoms: C_27  and  C_28 
ROOT
ATOM      1  N   UNL d   1      26.144 -11.808  -4.734  0.00  0.00    -0.129 NA
ATOM      2  C   UNL d   1      25.929 -10.909  -5.812  0.00  0.00     0.255 C 
ATOM      3  O   UNL d   1      25.111 -11.082  -6.666  0.00  0.00    -0.272 OA
ATOM      4  C   UNL d   1      26.542  -9.552  -5.551  0.00  0.00     0.049 C 
ATOM      5  C   UNL d   1      27.892  -9.291  -5.350  0.00  0.00     0.018 C 
ATOM      6  C   UNL d   1      28.316  -8.107  -4.672  0.00  0.00     0.001 C 
ATOM      7  C   UNL d   1      27.401  -7.179  -4.187  0.00  0.00     0.002 C 
ATOM      8  C   UNL d   1      26.068  -7.505  -4.316  0.00  0.00     0.024 C 
ATOM      9  C   UNL d   1      25.753  -8.840  -4.669  0.00  0.00     0.025 C 
ATOM     10  N   UNL d   1      25.329  -9.751  -3.534  0.00  0.00    -0.265 NA
ATOM     11  C   UNL d   1      26.083 -11.101  -3.445  0.00  0.00     0.227 C 
ATOM     12  H   UNL d   1      24.405 -10.023  -3.914  0.00  0.00     0.130 HD
ENDROOT
BRANCH   1  13
ATOM     13  N   UNL d   1      25.394 -13.101  -4.836  0.00  0.00    -0.280 N 
ATOM     14  C   UNL d   1      25.689 -14.323  -4.225  0.00  0.00     0.232 C 
ATOM     15  O   UNL d   1      25.155 -15.364  -4.609  0.00  0.00    -0.272 OA
ATOM     16  H   UNL d   1      24.847 -13.196  -5.697  0.00  0.00     0.184 HD
BRANCH  14  17
ATOM     17  C   UNL d   1      26.587 -14.350  -3.014  0.00  0.00     0.108 C 
BRANCH  17  18
ATOM     18  C   UNL d   1      25.914 -14.483  -1.634  0.00  0.00     0.046 C 
BRANCH  18  19
ATOM     19  C   UNL d   1      25.759 -15.919  -1.186  0.00  0.00    -0.050 A 
ATOM     20  C   UNL d   1      24.636 -16.611  -0.941  0.00  0.00    -0.006 A 
ATOM     21  C   UNL d   1      23.241 -16.326  -1.024  0.00  0.00     0.014 A 
ATOM     22  C   UNL d   1      25.089 -17.952  -0.515  0.00  0.00     0.038 A 
ATOM     23  C   UNL d   1      22.351 -17.253  -0.649  0.00  0.00     0.001 A 
ATOM     24  C   UNL d   1      22.771 -18.571  -0.220  0.00  0.00     0.002 A 
ATOM     25  C   UNL d   1      24.062 -18.950  -0.151  0.00  0.00     0.030 A 
ATOM     26  N   UNL d   1      26.362 -18.058  -0.527  0.00  0.00    -0.385 N 
ATOM     27  C   UNL d   1      26.975 -16.783  -0.957  0.00  0.00     0.155 A 
ATOM     28  H   UNL d   1      26.854 -18.912  -0.274  0.00  0.00     0.160 HD
ENDBRANCH  18  19
ENDBRANCH  17  18
ENDBRANCH  14  17
ENDBRANCH   1  13
BRANCH  11  29
ATOM     29  S   UNL d   1      27.732 -11.388  -2.544  0.00  0.00    -0.127 SA
BRANCH  29  30
ATOM     30  C   UNL d   1      28.998 -11.708  -3.753  0.00  0.00     0.115 C 
BRANCH  30  31
ATOM     31  C   UNL d   1      28.945 -12.833  -4.783  0.00  0.00    -0.046 A 
ATOM     32  C   UNL d   1      28.636 -12.467  -6.123  0.00  0.00     0.008 A 
ATOM     33  C   UNL d   1      28.569 -13.394  -7.167  0.00  0.00     0.004 A 
ATOM     34  C   UNL d   1      28.747 -14.738  -6.886  0.00  0.00     0.042 A 
ATOM     35  C   UNL d   1      29.058 -15.117  -5.582  0.00  0.00     0.117 A 
ATOM     36  F   UNL d   1      29.228 -16.419  -5.311  0.00  0.00    -0.206 F 
ATOM     37  C   UNL d   1      29.196 -14.182  -4.543  0.00  0.00     0.050 A 
ENDBRANCH  30  31
ENDBRANCH  29  30
ENDBRANCH  11  29
TORSDOF 7
ENDMDL
MODEL 6
REMARK VINA RESULT:    -8.048      3.677      7.077
REMARK INTER + INTRA:         -13.337
REMARK INTER:                 -10.136
REMARK INTRA:                  -3.202
REMARK CONF_INDEPENDENT:        2.088
REMARK UNBOUND:                -3.202
REMARK  7 active torsions:
REMARK  status: ('A' for Active; 'I' for Inactive)
REMARK    1  A    between atoms: C_2  and  C_3 
REMARK       I    between atoms: C_2  and  N_14 
REMARK    2  A    between atoms: C_3  and  C_4 
REMARK    3  A    between atoms: C_4  and  C_5 
REMARK    4  A    between atoms: N_14  and  N_15 
REMARK    5  A    between atoms: C_25  and  S_26 
REMARK    6  A    between atoms: S_26  and  C_27 
REMARK    7  A    between atoms: C_27  and  C_28 
ROOT
ATOM      1  N   UNL d   1      28.502 -15.166  -0.834  0.00  0.00    -0.129 NA
ATOM      2  C   UNL d   1      28.285 -16.391  -1.520  0.00  0.00     0.255 C 
ATOM      3  O   UNL d   1      29.163 -17.056  -1.982  0.00  0.00    -0.272 OA
ATOM      4  C   UNL d   1      26.907 -16.953  -1.255  0.00  0.00     0.049 C 
ATOM      5  C   UNL d   1      25.701 -16.341  -1.571  0.00  0.00     0.018 C 
ATOM      6  C   UNL d   1      24.496 -16.705  -0.895  0.00  0.00     0.001 C 
ATOM      7  C   UNL d   1      24.484 -17.674   0.102  0.00  0.00     0.002 C 
ATOM      8  C   UNL d   1      25.707 -18.200   0.461  0.00  0.00     0.024 C 
ATOM      9  C   UNL d   1      26.868 -17.532  -0.001  0.00  0.00     0.025 C 
ATOM     10  N   UNL d   1      27.555 -16.616   0.992  0.00  0.00    -0.265 NA
ATOM     11  C   UNL d   1      27.848 -15.183   0.483  0.00  0.00     0.227 C 
ATOM     12  H   UNL d   1      28.486 -17.068   0.973  0.00  0.00     0.130 HD
ENDROOT
BRANCH   1  13
ATOM     13  N   UNL d   1      29.910 -14.657  -0.889  0.00  0.00    -0.280 N 
ATOM     14  C   UNL d   1      30.352 -13.368  -1.196  0.00  0.00     0.232 C 
ATOM     15  O   UNL d   1      31.534 -13.156  -1.472  0.00  0.00    -0.272 OA
ATOM     16  H   UNL d   1      30.607 -15.384  -1.077  0.00  0.00     0.184 HD
BRANCH  14  17
ATOM     17  C   UNL d   1      29.396 -12.207  -1.083  0.00  0.00     0.108 C 
BRANCH  17  18
ATOM     18  C   UNL d   1      28.979 -11.501  -2.388  0.00  0.00     0.046 C 
BRANCH  18  19
ATOM     19  C   UNL d   1      27.657 -11.993  -2.933  0.00  0.00    -0.050 A 
ATOM     20  C   UNL d   1      27.384 -13.130  -3.590  0.00  0.00    -0.006 A 
ATOM     21  C   UNL d   1      28.146 -14.269  -3.988  0.00  0.00     0.014 A 
ATOM     22  C   UNL d   1      25.939 -13.069  -3.895  0.00  0.00     0.038 A 
ATOM     23  C   UNL d   1      27.562 -15.242  -4.698  0.00  0.00     0.001 A 
ATOM     24  C   UNL d   1      26.150 -15.200  -5.016  0.00  0.00     0.002 A 
ATOM     25  C   UNL d   1      25.338 -14.191  -4.645  0.00  0.00     0.030 A 
ATOM     26  N   UNL d   1      25.396 -12.005  -3.442  0.00  0.00    -0.385 N 
ATOM     27  C   UNL d   1      26.405 -11.167  -2.762  0.00  0.00     0.155 A 
ATOM     28  H   UNL d   1      24.405 -11.795  -3.548  0.00  0.00     0.160 HD
ENDBRANCH  18  19
ENDBRANCH  17  18
ENDBRANCH  14  17
ENDBRANCH   1  13
BRANCH  11  29
ATOM     29  S   UNL d   1      26.641 -13.716   0.555  0.00  0.00    -0.127 SA
BRANCH  29  30
ATOM     30  C   UNL d   1      27.190 -12.584   1.814  0.00  0.00     0.115 C 
BRANCH  30  31
ATOM     31  C   UNL d   1      27.578 -12.990   3.232  0.00  0.00    -0.046 A 
ATOM     32  C   UNL d   1      27.780 -14.379   3.473  0.00  0.00     0.008 A 
ATOM     33  C   UNL d   1      28.152 -14.887   4.721  0.00  0.00     0.004 A 
ATOM     34  C   UNL d   1      28.270 -14.017   5.793  0.00  0.00     0.042 A 
ATOM     35  C   UNL d   1      28.084 -12.654   5.577  0.00  0.00     0.117 A 
ATOM     36  F   UNL d   1      28.197 -11.815   6.617  0.00  0.00    -0.206 F 
ATOM     37  C   UNL d   1      27.780 -12.131   4.310  0.00  0.00     0.050 A 
ENDBRANCH  30  31
ENDBRANCH  29  30
ENDBRANCH  11  29
TORSDOF 7
ENDMDL
MODEL 7
REMARK VINA RESULT:    -8.020      3.728      7.009
REMARK INTER + INTRA:         -12.933
REMARK INTER:                 -10.108
REMARK INTRA:                  -2.825
REMARK CONF_INDEPENDENT:        2.088
REMARK UNBOUND:                -2.825
REMARK  7 active torsions:
REMARK  status: ('A' for Active; 'I' for Inactive)
REMARK    1  A    between atoms: C_2  and  C_3 
REMARK       I    between atoms: C_2  and  N_14 
REMARK    2  A    between atoms: C_3  and  C_4 
REMARK    3  A    between atoms: C_4  and  C_5 
REMARK    4  A    between atoms: N_14  and  N_15 
REMARK    5  A    between atoms: C_25  and  S_26 
REMARK    6  A    between atoms: S_26  and  C_27 
REMARK    7  A    between atoms: C_27  and  C_28 
ROOT
ATOM      1  N   UNL d   1      28.560 -15.842  -0.039  0.00  0.00    -0.129 NA
ATOM      2  C   UNL d   1      28.359 -16.891  -0.975  0.00  0.00     0.255 C 
ATOM      3  O   UNL d   1      29.192 -17.701  -1.253  0.00  0.00    -0.272 OA
ATOM      4  C   UNL d   1      26.893 -17.115  -1.269  0.00  0.00     0.049 C 
ATOM      5  C   UNL d   1      26.021 -16.189  -1.829  0.00  0.00     0.018 C 
ATOM      6  C   UNL d   1      24.609 -16.310  -1.649  0.00  0.00     0.001 C 
ATOM      7  C   UNL d   1      24.056 -17.348  -0.908  0.00  0.00     0.002 C 
ATOM      8  C   UNL d   1      24.944 -18.200  -0.286  0.00  0.00     0.024 C 
ATOM      9  C   UNL d   1      26.302 -17.799  -0.225  0.00  0.00     0.025 C 
ATOM     10  N   UNL d   1      26.764 -17.198   1.088  0.00  0.00    -0.265 NA
ATOM     11  C   UNL d   1      27.497 -15.838   0.977  0.00  0.00     0.227 C 
ATOM     12  H   UNL d   1      27.533 -17.864   1.280  0.00  0.00     0.130 HD
ENDROOT
BRANCH   1  13
ATOM     13  N   UNL d   1      29.969 -15.700   0.450  0.00  0.00    -0.280 N 
ATOM     14  C   UNL d   1      31.130 -15.501  -0.301  0.00  0.00     0.232 C 
ATOM     15  O   UNL d   1      32.242 -15.676   0.199  0.00  0.00    -0.272 OA
ATOM     16  H   UNL d   1      30.140 -16.146   1.356  0.00  0.00     0.184 HD
BRANCH  14  17
ATOM     17  C   UNL d   1      31.023 -14.961  -1.705  0.00  0.00     0.108 C 
BRANCH  17  18
ATOM     18  C   UNL d   1      29.922 -13.918  -1.983  0.00  0.00     0.046 C 
BRANCH  18  19
ATOM     19  C   UNL d   1      28.984 -14.327  -3.096  0.00  0.00    -0.050 A 
ATOM     20  C   UNL d   1      27.707 -13.970  -3.299  0.00  0.00    -0.006 A 
ATOM     21  C   UNL d   1      26.786 -13.106  -2.635  0.00  0.00     0.014 A 
ATOM     22  C   UNL d   1      27.290 -14.688  -4.522  0.00  0.00     0.038 A 
ATOM     23  C   UNL d   1      25.529 -13.006  -3.083  0.00  0.00     0.001 A 
ATOM     24  C   UNL d   1      25.095 -13.707  -4.274  0.00  0.00     0.002 A 
ATOM     25  C   UNL d   1      25.902 -14.509  -4.995  0.00  0.00     0.030 A 
ATOM     26  N   UNL d   1      28.236 -15.391  -5.015  0.00  0.00    -0.385 N 
ATOM     27  C   UNL d   1      29.452 -15.263  -4.184  0.00  0.00     0.155 A 
ATOM     28  H   UNL d   1      28.137 -15.947  -5.862  0.00  0.00     0.160 HD
ENDBRANCH  18  19
ENDBRANCH  17  18
ENDBRANCH  14  17
ENDBRANCH   1  13
BRANCH  11  29
ATOM     29  S   UNL d   1      26.659 -14.131   0.938  0.00  0.00    -0.127 SA
BRANCH  29  30
ATOM     30  C   UNL d   1      27.562 -13.026   2.000  0.00  0.00     0.115 C 
BRANCH  30  31
ATOM     31  C   UNL d   1      27.869 -13.297   3.469  0.00  0.00    -0.046 A 
ATOM     32  C   UNL d   1      28.312 -14.608   3.804  0.00  0.00     0.008 A 
ATOM     33  C   UNL d   1      28.641 -14.988   5.109  0.00  0.00     0.004 A 
ATOM     34  C   UNL d   1      28.473 -14.076   6.138  0.00  0.00     0.042 A 
ATOM     35  C   UNL d   1      28.047 -12.786   5.831  0.00  0.00     0.117 A 
ATOM     36  F   UNL d   1      27.882 -11.906   6.829  0.00  0.00    -0.206 F 
ATOM     37  C   UNL d   1      27.783 -12.378   4.513  0.00  0.00     0.050 A 
ENDBRANCH  30  31
ENDBRANCH  29  30
ENDBRANCH  11  29
TORSDOF 7
ENDMDL
MODEL 8
REMARK VINA RESULT:    -7.807      3.962      7.968
REMARK INTER + INTRA:         -13.136
REMARK INTER:                  -9.895
REMARK INTRA:                  -3.241
REMARK CONF_INDEPENDENT:        2.088
REMARK UNBOUND:                -3.241
REMARK  7 active torsions:
REMARK  status: ('A' for Active; 'I' for Inactive)
REMARK    1  A    between atoms: C_2  and  C_3 
REMARK       I    between atoms: C_2  and  N_14 
REMARK    2  A    between atoms: C_3  and  C_4 
REMARK    3  A    between atoms: C_4  and  C_5 
REMARK    4  A    between atoms: N_14  and  N_15 
REMARK    5  A    between atoms: C_25  and  S_26 
REMARK    6  A    between atoms: S_26  and  C_27 
REMARK    7  A    between atoms: C_27  and  C_28 
ROOT
ATOM      1  N   UNL d   1      28.656 -15.340  -0.629  0.00  0.00    -0.129 NA
ATOM      2  C   UNL d   1      28.528 -16.642  -1.183  0.00  0.00     0.255 C 
ATOM      3  O   UNL d   1      29.456 -17.357  -1.415  0.00  0.00    -0.272 OA
ATOM      4  C   UNL d   1      27.116 -17.170  -1.072  0.00  0.00     0.049 C 
ATOM      5  C   UNL d   1      25.985 -16.604  -1.647  0.00  0.00     0.018 C 
ATOM      6  C   UNL d   1      24.682 -16.884  -1.130  0.00  0.00     0.001 C 
ATOM      7  C   UNL d   1      24.498 -17.721  -0.035  0.00  0.00     0.002 C 
ATOM      8  C   UNL d   1      25.639 -18.195   0.575  0.00  0.00     0.024 C 
ATOM      9  C   UNL d   1      26.870 -17.588   0.222  0.00  0.00     0.025 C 
ATOM     10  N   UNL d   1      27.409 -16.553   1.190  0.00  0.00    -0.265 NA
ATOM     11  C   UNL d   1      27.803 -15.194   0.561  0.00  0.00     0.227 C 
ATOM     12  H   UNL d   1      28.323 -17.001   1.374  0.00  0.00     0.130 HD
ENDROOT
BRANCH   1  13
ATOM     13  N   UNL d   1      30.063 -14.839  -0.523  0.00  0.00    -0.280 N 
ATOM     14  C   UNL d   1      30.512 -13.516  -0.507  0.00  0.00     0.232 C 
ATOM     15  O   UNL d   1      31.700 -13.250  -0.693  0.00  0.00    -0.272 OA
ATOM     16  H   UNL d   1      30.767 -15.504  -0.857  0.00  0.00     0.184 HD
BRANCH  14  17
ATOM     17  C   UNL d   1      29.550 -12.410  -0.151  0.00  0.00     0.108 C 
BRANCH  17  18
ATOM     18  C   UNL d   1      29.672 -11.789   1.256  0.00  0.00     0.046 C 
BRANCH  18  19
ATOM     19  C   UNL d   1      29.962 -12.811   2.332  0.00  0.00    -0.050 A 
ATOM     20  C   UNL d   1      29.119 -13.382   3.204  0.00  0.00    -0.006 A 
ATOM     21  C   UNL d   1      27.715 -13.304   3.445  0.00  0.00     0.014 A 
ATOM     22  C   UNL d   1      29.957 -14.280   4.027  0.00  0.00     0.038 A 
ATOM     23  C   UNL d   1      27.176 -13.990   4.460  0.00  0.00     0.001 A 
ATOM     24  C   UNL d   1      27.979 -14.869   5.285  0.00  0.00     0.002 A 
ATOM     25  C   UNL d   1      29.303 -15.045   5.108  0.00  0.00     0.030 A 
ATOM     26  N   UNL d   1      31.182 -14.263   3.665  0.00  0.00    -0.385 N 
ATOM     27  C   UNL d   1      31.366 -13.330   2.533  0.00  0.00     0.155 A 
ATOM     28  H   UNL d   1      31.904 -14.826   4.110  0.00  0.00     0.160 HD
ENDBRANCH  18  19
ENDBRANCH  17  18
ENDBRANCH  14  17
ENDBRANCH   1  13
BRANCH  11  29
ATOM     29  S   UNL d   1      26.626 -13.732   0.258  0.00  0.00    -0.127 SA
BRANCH  29  30
ATOM     30  C   UNL d   1      26.978 -13.034  -1.340  0.00  0.00     0.115 C 
BRANCH  30  31
ATOM     31  C   UNL d   1      26.789 -13.768  -2.664  0.00  0.00    -0.046 A 
ATOM     32  C   UNL d   1      25.466 -13.823  -3.188  0.00  0.00     0.008 A 
ATOM     33  C   UNL d   1      25.154 -14.450  -4.397  0.00  0.00     0.004 A 
ATOM     34  C   UNL d   1      26.157 -15.105  -5.094  0.00  0.00     0.042 A 
ATOM     35  C   UNL d   1      27.459 -15.057  -4.603  0.00  0.00     0.117 A 
ATOM     36  F   UNL d   1      28.427 -15.693  -5.278  0.00  0.00    -0.206 F 
ATOM     37  C   UNL d   1      27.790 -14.367  -3.425  0.00  0.00     0.050 A 
ENDBRANCH  30  31
ENDBRANCH  29  30
ENDBRANCH  11  29
TORSDOF 7
ENDMDL
MODEL 9
REMARK VINA RESULT:    -7.033      8.081     11.856
REMARK INTER + INTRA:         -12.711
REMARK INTER:                  -9.121
REMARK INTRA:                  -3.589
REMARK CONF_INDEPENDENT:        2.088
REMARK UNBOUND:                -3.589
REMARK  7 active torsions:
REMARK  status: ('A' for Active; 'I' for Inactive)
REMARK    1  A    between atoms: C_2  and  C_3 
REMARK       I    between atoms: C_2  and  N_14 
REMARK    2  A    between atoms: C_3  and  C_4 
REMARK    3  A    between atoms: C_4  and  C_5 
REMARK    4  A    between atoms: N_14  and  N_15 
REMARK    5  A    between atoms: C_25  and  S_26 
REMARK    6  A    between atoms: S_26  and  C_27 
REMARK    7  A    between atoms: C_27  and  C_28 
ROOT
ATOM      1  N   UNL d   1      29.343 -11.287   7.826  0.00  0.00    -0.129 NA
ATOM      2  C   UNL d   1      28.536 -12.391   8.211  0.00  0.00     0.255 C 
ATOM      3  O   UNL d   1      27.808 -12.381   9.158  0.00  0.00    -0.272 OA
ATOM      4  C   UNL d   1      28.390 -13.402   7.097  0.00  0.00     0.049 C 
ATOM      5  C   UNL d   1      29.422 -14.118   6.503  0.00  0.00     0.018 C 
ATOM      6  C   UNL d   1      29.268 -14.680   5.198  0.00  0.00     0.001 C 
ATOM      7  C   UNL d   1      28.090 -14.529   4.475  0.00  0.00     0.002 C 
ATOM      8  C   UNL d   1      27.116 -13.738   5.046  0.00  0.00     0.024 C 
ATOM      9  C   UNL d   1      27.488 -12.942   6.157  0.00  0.00     0.025 C 
ATOM     10  N   UNL d   1      27.772 -11.480   5.870  0.00  0.00    -0.265 NA
ATOM     11  C   UNL d   1      29.119 -10.944   6.414  0.00  0.00     0.227 C 
ATOM     12  H   UNL d   1      27.077 -11.076   6.522  0.00  0.00     0.130 HD
ENDROOT
BRANCH   1  13
ATOM     13  N   UNL d   1      29.365 -10.155   8.807  0.00  0.00    -0.280 N 
ATOM     14  C   UNL d   1      30.424  -9.728   9.612  0.00  0.00     0.232 C 
ATOM     15  O   UNL d   1      30.228  -8.969  10.562  0.00  0.00    -0.272 OA
ATOM     16  H   UNL d   1      28.443  -9.913   9.183  0.00  0.00     0.184 HD
BRANCH  14  17
ATOM     17  C   UNL d   1      31.836 -10.113   9.248  0.00  0.00     0.108 C 
BRANCH  17  18
ATOM     18  C   UNL d   1      32.462 -11.307   9.996  0.00  0.00     0.046 C 
BRANCH  18  19
ATOM     19  C   UNL d   1      31.609 -12.554   9.940  0.00  0.00    -0.050 A 
ATOM     20  C   UNL d   1      30.502 -12.853  10.637  0.00  0.00    -0.006 A 
ATOM     21  C   UNL d   1      29.712 -12.173  11.611  0.00  0.00     0.014 A 
ATOM     22  C   UNL d   1      30.111 -14.206  10.188  0.00  0.00     0.038 A 
ATOM     23  C   UNL d   1      28.662 -12.792  12.163  0.00  0.00     0.001 A 
ATOM     24  C   UNL d   1      28.265 -14.121  11.745  0.00  0.00     0.002 A 
ATOM     25  C   UNL d   1      28.919 -14.826  10.801  0.00  0.00     0.030 A 
ATOM     26  N   UNL d   1      30.898 -14.662   9.290  0.00  0.00    -0.385 N 
ATOM     27  C   UNL d   1      31.963 -13.680   8.999  0.00  0.00     0.155 A 
ATOM     28  H   UNL d   1      30.780 -15.575   8.855  0.00  0.00     0.160 HD
ENDBRANCH  18  19
ENDBRANCH  17  18
ENDBRANCH  14  17
ENDBRANCH   1  13
BRANCH  11  29
ATOM     29  S   UNL d   1      30.792 -11.045   5.516  0.00  0.00    -0.127 SA
BRANCH  29  30
ATOM     30  C   UNL d   1      30.504 -10.993   3.761  0.00  0.00     0.115 C 
BRANCH  30  31
ATOM     31  C   UNL d   1      29.127 -11.069   3.109  0.00  0.00    -0.046 A 
ATOM     32  C   UNL d   1      28.857 -12.211   2.303  0.00  0.00     0.008 A 
ATOM     33  C   UNL d   1      27.633 -12.413   1.659  0.00  0.00     0.004 A 
ATOM     34  C   UNL d   1      26.655 -11.436   1.750  0.00  0.00     0.042 A 
ATOM     35  C   UNL d   1      26.897 -10.314   2.539  0.00  0.00     0.117 A 
ATOM     36  F   UNL d   1      25.950  -9.368   2.625  0.00  0.00    -0.206 F 
ATOM     37  C   UNL d   1      28.098 -10.140   3.246  0.00  0.00     0.050 A 
ENDBRANCH  30  31
ENDBRANCH  29  30
ENDBRANCH  11  29
TORSDOF 7
ENDMDL
