MODEL 1
REMARK VINA RESULT:    -9.690      0.000      0.000
REMARK INTER + INTRA:         -12.056
REMARK INTER:                 -11.182
REMARK INTRA:                  -0.874
REMARK CONF_INDEPENDENT:        1.492
REMARK UNBOUND:                -0.874
REMARK  5 active torsions:
REMARK  status: ('A' for Active; 'I' for Inactive)
REMARK    1  A    between atoms: C_8  and  C_9 
REMARK    2  A    between atoms: C_13  and  N_14 
REMARK       I    between atoms: N_14  and  C_15 
REMARK    3  A    between atoms: C_15  and  C_17 
REMARK    4  A    between atoms: C_20  and  C_21 
REMARK    5  A    between atoms: C_25  and  N_26 
ROOT
ATOM      1  N   UNL d   1      25.907 -16.032  -2.857  0.00  0.00    -0.321 N 
ATOM      2  C   UNL d   1      24.678 -15.834  -2.216  0.00  0.00     0.280 C 
ATOM      3  O   UNL d   1      23.954 -14.850  -2.396  0.00  0.00    -0.265 OA
ATOM      4  H   UNL d   1      26.381 -16.912  -2.692  0.00  0.00     0.169 HD
ENDROOT
BRANCH   1   5
ATOM      5  C   UNL d   1      26.518 -15.139  -3.789  0.00  0.00     0.035 A 
ATOM      6  C   UNL d   1      26.048 -13.820  -3.900  0.00  0.00     0.029 A 
ATOM      7  C   UNL d   1      26.648 -12.921  -4.799  0.00  0.00     0.003 A 
ATOM      8  C   UNL d   1      27.723 -13.329  -5.592  0.00  0.00     0.016 A 
ATOM      9  C   UNL d   1      28.201 -14.638  -5.508  0.00  0.00     0.019 A 
ATOM     10  C   UNL d   1      27.590 -15.523  -4.610  0.00  0.00     0.045 A 
BRANCH   9  11
ATOM     11  C   UNL d   1      29.383 -15.040  -6.262  0.00  0.00     0.181 A 
ATOM     12  O   UNL d   1      29.645 -16.386  -6.372  0.00  0.00    -0.288 OA
ATOM     13  C   UNL d   1      30.778 -16.439  -7.151  0.00  0.00     0.112 A 
ATOM     14  C   UNL d   1      31.477 -17.564  -7.603  0.00  0.00    -0.025 A 
ATOM     15  C   UNL d   1      31.138 -15.131  -7.438  0.00  0.00     0.094 A 
ATOM     16  C   UNL d   1      32.618 -17.282  -8.385  0.00  0.00     0.016 A 
ATOM     17  C   UNL d   1      31.094 -18.981  -7.320  0.00  0.00     0.051 C 
ATOM     18  C   UNL d   1      33.028 -15.974  -8.681  0.00  0.00    -0.059 A 
ATOM     19  C   UNL d   1      34.260 -15.732  -9.505  0.00  0.00     0.048 C 
ATOM     20  C   UNL d   1      32.283 -14.882  -8.205  0.00  0.00     0.041 A 
ATOM     21  N   UNL d   1      30.238 -14.256  -6.890  0.00  0.00    -0.221 NA
ENDBRANCH   9  11
ENDBRANCH   1   5
BRANCH   2  22
ATOM     22  C   UNL d   1      24.271 -16.856  -1.267  0.00  0.00     0.144 A 
ATOM     23  C   UNL d   1      24.872 -17.337  -0.118  0.00  0.00     0.046 A 
ATOM     24  C   UNL d   1      23.940 -18.207   0.497  0.00  0.00     0.041 A 
ATOM     25  C   UNL d   1      22.828 -18.243  -0.315  0.00  0.00     0.086 A 
ATOM     26  O   UNL d   1      23.013 -17.422  -1.388  0.00  0.00    -0.304 OA
BRANCH  25  27
ATOM     27  C   UNL d   1      21.554 -18.939  -0.175  0.00  0.00     0.000 A 
ATOM     28  C   UNL d   1      20.767 -19.158  -1.320  0.00  0.00     0.014 A 
ATOM     29  C   UNL d   1      19.482 -19.700  -1.226  0.00  0.00     0.003 A 
ATOM     30  C   UNL d   1      18.960 -20.029   0.021  0.00  0.00     0.036 A 
ATOM     31  C   UNL d   1      19.733 -19.813   1.170  0.00  0.00     0.103 A 
ATOM     32  C   UNL d   1      21.029 -19.271   1.080  0.00  0.00     0.050 A 
BRANCH  31  33
ATOM     33  N   UNL d   1      19.163 -20.140   2.485  0.00  0.00    -0.116 N 
ATOM     34  O   UNL d   1      17.931 -20.076   2.612  0.00  0.00    -0.532 OA
ATOM     35  O   UNL d   1      19.945 -20.452   3.393  0.00  0.00    -0.532 OA
ENDBRANCH  31  33
ENDBRANCH  25  27
ENDBRANCH   2  22
TORSDOF 5
ENDMDL
MODEL 2
REMARK VINA RESULT:    -9.352      6.519     11.225
REMARK INTER + INTRA:         -12.320
REMARK INTER:                 -10.844
REMARK INTRA:                  -1.477
REMARK CONF_INDEPENDENT:        1.492
REMARK UNBOUND:                -1.477
REMARK  5 active torsions:
REMARK  status: ('A' for Active; 'I' for Inactive)
REMARK    1  A    between atoms: C_8  and  C_9 
REMARK    2  A    between atoms: C_13  and  N_14 
REMARK       I    between atoms: N_14  and  C_15 
REMARK    3  A    between atoms: C_15  and  C_17 
REMARK    4  A    between atoms: C_20  and  C_21 
REMARK    5  A    between atoms: C_25  and  N_26 
ROOT
ATOM      1  N   UNL d   1      25.170 -10.017  -5.771  0.00  0.00    -0.321 N 
ATOM      2  C   UNL d   1      25.109  -9.002  -4.809  0.00  0.00     0.280 C 
ATOM      3  O   UNL d   1      25.711  -9.032  -3.731  0.00  0.00    -0.265 OA
ATOM      4  H   UNL d   1      24.696  -9.853  -6.651  0.00  0.00     0.169 HD
ENDROOT
BRANCH   1   5
ATOM      5  C   UNL d   1      25.908 -11.235  -5.656  0.00  0.00     0.035 A 
ATOM      6  C   UNL d   1      27.058 -11.428  -6.439  0.00  0.00     0.029 A 
ATOM      7  C   UNL d   1      27.807 -12.612  -6.327  0.00  0.00     0.003 A 
ATOM      8  C   UNL d   1      27.419 -13.611  -5.431  0.00  0.00     0.016 A 
ATOM      9  C   UNL d   1      26.274 -13.447  -4.650  0.00  0.00     0.019 A 
ATOM     10  C   UNL d   1      25.535 -12.263  -4.776  0.00  0.00     0.045 A 
BRANCH   9  11
ATOM     11  C   UNL d   1      25.919 -14.443  -3.645  0.00  0.00     0.181 A 
ATOM     12  O   UNL d   1      26.944 -15.058  -2.964  0.00  0.00    -0.288 OA
ATOM     13  C   UNL d   1      26.298 -15.896  -2.084  0.00  0.00     0.112 A 
ATOM     14  C   UNL d   1      26.851 -16.751  -1.123  0.00  0.00    -0.025 A 
ATOM     15  C   UNL d   1      24.937 -15.752  -2.306  0.00  0.00     0.094 A 
ATOM     16  C   UNL d   1      25.913 -17.495  -0.376  0.00  0.00     0.016 A 
ATOM     17  C   UNL d   1      28.314 -16.907  -0.857  0.00  0.00     0.051 C 
ATOM     18  C   UNL d   1      24.529 -17.394  -0.584  0.00  0.00    -0.059 A 
ATOM     19  C   UNL d   1      23.576 -18.220   0.230  0.00  0.00     0.048 C 
ATOM     20  C   UNL d   1      24.030 -16.513  -1.559  0.00  0.00     0.041 A 
ATOM     21  N   UNL d   1      24.708 -14.815  -3.279  0.00  0.00    -0.221 NA
ENDBRANCH   9  11
ENDBRANCH   1   5
BRANCH   2  22
ATOM     22  C   UNL d   1      24.255  -7.868  -5.118  0.00  0.00     0.144 A 
ATOM     23  C   UNL d   1      24.155  -6.609  -4.554  0.00  0.00     0.046 A 
ATOM     24  C   UNL d   1      23.275  -5.863  -5.373  0.00  0.00     0.041 A 
ATOM     25  C   UNL d   1      22.854  -6.702  -6.380  0.00  0.00     0.086 A 
ATOM     26  O   UNL d   1      23.446  -7.923  -6.241  0.00  0.00    -0.304 OA
BRANCH  25  27
ATOM     27  C   UNL d   1      21.975  -6.475  -7.520  0.00  0.00     0.000 A 
ATOM     28  C   UNL d   1      22.528  -6.008  -8.726  0.00  0.00     0.014 A 
ATOM     29  C   UNL d   1      21.717  -5.648  -9.807  0.00  0.00     0.003 A 
ATOM     30  C   UNL d   1      20.333  -5.748  -9.697  0.00  0.00     0.036 A 
ATOM     31  C   UNL d   1      19.769  -6.210  -8.499  0.00  0.00     0.103 A 
ATOM     32  C   UNL d   1      20.582  -6.575  -7.409  0.00  0.00     0.050 A 
BRANCH  31  33
ATOM     33  N   UNL d   1      18.306  -6.286  -8.383  0.00  0.00    -0.116 N 
ATOM     34  O   UNL d   1      17.817  -7.324  -7.913  0.00  0.00    -0.532 OA
ATOM     35  O   UNL d   1      17.645  -5.312  -8.770  0.00  0.00    -0.532 OA
ENDBRANCH  31  33
ENDBRANCH  25  27
ENDBRANCH   2  22
TORSDOF 5
ENDMDL
MODEL 3
REMARK VINA RESULT:    -9.101      7.655     11.172
REMARK INTER + INTRA:         -12.057
REMARK INTER:                 -10.593
REMARK INTRA:                  -1.464
REMARK CONF_INDEPENDENT:        1.492
REMARK UNBOUND:                -1.464
REMARK  5 active torsions:
REMARK  status: ('A' for Active; 'I' for Inactive)
REMARK    1  A    between atoms: C_8  and  C_9 
REMARK    2  A    between atoms: C_13  and  N_14 
REMARK       I    between atoms: N_14  and  C_15 
REMARK    3  A    between atoms: C_15  and  C_17 
REMARK    4  A    between atoms: C_20  and  C_21 
REMARK    5  A    between atoms: C_25  and  N_26 
ROOT
ATOM      1  N   UNL d   1      27.026 -12.938   2.198  0.00  0.00    -0.321 N 
ATOM      2  C   UNL d   1      27.231 -12.611   0.853  0.00  0.00     0.280 C 
ATOM      3  O   UNL d   1      27.885 -11.636   0.469  0.00  0.00    -0.265 OA
ATOM      4  H   UNL d   1      26.538 -13.803   2.398  0.00  0.00     0.169 HD
ENDROOT
BRANCH   1   5
ATOM      5  C   UNL d   1      27.514 -12.204   3.322  0.00  0.00     0.035 A 
ATOM      6  C   UNL d   1      27.418 -10.802   3.332  0.00  0.00     0.029 A 
ATOM      7  C   UNL d   1      27.877 -10.063   4.436  0.00  0.00     0.003 A 
ATOM      8  C   UNL d   1      28.432 -10.715   5.540  0.00  0.00     0.016 A 
ATOM      9  C   UNL d   1      28.547 -12.106   5.549  0.00  0.00     0.019 A 
ATOM     10  C   UNL d   1      28.089 -12.828   4.440  0.00  0.00     0.045 A 
BRANCH   9  11
ATOM     11  C   UNL d   1      29.035 -12.797   6.738  0.00  0.00     0.181 A 
ATOM     12  O   UNL d   1      28.273 -12.720   7.881  0.00  0.00    -0.288 OA
ATOM     13  C   UNL d   1      28.966 -13.484   8.791  0.00  0.00     0.112 A 
ATOM     14  C   UNL d   1      28.636 -13.777  10.120  0.00  0.00    -0.025 A 
ATOM     15  C   UNL d   1      30.105 -13.949   8.151  0.00  0.00     0.094 A 
ATOM     16  C   UNL d   1      29.568 -14.589  10.800  0.00  0.00     0.016 A 
ATOM     17  C   UNL d   1      27.405 -13.300  10.821  0.00  0.00     0.051 C 
ATOM     18  C   UNL d   1      30.742 -15.064  10.196  0.00  0.00    -0.059 A 
ATOM     19  C   UNL d   1      31.706 -15.913  10.972  0.00  0.00     0.048 C 
ATOM     20  C   UNL d   1      31.018 -14.743   8.856  0.00  0.00     0.041 A 
ATOM     21  N   UNL d   1      30.127 -13.527   6.848  0.00  0.00    -0.221 NA
ENDBRANCH   9  11
ENDBRANCH   1   5
BRANCH   2  22
ATOM     22  C   UNL d   1      26.600 -13.478  -0.127  0.00  0.00     0.144 A 
ATOM     23  C   UNL d   1      26.649 -13.493  -1.510  0.00  0.00     0.046 A 
ATOM     24  C   UNL d   1      25.979 -14.667  -1.929  0.00  0.00     0.041 A 
ATOM     25  C   UNL d   1      25.526 -15.300  -0.793  0.00  0.00     0.086 A 
ATOM     26  O   UNL d   1      25.902 -14.590   0.311  0.00  0.00    -0.304 OA
BRANCH  25  27
ATOM     27  C   UNL d   1      24.805 -16.553  -0.609  0.00  0.00     0.000 A 
ATOM     28  C   UNL d   1      25.517 -17.698  -0.209  0.00  0.00     0.014 A 
ATOM     29  C   UNL d   1      24.901 -18.951  -0.145  0.00  0.00     0.003 A 
ATOM     30  C   UNL d   1      23.558 -19.081  -0.485  0.00  0.00     0.036 A 
ATOM     31  C   UNL d   1      22.837 -17.947  -0.887  0.00  0.00     0.103 A 
ATOM     32  C   UNL d   1      23.452 -16.683  -0.950  0.00  0.00     0.050 A 
BRANCH  31  33
ATOM     33  N   UNL d   1      21.426 -18.098  -1.270  0.00  0.00    -0.116 N 
ATOM     34  O   UNL d   1      20.716 -17.082  -1.270  0.00  0.00    -0.532 OA
ATOM     35  O   UNL d   1      21.025 -19.234  -1.562  0.00  0.00    -0.532 OA
ENDBRANCH  31  33
ENDBRANCH  25  27
ENDBRANCH   2  22
TORSDOF 5
ENDMDL
MODEL 4
REMARK VINA RESULT:    -8.892      4.846     12.204
REMARK INTER + INTRA:         -11.285
REMARK INTER:                 -10.384
REMARK INTRA:                  -0.901
REMARK CONF_INDEPENDENT:        1.492
REMARK UNBOUND:                -0.901
REMARK  5 active torsions:
REMARK  status: ('A' for Active; 'I' for Inactive)
REMARK    1  A    between atoms: C_8  and  C_9 
REMARK    2  A    between atoms: C_13  and  N_14 
REMARK       I    between atoms: N_14  and  C_15 
REMARK    3  A    between atoms: C_15  and  C_17 
REMARK    4  A    between atoms: C_20  and  C_21 
REMARK    5  A    between atoms: C_25  and  N_26 
ROOT
ATOM      1  N   UNL d   1      25.737 -17.018  -0.850  0.00  0.00    -0.321 N 
ATOM      2  C   UNL d   1      26.731 -16.146  -0.389  0.00  0.00     0.280 C 
ATOM      3  O   UNL d   1      26.517 -14.990  -0.011  0.00  0.00    -0.265 OA
ATOM      4  H   UNL d   1      26.015 -17.969  -1.063  0.00  0.00     0.169 HD
ENDROOT
BRANCH   1   5
ATOM      5  C   UNL d   1      24.348 -16.711  -0.974  0.00  0.00     0.035 A 
ATOM      6  C   UNL d   1      23.951 -15.509  -1.582  0.00  0.00     0.029 A 
ATOM      7  C   UNL d   1      22.588 -15.198  -1.728  0.00  0.00     0.003 A 
ATOM      8  C   UNL d   1      21.609 -16.085  -1.272  0.00  0.00     0.016 A 
ATOM      9  C   UNL d   1      21.979 -17.281  -0.655  0.00  0.00     0.019 A 
ATOM     10  C   UNL d   1      23.341 -17.575  -0.513  0.00  0.00     0.045 A 
BRANCH   9  11
ATOM     11  C   UNL d   1      20.963 -18.254  -0.267  0.00  0.00     0.181 A 
ATOM     12  O   UNL d   1      21.081 -18.844   0.971  0.00  0.00    -0.288 OA
ATOM     13  C   UNL d   1      19.980 -19.664   1.052  0.00  0.00     0.112 A 
ATOM     14  C   UNL d   1      19.579 -20.489   2.109  0.00  0.00    -0.025 A 
ATOM     15  C   UNL d   1      19.287 -19.536  -0.142  0.00  0.00     0.094 A 
ATOM     16  C   UNL d   1      18.395 -21.222   1.877  0.00  0.00     0.016 A 
ATOM     17  C   UNL d   1      20.303 -20.626   3.410  0.00  0.00     0.051 C 
ATOM     18  C   UNL d   1      17.675 -21.137   0.676  0.00  0.00    -0.059 A 
ATOM     19  C   UNL d   1      16.429 -21.950   0.478  0.00  0.00     0.048 C 
ATOM     20  C   UNL d   1      18.122 -20.285  -0.348  0.00  0.00     0.041 A 
ATOM     21  N   UNL d   1      19.904 -18.626  -0.959  0.00  0.00    -0.221 NA
ENDBRANCH   9  11
ENDBRANCH   1   5
BRANCH   2  22
ATOM     22  C   UNL d   1      28.091 -16.656  -0.391  0.00  0.00     0.144 A 
ATOM     23  C   UNL d   1      28.594 -17.937  -0.538  0.00  0.00     0.046 A 
ATOM     24  C   UNL d   1      30.001 -17.815  -0.631  0.00  0.00     0.041 A 
ATOM     25  C   UNL d   1      30.298 -16.477  -0.509  0.00  0.00     0.086 A 
ATOM     26  O   UNL d   1      29.146 -15.759  -0.368  0.00  0.00    -0.304 OA
BRANCH  25  27
ATOM     27  C   UNL d   1      31.567 -15.762  -0.559  0.00  0.00     0.000 A 
ATOM     28  C   UNL d   1      32.765 -16.498  -0.583  0.00  0.00     0.014 A 
ATOM     29  C   UNL d   1      34.009 -15.867  -0.498  0.00  0.00     0.003 A 
ATOM     30  C   UNL d   1      34.075 -14.481  -0.384  0.00  0.00     0.036 A 
ATOM     31  C   UNL d   1      32.888 -13.735  -0.357  0.00  0.00     0.103 A 
ATOM     32  C   UNL d   1      31.633 -14.367  -0.445  0.00  0.00     0.050 A 
BRANCH  31  33
ATOM     33  N   UNL d   1      32.967 -12.275  -0.209  0.00  0.00    -0.116 N 
ATOM     34  O   UNL d   1      31.951 -11.678   0.176  0.00  0.00    -0.532 OA
ATOM     35  O   UNL d   1      34.042 -11.724  -0.487  0.00  0.00    -0.532 OA
ENDBRANCH  31  33
ENDBRANCH  25  27
ENDBRANCH   2  22
TORSDOF 5
ENDMDL
MODEL 5
REMARK VINA RESULT:    -8.816      3.336      6.456
REMARK INTER + INTRA:         -11.268
REMARK INTER:                 -10.308
REMARK INTRA:                  -0.961
REMARK CONF_INDEPENDENT:        1.492
REMARK UNBOUND:                -0.961
REMARK  5 active torsions:
REMARK  status: ('A' for Active; 'I' for Inactive)
REMARK    1  A    between atoms: C_8  and  C_9 
REMARK    2  A    between atoms: C_13  and  N_14 
REMARK       I    between atoms: N_14  and  C_15 
REMARK    3  A    between atoms: C_15  and  C_17 
REMARK    4  A    between atoms: C_20  and  C_21 
REMARK    5  A    between atoms: C_25  and  N_26 
ROOT
ATOM      1  N   UNL d   1      25.859 -15.545  -2.582  0.00  0.00    -0.321 N 
ATOM      2  C   UNL d   1      24.520 -15.609  -2.177  0.00  0.00     0.280 C 
ATOM      3  O   UNL d   1      23.652 -14.805  -2.528  0.00  0.00    -0.265 OA
ATOM      4  H   UNL d   1      26.469 -16.302  -2.294  0.00  0.00     0.169 HD
ENDROOT
BRANCH   1   5
ATOM      5  C   UNL d   1      26.429 -14.550  -3.434  0.00  0.00     0.035 A 
ATOM      6  C   UNL d   1      27.421 -14.911  -4.360  0.00  0.00     0.029 A 
ATOM      7  C   UNL d   1      27.981 -13.950  -5.218  0.00  0.00     0.003 A 
ATOM      8  C   UNL d   1      27.554 -12.621  -5.163  0.00  0.00     0.016 A 
ATOM      9  C   UNL d   1      26.577 -12.235  -4.244  0.00  0.00     0.019 A 
ATOM     10  C   UNL d   1      26.031 -13.204  -3.393  0.00  0.00     0.045 A 
BRANCH   9  11
ATOM     11  C   UNL d   1      26.058 -10.872  -4.249  0.00  0.00     0.181 A 
ATOM     12  O   UNL d   1      26.451 -10.033  -3.232  0.00  0.00    -0.288 OA
ATOM     13  C   UNL d   1      25.836  -8.840  -3.532  0.00  0.00     0.112 A 
ATOM     14  C   UNL d   1      25.905  -7.622  -2.845  0.00  0.00    -0.025 A 
ATOM     15  C   UNL d   1      25.097  -9.040  -4.688  0.00  0.00     0.094 A 
ATOM     16  C   UNL d   1      25.143  -6.576  -3.407  0.00  0.00     0.016 A 
ATOM     17  C   UNL d   1      26.711  -7.382  -1.608  0.00  0.00     0.051 C 
ATOM     18  C   UNL d   1      24.366  -6.742  -4.564  0.00  0.00    -0.059 A 
ATOM     19  C   UNL d   1      23.562  -5.598  -5.110  0.00  0.00     0.048 C 
ATOM     20  C   UNL d   1      24.340  -7.987  -5.215  0.00  0.00     0.041 A 
ATOM     21  N   UNL d   1      25.262 -10.321  -5.145  0.00  0.00    -0.221 NA
ENDBRANCH   9  11
ENDBRANCH   1   5
BRANCH   2  22
ATOM     22  C   UNL d   1      24.170 -16.686  -1.267  0.00  0.00     0.144 A 
ATOM     23  C   UNL d   1      24.826 -17.214  -0.169  0.00  0.00     0.046 A 
ATOM     24  C   UNL d   1      23.936 -18.133   0.436  0.00  0.00     0.041 A 
ATOM     25  C   UNL d   1      22.793 -18.149  -0.331  0.00  0.00     0.086 A 
ATOM     26  O   UNL d   1      22.919 -17.270  -1.367  0.00  0.00    -0.304 OA
BRANCH  25  27
ATOM     27  C   UNL d   1      21.538 -18.875  -0.177  0.00  0.00     0.000 A 
ATOM     28  C   UNL d   1      20.750 -19.126  -1.315  0.00  0.00     0.014 A 
ATOM     29  C   UNL d   1      19.480 -19.700  -1.207  0.00  0.00     0.003 A 
ATOM     30  C   UNL d   1      18.973 -20.030   0.046  0.00  0.00     0.036 A 
ATOM     31  C   UNL d   1      19.748 -19.783   1.189  0.00  0.00     0.103 A 
ATOM     32  C   UNL d   1      21.028 -19.208   1.085  0.00  0.00     0.050 A 
BRANCH  31  33
ATOM     33  N   UNL d   1      19.193 -20.110   2.509  0.00  0.00    -0.116 N 
ATOM     34  O   UNL d   1      19.989 -20.412   3.411  0.00  0.00    -0.532 OA
ATOM     35  O   UNL d   1      17.962 -20.073   2.645  0.00  0.00    -0.532 OA
ENDBRANCH  31  33
ENDBRANCH  25  27
ENDBRANCH   2  22
TORSDOF 5
ENDMDL
MODEL 6
REMARK VINA RESULT:    -8.777      2.771      5.049
REMARK INTER + INTRA:         -11.558
REMARK INTER:                 -10.268
REMARK INTRA:                  -1.290
REMARK CONF_INDEPENDENT:        1.492
REMARK UNBOUND:                -1.290
REMARK  5 active torsions:
REMARK  status: ('A' for Active; 'I' for Inactive)
REMARK    1  A    between atoms: C_8  and  C_9 
REMARK    2  A    between atoms: C_13  and  N_14 
REMARK       I    between atoms: N_14  and  C_15 
REMARK    3  A    between atoms: C_15  and  C_17 
REMARK    4  A    between atoms: C_20  and  C_21 
REMARK    5  A    between atoms: C_25  and  N_26 
ROOT
ATOM      1  N   UNL d   1      28.596 -15.910  -4.612  0.00  0.00    -0.321 N 
ATOM      2  C   UNL d   1      27.442 -15.228  -5.015  0.00  0.00     0.280 C 
ATOM      3  O   UNL d   1      27.267 -14.775  -6.150  0.00  0.00    -0.265 OA
ATOM      4  H   UNL d   1      28.602 -16.306  -3.679  0.00  0.00     0.169 HD
ENDROOT
BRANCH   1   5
ATOM      5  C   UNL d   1      29.741 -16.171  -5.426  0.00  0.00     0.035 A 
ATOM      6  C   UNL d   1      30.628 -15.127  -5.736  0.00  0.00     0.029 A 
ATOM      7  C   UNL d   1      31.769 -15.368  -6.520  0.00  0.00     0.003 A 
ATOM      8  C   UNL d   1      32.037 -16.653  -7.000  0.00  0.00     0.016 A 
ATOM      9  C   UNL d   1      31.165 -17.704  -6.715  0.00  0.00     0.019 A 
ATOM     10  C   UNL d   1      30.030 -17.448  -5.935  0.00  0.00     0.045 A 
BRANCH   9  11
ATOM     11  C   UNL d   1      31.490 -19.064  -7.131  0.00  0.00     0.181 A 
ATOM     12  O   UNL d   1      31.572 -20.030  -6.154  0.00  0.00    -0.288 OA
ATOM     13  C   UNL d   1      31.852 -21.181  -6.852  0.00  0.00     0.112 A 
ATOM     14  C   UNL d   1      32.020 -22.483  -6.364  0.00  0.00    -0.025 A 
ATOM     15  C   UNL d   1      31.945 -20.835  -8.192  0.00  0.00     0.094 A 
ATOM     16  C   UNL d   1      32.312 -23.455  -7.344  0.00  0.00     0.016 A 
ATOM     17  C   UNL d   1      31.905 -22.878  -4.926  0.00  0.00     0.051 C 
ATOM     18  C   UNL d   1      32.435 -23.143  -8.706  0.00  0.00    -0.059 A 
ATOM     19  C   UNL d   1      32.763 -24.215  -9.704  0.00  0.00     0.048 C 
ATOM     20  C   UNL d   1      32.251 -21.819  -9.140  0.00  0.00     0.041 A 
ATOM     21  N   UNL d   1      31.693 -19.500  -8.359  0.00  0.00    -0.221 NA
ENDBRANCH   9  11
ENDBRANCH   1   5
BRANCH   2  22
ATOM     22  C   UNL d   1      26.418 -15.036  -4.003  0.00  0.00     0.144 A 
ATOM     23  C   UNL d   1      25.479 -14.037  -3.821  0.00  0.00     0.046 A 
ATOM     24  C   UNL d   1      24.631 -14.459  -2.770  0.00  0.00     0.041 A 
ATOM     25  C   UNL d   1      25.103 -15.678  -2.337  0.00  0.00     0.086 A 
ATOM     26  O   UNL d   1      26.187 -16.043  -3.082  0.00  0.00    -0.304 OA
BRANCH  25  27
ATOM     27  C   UNL d   1      24.617 -16.592  -1.311  0.00  0.00     0.000 A 
ATOM     28  C   UNL d   1      25.540 -17.175  -0.424  0.00  0.00     0.014 A 
ATOM     29  C   UNL d   1      25.148 -18.157   0.491  0.00  0.00     0.003 A 
ATOM     30  C   UNL d   1      23.821 -18.575   0.532  0.00  0.00     0.036 A 
ATOM     31  C   UNL d   1      22.892 -18.003  -0.349  0.00  0.00     0.103 A 
ATOM     32  C   UNL d   1      23.282 -17.013  -1.270  0.00  0.00     0.050 A 
BRANCH  31  33
ATOM     33  N   UNL d   1      21.499 -18.470  -0.317  0.00  0.00    -0.116 N 
ATOM     34  O   UNL d   1      20.655 -17.813  -0.944  0.00  0.00    -0.532 OA
ATOM     35  O   UNL d   1      21.246 -19.489   0.342  0.00  0.00    -0.532 OA
ENDBRANCH  31  33
ENDBRANCH  25  27
ENDBRANCH   2  22
TORSDOF 5
ENDMDL
MODEL 7
REMARK VINA RESULT:    -8.659      7.809     10.917
REMARK INTER + INTRA:         -11.456
REMARK INTER:                 -10.151
REMARK INTRA:                  -1.305
REMARK CONF_INDEPENDENT:        1.492
REMARK UNBOUND:                -1.305
REMARK  5 active torsions:
REMARK  status: ('A' for Active; 'I' for Inactive)
REMARK    1  A    between atoms: C_8  and  C_9 
REMARK    2  A    between atoms: C_13  and  N_14 
REMARK       I    between atoms: N_14  and  C_15 
REMARK    3  A    between atoms: C_15  and  C_17 
REMARK    4  A    between atoms: C_20  and  C_21 
REMARK    5  A    between atoms: C_25  and  N_26 
ROOT
ATOM      1  N   UNL d   1      32.431 -18.023   0.614  0.00  0.00    -0.321 N 
ATOM      2  C   UNL d   1      33.814 -18.180   0.466  0.00  0.00     0.280 C 
ATOM      3  O   UNL d   1      34.449 -17.817  -0.529  0.00  0.00    -0.265 OA
ATOM      4  H   UNL d   1      32.025 -18.288   1.504  0.00  0.00     0.169 HD
ENDROOT
BRANCH   1   5
ATOM      5  C   UNL d   1      31.546 -17.448  -0.349  0.00  0.00     0.035 A 
ATOM      6  C   UNL d   1      32.071 -16.861  -1.513  0.00  0.00     0.029 A 
ATOM      7  C   UNL d   1      31.215 -16.306  -2.480  0.00  0.00     0.003 A 
ATOM      8  C   UNL d   1      29.831 -16.334  -2.297  0.00  0.00     0.016 A 
ATOM      9  C   UNL d   1      29.286 -16.902  -1.144  0.00  0.00     0.019 A 
ATOM     10  C   UNL d   1      30.152 -17.448  -0.188  0.00  0.00     0.045 A 
BRANCH   9  11
ATOM     11  C   UNL d   1      27.840 -17.021  -0.994  0.00  0.00     0.181 A 
ATOM     12  O   UNL d   1      27.050 -16.109  -1.656  0.00  0.00    -0.288 OA
ATOM     13  C   UNL d   1      25.768 -16.500  -1.349  0.00  0.00     0.112 A 
ATOM     14  C   UNL d   1      24.557 -15.941  -1.775  0.00  0.00    -0.025 A 
ATOM     15  C   UNL d   1      25.865 -17.599  -0.509  0.00  0.00     0.094 A 
ATOM     16  C   UNL d   1      23.399 -16.573  -1.271  0.00  0.00     0.016 A 
ATOM     17  C   UNL d   1      24.431 -14.769  -2.694  0.00  0.00     0.051 C 
ATOM     18  C   UNL d   1      23.454 -17.674  -0.403  0.00  0.00    -0.059 A 
ATOM     19  C   UNL d   1      22.191 -18.297   0.114  0.00  0.00     0.048 C 
ATOM     20  C   UNL d   1      24.699 -18.196  -0.015  0.00  0.00     0.041 A 
ATOM     21  N   UNL d   1      27.178 -17.933  -0.309  0.00  0.00    -0.221 NA
ENDBRANCH   9  11
ENDBRANCH   1   5
BRANCH   2  22
ATOM     22  C   UNL d   1      34.511 -18.836   1.558  0.00  0.00     0.144 A 
ATOM     23  C   UNL d   1      35.847 -18.860   1.917  0.00  0.00     0.046 A 
ATOM     24  C   UNL d   1      35.924 -19.517   3.167  0.00  0.00     0.041 A 
ATOM     25  C   UNL d   1      34.642 -19.892   3.503  0.00  0.00     0.086 A 
ATOM     26  O   UNL d   1      33.772 -19.479   2.537  0.00  0.00    -0.304 OA
BRANCH  25  27
ATOM     27  C   UNL d   1      34.113 -20.567   4.682  0.00  0.00     0.000 A 
ATOM     28  C   UNL d   1      35.003 -21.227   5.548  0.00  0.00     0.014 A 
ATOM     29  C   UNL d   1      34.539 -22.000   6.617  0.00  0.00     0.003 A 
ATOM     30  C   UNL d   1      33.171 -22.128   6.835  0.00  0.00     0.036 A 
ATOM     31  C   UNL d   1      32.272 -21.477   5.977  0.00  0.00     0.103 A 
ATOM     32  C   UNL d   1      32.735 -20.696   4.902  0.00  0.00     0.050 A 
BRANCH  31  33
ATOM     33  N   UNL d   1      30.829 -21.640   6.200  0.00  0.00    -0.116 N 
ATOM     34  O   UNL d   1      30.117 -21.889   5.216  0.00  0.00    -0.532 OA
ATOM     35  O   UNL d   1      30.405 -21.511   7.357  0.00  0.00    -0.532 OA
ENDBRANCH  31  33
ENDBRANCH  25  27
ENDBRANCH   2  22
TORSDOF 5
ENDMDL
MODEL 8
REMARK VINA RESULT:    -8.613      9.770     12.073
REMARK INTER + INTRA:         -11.570
REMARK INTER:                 -10.105
REMARK INTRA:                  -1.465
REMARK CONF_INDEPENDENT:        1.492
REMARK UNBOUND:                -1.465
REMARK  5 active torsions:
REMARK  status: ('A' for Active; 'I' for Inactive)
REMARK    1  A    between atoms: C_8  and  C_9 
REMARK    2  A    between atoms: C_13  and  N_14 
REMARK       I    between atoms: N_14  and  C_15 
REMARK    3  A    between atoms: C_15  and  C_17 
REMARK    4  A    between atoms: C_20  and  C_21 
REMARK    5  A    between atoms: C_25  and  N_26 
ROOT
ATOM      1  N   UNL d   1      27.489  -9.695   4.263  0.00  0.00    -0.321 N 
ATOM      2  C   UNL d   1      27.919  -8.565   3.557  0.00  0.00     0.280 C 
ATOM      3  O   UNL d   1      28.565  -8.610   2.506  0.00  0.00    -0.265 OA
ATOM      4  H   UNL d   1      26.900  -9.542   5.073  0.00  0.00     0.169 HD
ENDROOT
BRANCH   1   5
ATOM      5  C   UNL d   1      27.738 -11.054   3.899  0.00  0.00     0.035 A 
ATOM      6  C   UNL d   1      28.336 -11.925   4.825  0.00  0.00     0.029 A 
ATOM      7  C   UNL d   1      28.573 -13.269   4.491  0.00  0.00     0.003 A 
ATOM      8  C   UNL d   1      28.214 -13.757   3.232  0.00  0.00     0.016 A 
ATOM      9  C   UNL d   1      27.629 -12.909   2.291  0.00  0.00     0.019 A 
ATOM     10  C   UNL d   1      27.402 -11.571   2.637  0.00  0.00     0.045 A 
BRANCH   9  11
ATOM     11  C   UNL d   1      27.164 -13.436   1.013  0.00  0.00     0.181 A 
ATOM     12  O   UNL d   1      26.707 -14.734   0.984  0.00  0.00    -0.288 OA
ATOM     13  C   UNL d   1      26.317 -14.917  -0.323  0.00  0.00     0.112 A 
ATOM     14  C   UNL d   1      25.751 -16.051  -0.917  0.00  0.00    -0.025 A 
ATOM     15  C   UNL d   1      26.583 -13.735  -0.998  0.00  0.00     0.094 A 
ATOM     16  C   UNL d   1      25.468 -15.925  -2.294  0.00  0.00     0.016 A 
ATOM     17  C   UNL d   1      25.440 -17.327  -0.202  0.00  0.00     0.051 C 
ATOM     18  C   UNL d   1      25.741 -14.754  -3.018  0.00  0.00    -0.059 A 
ATOM     19  C   UNL d   1      25.433 -14.680  -4.485  0.00  0.00     0.048 C 
ATOM     20  C   UNL d   1      26.305 -13.644  -2.367  0.00  0.00     0.041 A 
ATOM     21  N   UNL d   1      27.097 -12.799  -0.140  0.00  0.00    -0.221 NA
ENDBRANCH   9  11
ENDBRANCH   1   5
BRANCH   2  22
ATOM     22  C   UNL d   1      27.589  -7.275   4.139  0.00  0.00     0.144 A 
ATOM     23  C   UNL d   1      27.566  -6.001   3.600  0.00  0.00     0.046 A 
ATOM     24  C   UNL d   1      27.002  -5.153   4.583  0.00  0.00     0.041 A 
ATOM     25  C   UNL d   1      26.735  -5.935   5.684  0.00  0.00     0.086 A 
ATOM     26  O   UNL d   1      27.082  -7.229   5.426  0.00  0.00    -0.304 OA
BRANCH  25  27
ATOM     27  C   UNL d   1      26.129  -5.614   6.971  0.00  0.00     0.000 A 
ATOM     28  C   UNL d   1      26.893  -4.928   7.932  0.00  0.00     0.014 A 
ATOM     29  C   UNL d   1      26.409  -4.712   9.226  0.00  0.00     0.003 A 
ATOM     30  C   UNL d   1      25.148  -5.184   9.581  0.00  0.00     0.036 A 
ATOM     31  C   UNL d   1      24.378  -5.871   8.632  0.00  0.00     0.103 A 
ATOM     32  C   UNL d   1      24.860  -6.089   7.328  0.00  0.00     0.050 A 
BRANCH  31  33
ATOM     33  N   UNL d   1      23.060  -6.389   9.024  0.00  0.00    -0.116 N 
ATOM     34  O   UNL d   1      22.859  -6.604  10.228  0.00  0.00    -0.532 OA
ATOM     35  O   UNL d   1      22.227  -6.588   8.128  0.00  0.00    -0.532 OA
ENDBRANCH  31  33
ENDBRANCH  25  27
ENDBRANCH   2  22
TORSDOF 5
ENDMDL
MODEL 9
REMARK VINA RESULT:    -8.567      4.487     11.411
REMARK INTER + INTRA:         -11.496
REMARK INTER:                 -10.059
REMARK INTRA:                  -1.437
REMARK CONF_INDEPENDENT:        1.492
REMARK UNBOUND:                -1.437
REMARK  5 active torsions:
REMARK  status: ('A' for Active; 'I' for Inactive)
REMARK    1  A    between atoms: C_8  and  C_9 
REMARK    2  A    between atoms: C_13  and  N_14 
REMARK       I    between atoms: N_14  and  C_15 
REMARK    3  A    between atoms: C_15  and  C_17 
REMARK    4  A    between atoms: C_20  and  C_21 
REMARK    5  A    between atoms: C_25  and  N_26 
ROOT
ATOM      1  N   UNL d   1      25.453 -14.467  -2.136  0.00  0.00    -0.321 N 
ATOM      2  C   UNL d   1      25.880 -14.381  -3.467  0.00  0.00     0.280 C 
ATOM      3  O   UNL d   1      26.215 -15.354  -4.150  0.00  0.00    -0.265 OA
ATOM      4  H   UNL d   1      25.129 -13.614  -1.695  0.00  0.00     0.169 HD
ENDROOT
BRANCH   1   5
ATOM      5  C   UNL d   1      25.357 -15.665  -1.364  0.00  0.00     0.035 A 
ATOM      6  C   UNL d   1      26.480 -16.135  -0.663  0.00  0.00     0.029 A 
ATOM      7  C   UNL d   1      26.400 -17.301   0.115  0.00  0.00     0.003 A 
ATOM      8  C   UNL d   1      25.197 -18.008   0.206  0.00  0.00     0.016 A 
ATOM      9  C   UNL d   1      24.070 -17.567  -0.489  0.00  0.00     0.019 A 
ATOM     10  C   UNL d   1      24.167 -16.404  -1.264  0.00  0.00     0.045 A 
BRANCH   9  11
ATOM     11  C   UNL d   1      22.790 -18.244  -0.320  0.00  0.00     0.181 A 
ATOM     12  O   UNL d   1      22.418 -18.603   0.956  0.00  0.00    -0.288 OA
ATOM     13  C   UNL d   1      21.178 -19.175   0.789  0.00  0.00     0.112 A 
ATOM     14  C   UNL d   1      20.318 -19.700   1.761  0.00  0.00    -0.025 A 
ATOM     15  C   UNL d   1      20.894 -19.147  -0.568  0.00  0.00     0.094 A 
ATOM     16  C   UNL d   1      19.108 -20.230   1.264  0.00  0.00     0.016 A 
ATOM     17  C   UNL d   1      20.599 -19.722   3.230  0.00  0.00     0.051 C 
ATOM     18  C   UNL d   1      18.791 -20.239  -0.103  0.00  0.00    -0.059 A 
ATOM     19  C   UNL d   1      17.496 -20.830  -0.578  0.00  0.00     0.048 C 
ATOM     20  C   UNL d   1      19.691 -19.693  -1.033  0.00  0.00     0.041 A 
ATOM     21  N   UNL d   1      21.908 -18.537  -1.256  0.00  0.00    -0.221 NA
ENDBRANCH   9  11
ENDBRANCH   1   5
BRANCH   2  22
ATOM     22  C   UNL d   1      25.945 -13.049  -4.041  0.00  0.00     0.144 A 
ATOM     23  C   UNL d   1      26.006 -12.613  -5.353  0.00  0.00     0.046 A 
ATOM     24  C   UNL d   1      25.875 -11.205  -5.322  0.00  0.00     0.041 A 
ATOM     25  C   UNL d   1      25.770 -10.839  -3.999  0.00  0.00     0.086 A 
ATOM     26  O   UNL d   1      25.806 -11.951  -3.209  0.00  0.00    -0.304 OA
BRANCH  25  27
ATOM     27  C   UNL d   1      25.585  -9.538  -3.369  0.00  0.00     0.000 A 
ATOM     28  C   UNL d   1      25.215  -8.440  -4.167  0.00  0.00     0.014 A 
ATOM     29  C   UNL d   1      25.153  -7.147  -3.641  0.00  0.00     0.003 A 
ATOM     30  C   UNL d   1      25.465  -6.928  -2.302  0.00  0.00     0.036 A 
ATOM     31  C   UNL d   1      25.838  -8.014  -1.497  0.00  0.00     0.103 A 
ATOM     32  C   UNL d   1      25.899  -9.318  -2.022  0.00  0.00     0.050 A 
BRANCH  31  33
ATOM     33  N   UNL d   1      26.192  -7.770  -0.091  0.00  0.00    -0.116 N 
ATOM     34  O   UNL d   1      25.323  -7.978   0.768  0.00  0.00    -0.532 OA
ATOM     35  O   UNL d   1      27.336  -7.362   0.154  0.00  0.00    -0.532 OA
ENDBRANCH  31  33
ENDBRANCH  25  27
ENDBRANCH   2  22
TORSDOF 5
ENDMDL
