MODEL 1
REMARK VINA RESULT:    -8.953      0.000      0.000
REMARK INTER + INTRA:         -12.841
REMARK INTER:                 -11.041
REMARK INTRA:                  -1.799
REMARK CONF_INDEPENDENT:        2.088
REMARK UNBOUND:                -1.799
REMARK  7 active torsions:
REMARK  status: ('A' for Active; 'I' for Inactive)
REMARK    1  A    between atoms: C_2  and  C_14 
REMARK    2  A    between atoms: C_2  and  O_3 
REMARK    3  A    between atoms: O_3  and  C_4 
REMARK    4  A    between atoms: C_4  and  C_6 
REMARK       I    between atoms: C_14  and  N_16 
REMARK    5  A    between atoms: N_16  and  C_17 
REMARK    6  A    between atoms: C_20  and  S_21 
REMARK    7  A    between atoms: S_21  and  N_22 
ROOT
ATOM      1  C   UNL d   1      26.748 -17.069   0.223  0.00  0.00     0.251 C 
ATOM      2  O   UNL d   1      26.611 -17.954   1.064  0.00  0.00    -0.270 OA
ATOM      3  N   UNL d   1      25.777 -16.723  -0.729  0.00  0.00    -0.325 N 
ATOM      4  H   UNL d   1      25.995 -16.066  -1.466  0.00  0.00     0.169 HD
ENDROOT
BRANCH   1   5
ATOM      5  C   UNL d   1      28.057 -16.255   0.099  0.00  0.00     0.220 C 
ATOM      6  C   UNL d   1      28.003 -15.212   1.203  0.00  0.00     0.050 C 
BRANCH   5   7
ATOM      7  O   UNL d   1      28.213 -15.678  -1.226  0.00  0.00    -0.302 OA
BRANCH   7   8
ATOM      8  C   UNL d   1      28.713 -16.211  -2.377  0.00  0.00     0.314 C 
ATOM      9  O   UNL d   1      29.295 -17.293  -2.348  0.00  0.00    -0.257 OA
BRANCH   8  10
ATOM     10  C   UNL d   1      28.489 -15.560  -3.711  0.00  0.00     0.155 C 
ATOM     11  N   UNL d   1      29.464 -15.854  -4.629  0.00  0.00    -0.229 NA
ATOM     12  C   UNL d   1      29.268 -15.444  -5.897  0.00  0.00     0.127 C 
ATOM     13 CL   UNL d   1      30.574 -15.714  -6.972  0.00  0.00    -0.062 Cl
ATOM     14  C   UNL d   1      28.112 -14.833  -6.342  0.00  0.00     0.046 C 
ATOM     15  C   UNL d   1      27.126 -14.551  -5.405  0.00  0.00     0.030 C 
ATOM     16  C   UNL d   1      27.343 -14.833  -4.051  0.00  0.00     0.069 C 
ATOM     17 CL   UNL d   1      26.087 -14.371  -2.970  0.00  0.00    -0.082 Cl
ENDBRANCH   8  10
ENDBRANCH   7   8
ENDBRANCH   5   7
ENDBRANCH   1   5
BRANCH   3  18
ATOM     18  C   UNL d   1      24.490 -17.290  -0.772  0.00  0.00     0.034 A 
ATOM     19  C   UNL d   1      23.356 -16.483  -0.951  0.00  0.00     0.031 A 
ATOM     20  C   UNL d   1      22.075 -17.056  -0.888  0.00  0.00     0.027 A 
ATOM     21  C   UNL d   1      21.945 -18.435  -0.681  0.00  0.00     0.079 A 
ATOM     22  C   UNL d   1      23.072 -19.231  -0.493  0.00  0.00     0.027 A 
ATOM     23  C   UNL d   1      24.335 -18.656  -0.551  0.00  0.00     0.031 A 
BRANCH  21  24
ATOM     24  S   UNL d   1      20.356 -19.218  -0.776  0.00  0.00     0.256 S 
ATOM     25  O   UNL d   1      19.356 -18.199  -0.527  0.00  0.00    -0.201 OA
ATOM     26  O   UNL d   1      20.332 -20.075  -1.932  0.00  0.00    -0.201 OA
BRANCH  24  27
ATOM     27  N   UNL d   1      20.390 -20.214   0.554  0.00  0.00    -0.324 N 
ATOM     28  H   UNL d   1      21.300 -20.466   0.917  0.00  0.00     0.169 HD
ATOM     29  H   UNL d   1      19.570 -20.792   0.708  0.00  0.00     0.169 HD
ENDBRANCH  24  27
ENDBRANCH  21  24
ENDBRANCH   3  18
TORSDOF 7
ENDMDL
MODEL 2
REMARK VINA RESULT:    -8.811      1.083      2.352
REMARK INTER + INTRA:         -13.101
REMARK INTER:                 -10.900
REMARK INTRA:                  -2.201
REMARK CONF_INDEPENDENT:        2.088
REMARK UNBOUND:                -2.201
REMARK  7 active torsions:
REMARK  status: ('A' for Active; 'I' for Inactive)
REMARK    1  A    between atoms: C_2  and  C_14 
REMARK    2  A    between atoms: C_2  and  O_3 
REMARK    3  A    between atoms: O_3  and  C_4 
REMARK    4  A    between atoms: C_4  and  C_6 
REMARK       I    between atoms: C_14  and  N_16 
REMARK    5  A    between atoms: N_16  and  C_17 
REMARK    6  A    between atoms: C_20  and  S_21 
REMARK    7  A    between atoms: S_21  and  N_22 
ROOT
ATOM      1  C   UNL d   1      26.853 -16.931   0.291  0.00  0.00     0.251 C 
ATOM      2  O   UNL d   1      26.851 -17.972   0.942  0.00  0.00    -0.270 OA
ATOM      3  N   UNL d   1      25.781 -16.489  -0.500  0.00  0.00    -0.325 N 
ATOM      4  H   UNL d   1      25.888 -15.683  -1.102  0.00  0.00     0.169 HD
ENDROOT
BRANCH   1   5
ATOM      5  C   UNL d   1      28.086 -15.999   0.244  0.00  0.00     0.220 C 
ATOM      6  C   UNL d   1      27.536 -14.584   0.177  0.00  0.00     0.050 C 
BRANCH   5   7
ATOM      7  O   UNL d   1      28.968 -16.322  -0.866  0.00  0.00    -0.302 OA
BRANCH   7   8
ATOM      8  C   UNL d   1      29.265 -15.626  -2.000  0.00  0.00     0.314 C 
ATOM      9  O   UNL d   1      30.396 -15.173  -2.161  0.00  0.00    -0.257 OA
BRANCH   8  10
ATOM     10  C   UNL d   1      28.274 -15.475  -3.117  0.00  0.00     0.155 C 
ATOM     11  N   UNL d   1      27.059 -14.993  -2.703  0.00  0.00    -0.229 NA
ATOM     12  C   UNL d   1      26.158 -14.678  -3.655  0.00  0.00     0.127 C 
ATOM     13 CL   UNL d   1      24.612 -14.213  -3.084  0.00  0.00    -0.062 Cl
ATOM     14  C   UNL d   1      26.419 -14.722  -5.010  0.00  0.00     0.046 C 
ATOM     15  C   UNL d   1      27.658 -15.200  -5.417  0.00  0.00     0.030 C 
ATOM     16  C   UNL d   1      28.575 -15.670  -4.470  0.00  0.00     0.069 C 
ATOM     17 CL   UNL d   1      30.045 -16.311  -5.091  0.00  0.00    -0.082 Cl
ENDBRANCH   8  10
ENDBRANCH   7   8
ENDBRANCH   5   7
ENDBRANCH   1   5
BRANCH   3  18
ATOM     18  C   UNL d   1      24.539 -17.145  -0.567  0.00  0.00     0.034 A 
ATOM     19  C   UNL d   1      24.466 -18.546  -0.559  0.00  0.00     0.031 A 
ATOM     20  C   UNL d   1      23.226 -19.181  -0.731  0.00  0.00     0.027 A 
ATOM     21  C   UNL d   1      22.068 -18.406  -0.876  0.00  0.00     0.079 A 
ATOM     22  C   UNL d   1      22.145 -17.016  -0.895  0.00  0.00     0.027 A 
ATOM     23  C   UNL d   1      23.377 -16.395  -0.729  0.00  0.00     0.031 A 
BRANCH  21  24
ATOM     24  S   UNL d   1      20.467 -19.170  -0.914  0.00  0.00     0.256 S 
ATOM     25  O   UNL d   1      19.484 -18.129  -0.693  0.00  0.00    -0.201 OA
ATOM     26  O   UNL d   1      20.414 -20.075  -2.033  0.00  0.00    -0.201 OA
BRANCH  24  27
ATOM     27  N   UNL d   1      20.508 -20.111   0.455  0.00  0.00    -0.324 N 
ATOM     28  H   UNL d   1      21.405 -20.498   0.721  0.00  0.00     0.169 HD
ATOM     29  H   UNL d   1      19.632 -20.539   0.738  0.00  0.00     0.169 HD
ENDBRANCH  24  27
ENDBRANCH  21  24
ENDBRANCH   3  18
TORSDOF 7
ENDMDL
MODEL 3
REMARK VINA RESULT:    -8.707      1.429      2.017
REMARK INTER + INTRA:         -12.986
REMARK INTER:                 -10.795
REMARK INTRA:                  -2.191
REMARK CONF_INDEPENDENT:        2.088
REMARK UNBOUND:                -2.191
REMARK  7 active torsions:
REMARK  status: ('A' for Active; 'I' for Inactive)
REMARK    1  A    between atoms: C_2  and  C_14 
REMARK    2  A    between atoms: C_2  and  O_3 
REMARK    3  A    between atoms: O_3  and  C_4 
REMARK    4  A    between atoms: C_4  and  C_6 
REMARK       I    between atoms: C_14  and  N_16 
REMARK    5  A    between atoms: N_16  and  C_17 
REMARK    6  A    between atoms: C_20  and  S_21 
REMARK    7  A    between atoms: S_21  and  N_22 
ROOT
ATOM      1  C   UNL d   1      26.620 -17.055  -0.877  0.00  0.00     0.251 C 
ATOM      2  O   UNL d   1      26.850 -18.123  -0.316  0.00  0.00    -0.270 OA
ATOM      3  N   UNL d   1      25.339 -16.607  -1.234  0.00  0.00    -0.325 N 
ATOM      4  H   UNL d   1      25.227 -15.774  -1.796  0.00  0.00     0.169 HD
ENDROOT
BRANCH   1   5
ATOM      5  C   UNL d   1      27.754 -16.090  -1.292  0.00  0.00     0.220 C 
ATOM      6  C   UNL d   1      28.312 -15.522   0.002  0.00  0.00     0.050 C 
BRANCH   5   7
ATOM      7  O   UNL d   1      27.284 -15.064  -2.210  0.00  0.00    -0.302 OA
BRANCH   7   8
ATOM      8  C   UNL d   1      26.827 -15.157  -3.491  0.00  0.00     0.314 C 
ATOM      9  O   UNL d   1      25.666 -15.499  -3.703  0.00  0.00    -0.257 OA
BRANCH   8  10
ATOM     10  C   UNL d   1      27.675 -14.756  -4.663  0.00  0.00     0.155 C 
ATOM     11  N   UNL d   1      28.547 -15.735  -5.062  0.00  0.00    -0.229 NA
ATOM     12  C   UNL d   1      29.238 -15.526  -6.201  0.00  0.00     0.127 C 
ATOM     13 CL   UNL d   1      30.412 -16.713  -6.582  0.00  0.00    -0.062 Cl
ATOM     14  C   UNL d   1      29.051 -14.438  -7.029  0.00  0.00     0.046 C 
ATOM     15  C   UNL d   1      28.155 -13.457  -6.620  0.00  0.00     0.030 C 
ATOM     16  C   UNL d   1      27.518 -13.563  -5.378  0.00  0.00     0.069 C 
ATOM     17 CL   UNL d   1      26.490 -12.255  -4.940  0.00  0.00    -0.082 Cl
ENDBRANCH   8  10
ENDBRANCH   7   8
ENDBRANCH   5   7
ENDBRANCH   1   5
BRANCH   3  18
ATOM     18  C   UNL d   1      24.154 -17.293  -0.909  0.00  0.00     0.034 A 
ATOM     19  C   UNL d   1      24.194 -18.622  -0.462  0.00  0.00     0.031 A 
ATOM     20  C   UNL d   1      22.996 -19.321  -0.242  0.00  0.00     0.027 A 
ATOM     21  C   UNL d   1      21.771 -18.669  -0.440  0.00  0.00     0.079 A 
ATOM     22  C   UNL d   1      21.735 -17.354  -0.895  0.00  0.00     0.027 A 
ATOM     23  C   UNL d   1      22.925 -16.672  -1.115  0.00  0.00     0.031 A 
BRANCH  21  24
ATOM     24  S   UNL d   1      20.245 -19.460  -0.001  0.00  0.00     0.256 S 
ATOM     25  O   UNL d   1      20.280 -20.802  -0.546  0.00  0.00    -0.201 OA
ATOM     26  O   UNL d   1      19.963 -19.182   1.383  0.00  0.00    -0.201 OA
BRANCH  24  27
ATOM     27  N   UNL d   1      19.144 -18.592  -0.894  0.00  0.00    -0.324 N 
ATOM     28  H   UNL d   1      18.254 -19.035  -1.084  0.00  0.00     0.169 HD
ATOM     29  H   UNL d   1      19.519 -17.861  -1.489  0.00  0.00     0.169 HD
ENDBRANCH  24  27
ENDBRANCH  21  24
ENDBRANCH   3  18
TORSDOF 7
ENDMDL
MODEL 4
REMARK VINA RESULT:    -8.681      3.482      5.610
REMARK INTER + INTRA:         -12.998
REMARK INTER:                 -10.769
REMARK INTRA:                  -2.229
REMARK CONF_INDEPENDENT:        2.088
REMARK UNBOUND:                -2.229
REMARK  7 active torsions:
REMARK  status: ('A' for Active; 'I' for Inactive)
REMARK    1  A    between atoms: C_2  and  C_14 
REMARK    2  A    between atoms: C_2  and  O_3 
REMARK    3  A    between atoms: O_3  and  C_4 
REMARK    4  A    between atoms: C_4  and  C_6 
REMARK       I    between atoms: C_14  and  N_16 
REMARK    5  A    between atoms: N_16  and  C_17 
REMARK    6  A    between atoms: C_20  and  S_21 
REMARK    7  A    between atoms: S_21  and  N_22 
ROOT
ATOM      1  C   UNL d   1      26.884 -16.376  -1.036  0.00  0.00     0.251 C 
ATOM      2  O   UNL d   1      26.711 -16.686  -2.212  0.00  0.00    -0.270 OA
ATOM      3  N   UNL d   1      25.917 -16.518  -0.030  0.00  0.00    -0.325 N 
ATOM      4  H   UNL d   1      26.080 -16.138   0.893  0.00  0.00     0.169 HD
ENDROOT
BRANCH   1   5
ATOM      5  C   UNL d   1      28.206 -15.745  -0.543  0.00  0.00     0.220 C 
ATOM      6  C   UNL d   1      29.240 -16.858  -0.588  0.00  0.00     0.050 C 
BRANCH   5   7
ATOM      7  O   UNL d   1      28.064 -15.150   0.776  0.00  0.00    -0.302 OA
BRANCH   7   8
ATOM      8  C   UNL d   1      27.198 -14.205   1.238  0.00  0.00     0.314 C 
ATOM      9  O   UNL d   1      26.161 -13.971   0.622  0.00  0.00    -0.257 OA
BRANCH   8  10
ATOM     10  C   UNL d   1      27.422 -13.499   2.544  0.00  0.00     0.155 C 
ATOM     11  N   UNL d   1      27.901 -14.321   3.531  0.00  0.00    -0.229 NA
ATOM     12  C   UNL d   1      28.279 -13.746   4.690  0.00  0.00     0.127 C 
ATOM     13 CL   UNL d   1      28.739 -14.828   5.935  0.00  0.00    -0.062 Cl
ATOM     14  C   UNL d   1      28.301 -12.383   4.906  0.00  0.00     0.046 C 
ATOM     15  C   UNL d   1      27.824 -11.558   3.893  0.00  0.00     0.030 C 
ATOM     16  C   UNL d   1      27.292 -12.117   2.726  0.00  0.00     0.069 C 
ATOM     17 CL   UNL d   1      26.660 -11.006   1.574  0.00  0.00    -0.082 Cl
ENDBRANCH   8  10
ENDBRANCH   7   8
ENDBRANCH   5   7
ENDBRANCH   1   5
BRANCH   3  18
ATOM     18  C   UNL d   1      24.660 -17.118  -0.233  0.00  0.00     0.034 A 
ATOM     19  C   UNL d   1      24.513 -18.512  -0.171  0.00  0.00     0.031 A 
ATOM     20  C   UNL d   1      23.274 -19.097  -0.479  0.00  0.00     0.027 A 
ATOM     21  C   UNL d   1      22.188 -18.278  -0.812  0.00  0.00     0.079 A 
ATOM     22  C   UNL d   1      22.340 -16.896  -0.884  0.00  0.00     0.027 A 
ATOM     23  C   UNL d   1      23.571 -16.325  -0.583  0.00  0.00     0.031 A 
BRANCH  21  24
ATOM     24  S   UNL d   1      20.568 -18.968  -1.030  0.00  0.00     0.256 S 
ATOM     25  O   UNL d   1      19.614 -17.885  -0.895  0.00  0.00    -0.201 OA
ATOM     26  O   UNL d   1      20.593 -19.856  -2.162  0.00  0.00    -0.201 OA
BRANCH  24  27
ATOM     27  N   UNL d   1      20.423 -19.925   0.322  0.00  0.00    -0.324 N 
ATOM     28  H   UNL d   1      19.485 -20.134   0.639  0.00  0.00     0.169 HD
ATOM     29  H   UNL d   1      21.221 -19.948   0.949  0.00  0.00     0.169 HD
ENDBRANCH  24  27
ENDBRANCH  21  24
ENDBRANCH   3  18
TORSDOF 7
ENDMDL
MODEL 5
REMARK VINA RESULT:    -8.429      2.426      3.016
REMARK INTER + INTRA:         -12.578
REMARK INTER:                 -10.517
REMARK INTRA:                  -2.061
REMARK CONF_INDEPENDENT:        2.088
REMARK UNBOUND:                -2.061
REMARK  7 active torsions:
REMARK  status: ('A' for Active; 'I' for Inactive)
REMARK    1  A    between atoms: C_2  and  C_14 
REMARK    2  A    between atoms: C_2  and  O_3 
REMARK    3  A    between atoms: O_3  and  C_4 
REMARK    4  A    between atoms: C_4  and  C_6 
REMARK       I    between atoms: C_14  and  N_16 
REMARK    5  A    between atoms: N_16  and  C_17 
REMARK    6  A    between atoms: C_20  and  S_21 
REMARK    7  A    between atoms: S_21  and  N_22 
ROOT
ATOM      1  C   UNL d   1      26.655 -17.039  -0.390  0.00  0.00     0.251 C 
ATOM      2  O   UNL d   1      26.879 -18.234  -0.570  0.00  0.00    -0.270 OA
ATOM      3  N   UNL d   1      25.378 -16.459  -0.422  0.00  0.00    -0.325 N 
ATOM      4  H   UNL d   1      25.272 -15.454  -0.382  0.00  0.00     0.169 HD
ENDROOT
BRANCH   1   5
ATOM      5  C   UNL d   1      27.794 -16.023  -0.145  0.00  0.00     0.220 C 
ATOM      6  C   UNL d   1      27.772 -15.725   1.345  0.00  0.00     0.050 C 
BRANCH   5   7
ATOM      7  O   UNL d   1      27.645 -14.833  -0.968  0.00  0.00    -0.302 OA
BRANCH   7   8
ATOM      8  C   UNL d   1      26.658 -13.894  -1.006  0.00  0.00     0.314 C 
ATOM      9  O   UNL d   1      26.198 -13.446   0.042  0.00  0.00    -0.257 OA
BRANCH   8  10
ATOM     10  C   UNL d   1      26.175 -13.308  -2.300  0.00  0.00     0.155 C 
ATOM     11  N   UNL d   1      26.292 -11.943  -2.356  0.00  0.00    -0.229 NA
ATOM     12  C   UNL d   1      26.029 -11.344  -3.535  0.00  0.00     0.127 C 
ATOM     13 CL   UNL d   1      26.056  -9.632  -3.516  0.00  0.00    -0.062 Cl
ATOM     14  C   UNL d   1      25.744 -12.025  -4.701  0.00  0.00     0.046 C 
ATOM     15  C   UNL d   1      25.639 -13.410  -4.635  0.00  0.00     0.030 C 
ATOM     16  C   UNL d   1      25.766 -14.065  -3.405  0.00  0.00     0.069 C 
ATOM     17 CL   UNL d   1      25.541 -15.770  -3.428  0.00  0.00    -0.082 Cl
ENDBRANCH   8  10
ENDBRANCH   7   8
ENDBRANCH   5   7
ENDBRANCH   1   5
BRANCH   3  18
ATOM     18  C   UNL d   1      24.189 -17.196  -0.575  0.00  0.00     0.034 A 
ATOM     19  C   UNL d   1      22.975 -16.549  -0.849  0.00  0.00     0.031 A 
ATOM     20  C   UNL d   1      21.784 -17.292  -0.895  0.00  0.00     0.027 A 
ATOM     21  C   UNL d   1      21.827 -18.678  -0.699  0.00  0.00     0.079 A 
ATOM     22  C   UNL d   1      23.032 -19.315  -0.415  0.00  0.00     0.027 A 
ATOM     23  C   UNL d   1      24.205 -18.572  -0.367  0.00  0.00     0.031 A 
BRANCH  21  24
ATOM     24  S   UNL d   1      20.373 -19.669  -0.928  0.00  0.00     0.256 S 
ATOM     25  O   UNL d   1      20.297 -20.008  -2.335  0.00  0.00    -0.201 OA
ATOM     26  O   UNL d   1      20.316 -20.654   0.121  0.00  0.00    -0.201 OA
BRANCH  24  27
ATOM     27  N   UNL d   1      19.163 -18.573  -0.617  0.00  0.00    -0.324 N 
ATOM     28  H   UNL d   1      19.084 -18.232   0.333  0.00  0.00     0.169 HD
ATOM     29  H   UNL d   1      18.374 -18.575  -1.256  0.00  0.00     0.169 HD
ENDBRANCH  24  27
ENDBRANCH  21  24
ENDBRANCH   3  18
TORSDOF 7
ENDMDL
MODEL 6
REMARK VINA RESULT:    -8.155      2.914      5.372
REMARK INTER + INTRA:         -12.577
REMARK INTER:                 -10.243
REMARK INTRA:                  -2.334
REMARK CONF_INDEPENDENT:        2.088
REMARK UNBOUND:                -2.334
REMARK  7 active torsions:
REMARK  status: ('A' for Active; 'I' for Inactive)
REMARK    1  A    between atoms: C_2  and  C_14 
REMARK    2  A    between atoms: C_2  and  O_3 
REMARK    3  A    between atoms: O_3  and  C_4 
REMARK    4  A    between atoms: C_4  and  C_6 
REMARK       I    between atoms: C_14  and  N_16 
REMARK    5  A    between atoms: N_16  and  C_17 
REMARK    6  A    between atoms: C_20  and  S_21 
REMARK    7  A    between atoms: S_21  and  N_22 
ROOT
ATOM      1  C   UNL d   1      26.693 -16.202  -1.785  0.00  0.00     0.251 C 
ATOM      2  O   UNL d   1      26.220 -16.097  -2.913  0.00  0.00    -0.270 OA
ATOM      3  N   UNL d   1      25.990 -16.692  -0.673  0.00  0.00    -0.325 N 
ATOM      4  H   UNL d   1      26.399 -16.645   0.251  0.00  0.00     0.169 HD
ENDROOT
BRANCH   1   5
ATOM      5  C   UNL d   1      28.137 -15.757  -1.460  0.00  0.00     0.220 C 
ATOM      6  C   UNL d   1      29.047 -16.703  -2.226  0.00  0.00     0.050 C 
BRANCH   5   7
ATOM      7  O   UNL d   1      28.395 -15.752  -0.028  0.00  0.00    -0.302 OA
BRANCH   7   8
ATOM      8  C   UNL d   1      27.942 -14.923   0.955  0.00  0.00     0.314 C 
ATOM      9  O   UNL d   1      26.754 -14.611   0.994  0.00  0.00    -0.257 OA
BRANCH   8  10
ATOM     10  C   UNL d   1      28.837 -14.450   2.063  0.00  0.00     0.155 C 
ATOM     11  N   UNL d   1      28.224 -14.436   3.288  0.00  0.00    -0.229 NA
ATOM     12  C   UNL d   1      28.991 -14.175   4.365  0.00  0.00     0.127 C 
ATOM     13 CL   UNL d   1      28.154 -14.033   5.853  0.00  0.00    -0.062 Cl
ATOM     14  C   UNL d   1      30.362 -14.016   4.318  0.00  0.00     0.046 C 
ATOM     15  C   UNL d   1      30.975 -14.044   3.071  0.00  0.00     0.030 C 
ATOM     16  C   UNL d   1      30.201 -14.173   1.911  0.00  0.00     0.069 C 
ATOM     17 CL   UNL d   1      31.057 -14.117   0.420  0.00  0.00    -0.082 Cl
ENDBRANCH   8  10
ENDBRANCH   7   8
ENDBRANCH   5   7
ENDBRANCH   1   5
BRANCH   3  18
ATOM     18  C   UNL d   1      24.682 -17.205  -0.741  0.00  0.00     0.034 A 
ATOM     19  C   UNL d   1      23.583 -16.349  -0.906  0.00  0.00     0.031 A 
ATOM     20  C   UNL d   1      22.280 -16.870  -0.867  0.00  0.00     0.027 A 
ATOM     21  C   UNL d   1      22.093 -18.248  -0.698  0.00  0.00     0.079 A 
ATOM     22  C   UNL d   1      23.186 -19.094  -0.523  0.00  0.00     0.027 A 
ATOM     23  C   UNL d   1      24.471 -18.569  -0.558  0.00  0.00     0.031 A 
BRANCH  21  24
ATOM     24  S   UNL d   1      20.475 -18.964  -0.825  0.00  0.00     0.256 S 
ATOM     25  O   UNL d   1      19.523 -17.873  -0.895  0.00  0.00    -0.201 OA
ATOM     26  O   UNL d   1      20.516 -20.032  -1.788  0.00  0.00    -0.201 OA
BRANCH  24  27
ATOM     27  N   UNL d   1      20.301 -19.676   0.667  0.00  0.00    -0.324 N 
ATOM     28  H   UNL d   1      21.044 -19.524   1.339  0.00  0.00     0.169 HD
ATOM     29  H   UNL d   1      19.689 -20.483   0.716  0.00  0.00     0.169 HD
ENDBRANCH  24  27
ENDBRANCH  21  24
ENDBRANCH   3  18
TORSDOF 7
ENDMDL
MODEL 7
REMARK VINA RESULT:    -8.092      3.737      5.457
REMARK INTER + INTRA:         -12.473
REMARK INTER:                 -10.180
REMARK INTRA:                  -2.293
REMARK CONF_INDEPENDENT:        2.088
REMARK UNBOUND:                -2.293
REMARK  7 active torsions:
REMARK  status: ('A' for Active; 'I' for Inactive)
REMARK    1  A    between atoms: C_2  and  C_14 
REMARK    2  A    between atoms: C_2  and  O_3 
REMARK    3  A    between atoms: O_3  and  C_4 
REMARK    4  A    between atoms: C_4  and  C_6 
REMARK       I    between atoms: C_14  and  N_16 
REMARK    5  A    between atoms: N_16  and  C_17 
REMARK    6  A    between atoms: C_20  and  S_21 
REMARK    7  A    between atoms: S_21  and  N_22 
ROOT
ATOM      1  C   UNL d   1      26.864 -16.394  -0.885  0.00  0.00     0.251 C 
ATOM      2  O   UNL d   1      26.793 -16.808  -2.039  0.00  0.00    -0.270 OA
ATOM      3  N   UNL d   1      25.809 -16.441   0.039  0.00  0.00    -0.325 N 
ATOM      4  H   UNL d   1      25.893 -15.980   0.935  0.00  0.00     0.169 HD
ENDROOT
BRANCH   1   5
ATOM      5  C   UNL d   1      28.144 -15.726  -0.334  0.00  0.00     0.220 C 
ATOM      6  C   UNL d   1      29.155 -16.846  -0.156  0.00  0.00     0.050 C 
BRANCH   5   7
ATOM      7  O   UNL d   1      27.886 -14.989   0.894  0.00  0.00    -0.302 OA
BRANCH   7   8
ATOM      8  C   UNL d   1      27.061 -13.933   1.142  0.00  0.00     0.314 C 
ATOM      9  O   UNL d   1      25.992 -13.837   0.545  0.00  0.00    -0.257 OA
BRANCH   8  10
ATOM     10  C   UNL d   1      27.374 -12.920   2.206  0.00  0.00     0.155 C 
ATOM     11  N   UNL d   1      27.051 -11.638   1.846  0.00  0.00    -0.229 NA
ATOM     12  C   UNL d   1      27.150 -10.683   2.792  0.00  0.00     0.127 C 
ATOM     13 CL   UNL d   1      26.869  -9.080   2.257  0.00  0.00    -0.062 Cl
ATOM     14  C   UNL d   1      27.463 -10.933   4.113  0.00  0.00     0.046 C 
ATOM     15  C   UNL d   1      27.777 -12.239   4.469  0.00  0.00     0.030 C 
ATOM     16  C   UNL d   1      27.823 -13.241   3.492  0.00  0.00     0.069 C 
ATOM     17 CL   UNL d   1      28.298 -14.804   4.031  0.00  0.00    -0.082 Cl
ENDBRANCH   8  10
ENDBRANCH   7   8
ENDBRANCH   5   7
ENDBRANCH   1   5
BRANCH   3  18
ATOM     18  C   UNL d   1      24.569 -17.052  -0.222  0.00  0.00     0.034 A 
ATOM     19  C   UNL d   1      23.436 -16.279  -0.517  0.00  0.00     0.031 A 
ATOM     20  C   UNL d   1      22.187 -16.902  -0.672  0.00  0.00     0.027 A 
ATOM     21  C   UNL d   1      22.093 -18.296  -0.564  0.00  0.00     0.079 A 
ATOM     22  C   UNL d   1      23.217 -19.059  -0.261  0.00  0.00     0.027 A 
ATOM     23  C   UNL d   1      24.448 -18.434  -0.103  0.00  0.00     0.031 A 
BRANCH  21  24
ATOM     24  S   UNL d   1      20.571 -19.130  -0.932  0.00  0.00     0.256 S 
ATOM     25  O   UNL d   1      19.489 -18.258  -0.522  0.00  0.00    -0.201 OA
ATOM     26  O   UNL d   1      20.664 -19.700  -2.250  0.00  0.00    -0.201 OA
BRANCH  24  27
ATOM     27  N   UNL d   1      20.615 -20.401   0.139  0.00  0.00    -0.324 N 
ATOM     28  H   UNL d   1      19.758 -20.926   0.266  0.00  0.00     0.169 HD
ATOM     29  H   UNL d   1      21.336 -20.368   0.852  0.00  0.00     0.169 HD
ENDBRANCH  24  27
ENDBRANCH  21  24
ENDBRANCH   3  18
TORSDOF 7
ENDMDL
MODEL 8
REMARK VINA RESULT:    -8.092      4.398      7.190
REMARK INTER + INTRA:         -12.677
REMARK INTER:                 -10.180
REMARK INTRA:                  -2.497
REMARK CONF_INDEPENDENT:        2.088
REMARK UNBOUND:                -2.497
REMARK  7 active torsions:
REMARK  status: ('A' for Active; 'I' for Inactive)
REMARK    1  A    between atoms: C_2  and  C_14 
REMARK    2  A    between atoms: C_2  and  O_3 
REMARK    3  A    between atoms: O_3  and  C_4 
REMARK    4  A    between atoms: C_4  and  C_6 
REMARK       I    between atoms: C_14  and  N_16 
REMARK    5  A    between atoms: N_16  and  C_17 
REMARK    6  A    between atoms: C_20  and  S_21 
REMARK    7  A    between atoms: S_21  and  N_22 
ROOT
ATOM      1  C   UNL d   1      27.074 -12.538  -1.642  0.00  0.00     0.251 C 
ATOM      2  O   UNL d   1      28.137 -11.954  -1.452  0.00  0.00    -0.270 OA
ATOM      3  N   UNL d   1      26.436 -13.350  -0.692  0.00  0.00    -0.325 N 
ATOM      4  H   UNL d   1      25.623 -13.895  -0.948  0.00  0.00     0.169 HD
ENDROOT
BRANCH   1   5
ATOM      5  C   UNL d   1      26.333 -12.466  -2.996  0.00  0.00     0.220 C 
ATOM      6  C   UNL d   1      25.901 -11.018  -3.159  0.00  0.00     0.050 C 
BRANCH   5   7
ATOM      7  O   UNL d   1      25.222 -13.403  -3.058  0.00  0.00    -0.302 OA
BRANCH   7   8
ATOM      8  C   UNL d   1      25.202 -14.746  -3.291  0.00  0.00     0.314 C 
ATOM      9  O   UNL d   1      25.184 -15.167  -4.446  0.00  0.00    -0.257 OA
BRANCH   8  10
ATOM     10  C   UNL d   1      25.300 -15.743  -2.174  0.00  0.00     0.155 C 
ATOM     11  N   UNL d   1      24.079 -16.152  -1.702  0.00  0.00    -0.229 NA
ATOM     12  C   UNL d   1      24.064 -17.160  -0.807  0.00  0.00     0.127 C 
ATOM     13 CL   UNL d   1      22.530 -17.539  -0.146  0.00  0.00    -0.062 Cl
ATOM     14  C   UNL d   1      25.187 -17.861  -0.413  0.00  0.00     0.046 C 
ATOM     15  C   UNL d   1      26.417 -17.445  -0.908  0.00  0.00     0.030 C 
ATOM     16  C   UNL d   1      26.498 -16.316  -1.731  0.00  0.00     0.069 C 
ATOM     17 CL   UNL d   1      28.078 -15.847  -2.221  0.00  0.00    -0.082 Cl
ENDBRANCH   8  10
ENDBRANCH   7   8
ENDBRANCH   5   7
ENDBRANCH   1   5
BRANCH   3  18
ATOM     18  C   UNL d   1      26.897 -13.519   0.626  0.00  0.00     0.034 A 
ATOM     19  C   UNL d   1      26.727 -12.505   1.581  0.00  0.00     0.031 A 
ATOM     20  C   UNL d   1      27.285 -12.652   2.861  0.00  0.00     0.027 A 
ATOM     21  C   UNL d   1      27.978 -13.826   3.182  0.00  0.00     0.079 A 
ATOM     22  C   UNL d   1      28.154 -14.826   2.229  0.00  0.00     0.027 A 
ATOM     23  C   UNL d   1      27.603 -14.671   0.963  0.00  0.00     0.031 A 
BRANCH  21  24
ATOM     24  S   UNL d   1      28.538 -14.122   4.839  0.00  0.00     0.256 S 
ATOM     25  O   UNL d   1      28.756 -12.831   5.460  0.00  0.00    -0.201 OA
ATOM     26  O   UNL d   1      27.718 -15.148   5.428  0.00  0.00    -0.201 OA
BRANCH  24  27
ATOM     27  N   UNL d   1      30.032 -14.801   4.575  0.00  0.00    -0.324 N 
ATOM     28  H   UNL d   1      30.051 -15.743   4.203  0.00  0.00     0.169 HD
ATOM     29  H   UNL d   1      30.805 -14.419   5.111  0.00  0.00     0.169 HD
ENDBRANCH  24  27
ENDBRANCH  21  24
ENDBRANCH   3  18
TORSDOF 7
ENDMDL
MODEL 9
REMARK VINA RESULT:    -7.943      1.995      2.409
REMARK INTER + INTRA:         -12.632
REMARK INTER:                 -10.031
REMARK INTRA:                  -2.601
REMARK CONF_INDEPENDENT:        2.088
REMARK UNBOUND:                -2.601
REMARK  7 active torsions:
REMARK  status: ('A' for Active; 'I' for Inactive)
REMARK    1  A    between atoms: C_2  and  C_14 
REMARK    2  A    between atoms: C_2  and  O_3 
REMARK    3  A    between atoms: O_3  and  C_4 
REMARK    4  A    between atoms: C_4  and  C_6 
REMARK       I    between atoms: C_14  and  N_16 
REMARK    5  A    between atoms: N_16  and  C_17 
REMARK    6  A    between atoms: C_20  and  S_21 
REMARK    7  A    between atoms: S_21  and  N_22 
ROOT
ATOM      1  C   UNL d   1      26.897 -16.689   0.380  0.00  0.00     0.251 C 
ATOM      2  O   UNL d   1      26.722 -17.532   1.256  0.00  0.00    -0.270 OA
ATOM      3  N   UNL d   1      25.967 -16.389  -0.627  0.00  0.00    -0.325 N 
ATOM      4  H   UNL d   1      26.217 -15.769  -1.386  0.00  0.00     0.169 HD
ENDROOT
BRANCH   1   5
ATOM      5  C   UNL d   1      28.210 -15.880   0.274  0.00  0.00     0.220 C 
ATOM      6  C   UNL d   1      28.351 -15.141   1.595  0.00  0.00     0.050 C 
BRANCH   5   7
ATOM      7  O   UNL d   1      28.210 -14.994  -0.879  0.00  0.00    -0.302 OA
BRANCH   7   8
ATOM      8  C   UNL d   1      27.614 -13.784  -1.072  0.00  0.00     0.314 C 
ATOM      9  O   UNL d   1      27.657 -12.932  -0.188  0.00  0.00    -0.257 OA
BRANCH   8  10
ATOM     10  C   UNL d   1      26.982 -13.415  -2.383  0.00  0.00     0.155 C 
ATOM     11  N   UNL d   1      26.651 -14.501  -3.151  0.00  0.00    -0.229 NA
ATOM     12  C   UNL d   1      25.939 -14.275  -4.273  0.00  0.00     0.127 C 
ATOM     13 CL   UNL d   1      25.670 -15.644  -5.266  0.00  0.00    -0.062 Cl
ATOM     14  C   UNL d   1      25.449 -13.038  -4.642  0.00  0.00     0.046 C 
ATOM     15  C   UNL d   1      25.782 -11.946  -3.849  0.00  0.00     0.030 C 
ATOM     16  C   UNL d   1      26.634 -12.110  -2.751  0.00  0.00     0.069 C 
ATOM     17 CL   UNL d   1      27.040 -10.679  -1.887  0.00  0.00    -0.082 Cl
ENDBRANCH   8  10
ENDBRANCH   7   8
ENDBRANCH   5   7
ENDBRANCH   1   5
BRANCH   3  18
ATOM     18  C   UNL d   1      24.683 -16.960  -0.699  0.00  0.00     0.034 A 
ATOM     19  C   UNL d   1      23.546 -16.150  -0.837  0.00  0.00     0.031 A 
ATOM     20  C   UNL d   1      22.267 -16.730  -0.802  0.00  0.00     0.027 A 
ATOM     21  C   UNL d   1      22.144 -18.119  -0.665  0.00  0.00     0.079 A 
ATOM     22  C   UNL d   1      23.274 -18.918  -0.517  0.00  0.00     0.027 A 
ATOM     23  C   UNL d   1      24.535 -18.335  -0.547  0.00  0.00     0.031 A 
BRANCH  21  24
ATOM     24  S   UNL d   1      20.558 -18.903  -0.798  0.00  0.00     0.256 S 
ATOM     25  O   UNL d   1      19.563 -17.854  -0.895  0.00  0.00    -0.201 OA
ATOM     26  O   UNL d   1      20.655 -19.983  -1.745  0.00  0.00    -0.201 OA
BRANCH  24  27
ATOM     27  N   UNL d   1      20.397 -19.600   0.702  0.00  0.00    -0.324 N 
ATOM     28  H   UNL d   1      19.832 -19.105   1.382  0.00  0.00     0.169 HD
ATOM     29  H   UNL d   1      21.124 -20.252   0.980  0.00  0.00     0.169 HD
ENDBRANCH  24  27
ENDBRANCH  21  24
ENDBRANCH   3  18
TORSDOF 7
ENDMDL
