MODEL 1
REMARK VINA RESULT:    -7.624      0.000      0.000
REMARK INTER + INTRA:         -15.772
REMARK INTER:                 -10.905
REMARK INTRA:                  -4.867
REMARK CONF_INDEPENDENT:        3.281
REMARK UNBOUND:                -4.867
REMARK  11 active torsions:
REMARK  status: ('A' for Active; 'I' for Inactive)
REMARK    1  A    between atoms: O_2  and  C_3 
REMARK    2  A    between atoms: C_6  and  N_7 
REMARK    3  A    between atoms: C_8  and  S_9 
REMARK    4  A    between atoms: S_9  and  C_10 
REMARK    5  A    between atoms: C_10  and  C_11 
REMARK    6  A    between atoms: C_11  and  N_12 
REMARK    7  A    between atoms: N_12  and  C_13 
REMARK    8  A    between atoms: C_13  and  C_14 
REMARK    9  A    between atoms: C_14  and  O_15 
REMARK   10  A    between atoms: C_18  and  C_19 
REMARK   11  A    between atoms: C_22  and  C_23 
ROOT
ATOM      1  N   UNL d   1      27.999 -15.369   0.149  0.00  0.00    -0.271 N 
ATOM      2  C   UNL d   1      28.123 -14.368   1.111  0.00  0.00     0.196 A 
ATOM      3  N   UNL d   1      29.384 -14.001   1.190  0.00  0.00    -0.122 NA
ATOM      4  N   UNL d   1      30.113 -14.727   0.297  0.00  0.00    -0.128 NA
ATOM      5  C   UNL d   1      29.293 -15.520  -0.352  0.00  0.00     0.169 A 
ENDROOT
BRANCH   2   6
ATOM      6  S   UNL d   1      27.017 -13.697   2.277  0.00  0.00    -0.088 SA
BRANCH   6   7
ATOM      7  C   UNL d   1      27.891 -13.129   3.724  0.00  0.00     0.110 C 
BRANCH   7   8
ATOM      8  C   UNL d   1      28.445 -14.306   4.539  0.00  0.00     0.243 C 
BRANCH   8   9
ATOM      9  N   UNL d   1      29.696 -14.825   3.866  0.00  0.00    -0.072 N 
ATOM     10  H   UNL d   1      29.472 -15.110   2.903  0.00  0.00     0.277 HD
ATOM     11  H   UNL d   1      30.019 -15.675   4.353  0.00  0.00     0.277 HD
BRANCH   9  12
ATOM     12  C   UNL d   1      30.819 -13.835   3.843  0.00  0.00     0.258 C 
BRANCH  12  13
ATOM     13  C   UNL d   1      31.909 -14.264   2.860  0.00  0.00     0.191 C 
BRANCH  13  14
ATOM     14  O   UNL d   1      31.611 -15.546   2.334  0.00  0.00    -0.399 OA
ATOM     15  H   UNL d   1      30.689 -15.574   2.021  0.00  0.00     0.209 HD
ENDBRANCH  13  14
ENDBRANCH  12  13
ENDBRANCH   9  12
ENDBRANCH   8   9
ENDBRANCH   7   8
ENDBRANCH   6   7
ENDBRANCH   2   6
BRANCH   1  16
ATOM     16  C   UNL d   1      26.877 -16.135  -0.264  0.00  0.00     0.043 A 
ATOM     17  C   UNL d   1      26.643 -17.401   0.269  0.00  0.00     0.033 A 
ATOM     18  C   UNL d   1      25.540 -18.145  -0.171  0.00  0.00     0.039 A 
ATOM     19  C   UNL d   1      24.627 -17.611  -1.089  0.00  0.00     0.068 A 
ATOM     20  C   UNL d   1      24.814 -16.311  -1.550  0.00  0.00     0.039 A 
ATOM     21  C   UNL d   1      25.929 -15.567  -1.131  0.00  0.00     0.033 A 
BRANCH  19  22
ATOM     22  O   UNL d   1      23.556 -18.414  -1.361  0.00  0.00    -0.356 OA
ATOM     23  C   UNL d   1      22.660 -18.715  -0.296  0.00  0.00     0.210 C 
ENDBRANCH  19  22
ENDBRANCH   1  16
BRANCH   5  24
ATOM     24  C   UNL d   1      29.672 -16.323  -1.509  0.00  0.00     0.012 A 
ATOM     25  C   UNL d   1      29.262 -15.963  -2.794  0.00  0.00     0.016 A 
ATOM     26  C   UNL d   1      29.614 -16.756  -3.890  0.00  0.00     0.009 A 
ATOM     27  C   UNL d   1      30.422 -17.898  -3.734  0.00  0.00    -0.051 A 
ATOM     28  C   UNL d   1      30.785 -18.264  -2.428  0.00  0.00     0.009 A 
ATOM     29  C   UNL d   1      30.409 -17.493  -1.331  0.00  0.00     0.016 A 
BRANCH  27  30
ATOM     30  C   UNL d   1      30.923 -18.672  -4.962  0.00  0.00    -0.024 C 
ATOM     31  C   UNL d   1      30.406 -20.123  -4.935  0.00  0.00     0.019 C 
ATOM     32  C   UNL d   1      30.407 -17.973  -6.239  0.00  0.00     0.019 C 
ATOM     33  C   UNL d   1      32.464 -18.716  -5.049  0.00  0.00     0.019 C 
ENDBRANCH  27  30
ENDBRANCH   5  24
TORSDOF 11
ENDMDL
MODEL 2
REMARK VINA RESULT:    -7.128      1.161      1.860
REMARK INTER + INTRA:         -14.691
REMARK INTER:                 -10.409
REMARK INTRA:                  -4.282
REMARK CONF_INDEPENDENT:        3.281
REMARK UNBOUND:                -4.282
REMARK  11 active torsions:
REMARK  status: ('A' for Active; 'I' for Inactive)
REMARK    1  A    between atoms: O_2  and  C_3 
REMARK    2  A    between atoms: C_6  and  N_7 
REMARK    3  A    between atoms: C_8  and  S_9 
REMARK    4  A    between atoms: S_9  and  C_10 
REMARK    5  A    between atoms: C_10  and  C_11 
REMARK    6  A    between atoms: C_11  and  N_12 
REMARK    7  A    between atoms: N_12  and  C_13 
REMARK    8  A    between atoms: C_13  and  C_14 
REMARK    9  A    between atoms: C_14  and  O_15 
REMARK   10  A    between atoms: C_18  and  C_19 
REMARK   11  A    between atoms: C_22  and  C_23 
ROOT
ATOM      1  N   UNL d   1      28.128 -15.053   0.685  0.00  0.00    -0.271 N 
ATOM      2  C   UNL d   1      28.312 -14.334   1.864  0.00  0.00     0.196 A 
ATOM      3  N   UNL d   1      29.488 -13.747   1.831  0.00  0.00    -0.122 NA
ATOM      4  N   UNL d   1      30.101 -14.049   0.653  0.00  0.00    -0.128 NA
ATOM      5  C   UNL d   1      29.286 -14.798  -0.053  0.00  0.00     0.169 A 
ENDROOT
BRANCH   2   6
ATOM      6  S   UNL d   1      27.406 -14.233   3.348  0.00  0.00    -0.088 SA
BRANCH   6   7
ATOM      7  C   UNL d   1      28.440 -14.617   4.748  0.00  0.00     0.110 C 
BRANCH   7   8
ATOM      8  C   UNL d   1      29.883 -14.143   4.524  0.00  0.00     0.243 C 
BRANCH   8   9
ATOM      9  N   UNL d   1      30.633 -15.199   3.743  0.00  0.00    -0.072 N 
ATOM     10  H   UNL d   1      30.053 -15.515   2.953  0.00  0.00     0.277 HD
ATOM     11  H   UNL d   1      30.784 -16.025   4.342  0.00  0.00     0.277 HD
BRANCH   9  12
ATOM     12  C   UNL d   1      31.961 -14.735   3.230  0.00  0.00     0.258 C 
BRANCH  12  13
ATOM     13  C   UNL d   1      32.502 -15.690   2.165  0.00  0.00     0.191 C 
BRANCH  13  14
ATOM     14  O   UNL d   1      31.441 -16.166   1.355  0.00  0.00    -0.399 OA
ATOM     15  H   UNL d   1      30.587 -15.852   1.703  0.00  0.00     0.209 HD
ENDBRANCH  13  14
ENDBRANCH  12  13
ENDBRANCH   9  12
ENDBRANCH   8   9
ENDBRANCH   7   8
ENDBRANCH   6   7
ENDBRANCH   2   6
BRANCH   1  16
ATOM     16  C   UNL d   1      27.070 -15.901   0.261  0.00  0.00     0.043 A 
ATOM     17  C   UNL d   1      26.092 -15.435  -0.616  0.00  0.00     0.033 A 
ATOM     18  C   UNL d   1      25.047 -16.286  -1.003  0.00  0.00     0.039 A 
ATOM     19  C   UNL d   1      25.006 -17.619  -0.579  0.00  0.00     0.068 A 
ATOM     20  C   UNL d   1      26.034 -18.106   0.223  0.00  0.00     0.039 A 
ATOM     21  C   UNL d   1      27.073 -17.255   0.633  0.00  0.00     0.033 A 
BRANCH  19  22
ATOM     22  O   UNL d   1      23.980 -18.353  -1.103  0.00  0.00    -0.356 OA
ATOM     23  C   UNL d   1      22.688 -18.203  -0.522  0.00  0.00     0.210 C 
ENDBRANCH  19  22
ENDBRANCH   1  16
BRANCH   5  24
ATOM     24  C   UNL d   1      29.513 -15.175  -1.443  0.00  0.00     0.012 A 
ATOM     25  C   UNL d   1      29.051 -14.372  -2.486  0.00  0.00     0.016 A 
ATOM     26  C   UNL d   1      29.257 -14.759  -3.813  0.00  0.00     0.009 A 
ATOM     27  C   UNL d   1      29.968 -15.933  -4.128  0.00  0.00    -0.051 A 
ATOM     28  C   UNL d   1      30.384 -16.747  -3.063  0.00  0.00     0.009 A 
ATOM     29  C   UNL d   1      30.152 -16.378  -1.740  0.00  0.00     0.016 A 
BRANCH  27  30
ATOM     30  C   UNL d   1      30.315 -16.267  -5.587  0.00  0.00    -0.024 C 
ATOM     31  C   UNL d   1      29.299 -15.620  -6.546  0.00  0.00     0.019 C 
ATOM     32  C   UNL d   1      31.727 -15.727  -5.903  0.00  0.00     0.019 C 
ATOM     33  C   UNL d   1      30.330 -17.787  -5.860  0.00  0.00     0.019 C 
ENDBRANCH  27  30
ENDBRANCH   5  24
TORSDOF 11
ENDMDL
MODEL 3
REMARK VINA RESULT:    -7.034      3.509      5.897
REMARK INTER + INTRA:         -15.882
REMARK INTER:                 -10.315
REMARK INTRA:                  -5.566
REMARK CONF_INDEPENDENT:        3.281
REMARK UNBOUND:                -5.566
REMARK  11 active torsions:
REMARK  status: ('A' for Active; 'I' for Inactive)
REMARK    1  A    between atoms: O_2  and  C_3 
REMARK    2  A    between atoms: C_6  and  N_7 
REMARK    3  A    between atoms: C_8  and  S_9 
REMARK    4  A    between atoms: S_9  and  C_10 
REMARK    5  A    between atoms: C_10  and  C_11 
REMARK    6  A    between atoms: C_11  and  N_12 
REMARK    7  A    between atoms: N_12  and  C_13 
REMARK    8  A    between atoms: C_13  and  C_14 
REMARK    9  A    between atoms: C_14  and  O_15 
REMARK   10  A    between atoms: C_18  and  C_19 
REMARK   11  A    between atoms: C_22  and  C_23 
ROOT
ATOM      1  N   UNL d   1      29.323 -15.152   0.227  0.00  0.00    -0.271 N 
ATOM      2  C   UNL d   1      30.702 -15.209   0.031  0.00  0.00     0.196 A 
ATOM      3  N   UNL d   1      31.027 -16.411  -0.393  0.00  0.00    -0.122 NA
ATOM      4  N   UNL d   1      29.897 -17.165  -0.493  0.00  0.00    -0.128 NA
ATOM      5  C   UNL d   1      28.873 -16.416  -0.160  0.00  0.00     0.169 A 
ENDROOT
BRANCH   2   6
ATOM      6  S   UNL d   1      32.001 -14.109   0.399  0.00  0.00    -0.088 SA
BRANCH   6   7
ATOM      7  C   UNL d   1      32.909 -14.660   1.832  0.00  0.00     0.110 C 
BRANCH   7   8
ATOM      8  C   UNL d   1      32.094 -15.666   2.657  0.00  0.00     0.243 C 
BRANCH   8   9
ATOM      9  N   UNL d   1      31.906 -16.929   1.847  0.00  0.00    -0.072 N 
ATOM     10  H   UNL d   1      32.342 -16.810   0.922  0.00  0.00     0.277 HD
ATOM     11  H   UNL d   1      30.900 -17.079   1.676  0.00  0.00     0.277 HD
BRANCH   9  12
ATOM     12  C   UNL d   1      32.464 -18.152   2.505  0.00  0.00     0.258 C 
BRANCH  12  13
ATOM     13  C   UNL d   1      32.642 -19.287   1.495  0.00  0.00     0.191 C 
BRANCH  13  14
ATOM     14  O   UNL d   1      32.061 -18.927   0.253  0.00  0.00    -0.399 OA
ATOM     15  H   UNL d   1      31.177 -18.542   0.395  0.00  0.00     0.209 HD
ENDBRANCH  13  14
ENDBRANCH  12  13
ENDBRANCH   9  12
ENDBRANCH   8   9
ENDBRANCH   7   8
ENDBRANCH   6   7
ENDBRANCH   2   6
BRANCH   1  16
ATOM     16  C   UNL d   1      28.492 -14.117   0.732  0.00  0.00     0.043 A 
ATOM     17  C   UNL d   1      28.207 -12.993  -0.040  0.00  0.00     0.033 A 
ATOM     18  C   UNL d   1      27.400 -11.976   0.489  0.00  0.00     0.039 A 
ATOM     19  C   UNL d   1      26.817 -12.101   1.755  0.00  0.00     0.068 A 
ATOM     20  C   UNL d   1      27.031 -13.266   2.486  0.00  0.00     0.039 A 
ATOM     21  C   UNL d   1      27.856 -14.280   1.973  0.00  0.00     0.033 A 
BRANCH  19  22
ATOM     22  O   UNL d   1      25.988 -11.074   2.105  0.00  0.00    -0.356 OA
ATOM     23  C   UNL d   1      26.519  -9.753   2.097  0.00  0.00     0.210 C 
ENDBRANCH  19  22
ENDBRANCH   1  16
BRANCH   5  24
ATOM     24  C   UNL d   1      27.479 -16.815  -0.312  0.00  0.00     0.012 A 
ATOM     25  C   UNL d   1      26.913 -17.773   0.530  0.00  0.00     0.016 A 
ATOM     26  C   UNL d   1      25.582 -18.160   0.356  0.00  0.00     0.009 A 
ATOM     27  C   UNL d   1      24.772 -17.567  -0.631  0.00  0.00    -0.051 A 
ATOM     28  C   UNL d   1      25.375 -16.639  -1.495  0.00  0.00     0.009 A 
ATOM     29  C   UNL d   1      26.711 -16.274  -1.343  0.00  0.00     0.016 A 
BRANCH  27  30
ATOM     30  C   UNL d   1      23.274 -17.896  -0.712  0.00  0.00    -0.024 C 
ATOM     31  C   UNL d   1      22.992 -18.848  -1.890  0.00  0.00     0.019 C 
ATOM     32  C   UNL d   1      22.838 -18.574   0.605  0.00  0.00     0.019 C 
ATOM     33  C   UNL d   1      22.399 -16.636  -0.895  0.00  0.00     0.019 C 
ENDBRANCH  27  30
ENDBRANCH   5  24
TORSDOF 11
ENDMDL
MODEL 4
REMARK VINA RESULT:    -6.544      4.098      7.385
REMARK INTER + INTRA:         -14.718
REMARK INTER:                  -9.826
REMARK INTRA:                  -4.892
REMARK CONF_INDEPENDENT:        3.281
REMARK UNBOUND:                -4.892
REMARK  11 active torsions:
REMARK  status: ('A' for Active; 'I' for Inactive)
REMARK    1  A    between atoms: O_2  and  C_3 
REMARK    2  A    between atoms: C_6  and  N_7 
REMARK    3  A    between atoms: C_8  and  S_9 
REMARK    4  A    between atoms: S_9  and  C_10 
REMARK    5  A    between atoms: C_10  and  C_11 
REMARK    6  A    between atoms: C_11  and  N_12 
REMARK    7  A    between atoms: N_12  and  C_13 
REMARK    8  A    between atoms: C_13  and  C_14 
REMARK    9  A    between atoms: C_14  and  O_15 
REMARK   10  A    between atoms: C_18  and  C_19 
REMARK   11  A    between atoms: C_22  and  C_23 
ROOT
ATOM      1  N   UNL d   1      26.511 -14.093  -1.649  0.00  0.00    -0.271 N 
ATOM      2  C   UNL d   1      26.596 -13.499  -2.907  0.00  0.00     0.196 A 
ATOM      3  N   UNL d   1      27.175 -12.324  -2.789  0.00  0.00    -0.122 NA
ATOM      4  N   UNL d   1      27.488 -12.113  -1.480  0.00  0.00    -0.128 NA
ATOM      5  C   UNL d   1      27.129 -13.175  -0.798  0.00  0.00     0.169 A 
ENDROOT
BRANCH   2   6
ATOM      6  S   UNL d   1      25.951 -13.923  -4.468  0.00  0.00    -0.088 SA
BRANCH   6   7
ATOM      7  C   UNL d   1      27.052 -13.403  -5.770  0.00  0.00     0.110 C 
BRANCH   7   8
ATOM      8  C   UNL d   1      26.878 -11.910  -6.086  0.00  0.00     0.243 C 
BRANCH   8   9
ATOM      9  N   UNL d   1      25.798 -11.341  -5.193  0.00  0.00    -0.072 N 
ATOM     10  H   UNL d   1      25.972 -11.629  -4.220  0.00  0.00     0.277 HD
ATOM     11  H   UNL d   1      24.887 -11.746  -5.457  0.00  0.00     0.277 HD
BRANCH   9  12
ATOM     12  C   UNL d   1      25.691  -9.849  -5.258  0.00  0.00     0.258 C 
BRANCH  12  13
ATOM     13  C   UNL d   1      25.687  -9.238  -3.856  0.00  0.00     0.191 C 
BRANCH  13  14
ATOM     14  O   UNL d   1      25.505 -10.253  -2.884  0.00  0.00    -0.399 OA
ATOM     15  H   UNL d   1      26.365 -10.635  -2.633  0.00  0.00     0.209 HD
ENDBRANCH  13  14
ENDBRANCH  12  13
ENDBRANCH   9  12
ENDBRANCH   8   9
ENDBRANCH   7   8
ENDBRANCH   6   7
ENDBRANCH   2   6
BRANCH   1  16
ATOM     16  C   UNL d   1      25.923 -15.315  -1.230  0.00  0.00     0.043 A 
ATOM     17  C   UNL d   1      24.594 -15.609  -1.534  0.00  0.00     0.033 A 
ATOM     18  C   UNL d   1      24.032 -16.813  -1.091  0.00  0.00     0.039 A 
ATOM     19  C   UNL d   1      24.801 -17.761  -0.406  0.00  0.00     0.068 A 
ATOM     20  C   UNL d   1      26.150 -17.505  -0.183  0.00  0.00     0.039 A 
ATOM     21  C   UNL d   1      26.716 -16.290  -0.605  0.00  0.00     0.033 A 
BRANCH  19  22
ATOM     22  O   UNL d   1      24.145 -18.923  -0.111  0.00  0.00    -0.356 OA
ATOM     23  C   UNL d   1      22.774 -19.029  -0.484  0.00  0.00     0.210 C 
ENDBRANCH  19  22
ENDBRANCH   1  16
BRANCH   5  24
ATOM     24  C   UNL d   1      27.460 -13.401   0.605  0.00  0.00     0.012 A 
ATOM     25  C   UNL d   1      28.531 -14.219   0.964  0.00  0.00     0.016 A 
ATOM     26  C   UNL d   1      28.821 -14.443   2.312  0.00  0.00     0.009 A 
ATOM     27  C   UNL d   1      28.077 -13.818   3.331  0.00  0.00    -0.051 A 
ATOM     28  C   UNL d   1      26.977 -13.035   2.947  0.00  0.00     0.009 A 
ATOM     29  C   UNL d   1      26.668 -12.836   1.604  0.00  0.00     0.016 A 
BRANCH  27  30
ATOM     30  C   UNL d   1      28.500 -13.956   4.802  0.00  0.00    -0.024 C 
ATOM     31  C   UNL d   1      27.844 -15.195   5.439  0.00  0.00     0.019 C 
ATOM     32  C   UNL d   1      30.036 -14.103   4.869  0.00  0.00     0.019 C 
ATOM     33  C   UNL d   1      28.116 -12.723   5.648  0.00  0.00     0.019 C 
ENDBRANCH  27  30
ENDBRANCH   5  24
TORSDOF 11
ENDMDL
MODEL 5
REMARK VINA RESULT:    -6.506      3.736      9.364
REMARK INTER + INTRA:         -14.455
REMARK INTER:                  -9.787
REMARK INTRA:                  -4.667
REMARK CONF_INDEPENDENT:        3.281
REMARK UNBOUND:                -4.667
REMARK  11 active torsions:
REMARK  status: ('A' for Active; 'I' for Inactive)
REMARK    1  A    between atoms: O_2  and  C_3 
REMARK    2  A    between atoms: C_6  and  N_7 
REMARK    3  A    between atoms: C_8  and  S_9 
REMARK    4  A    between atoms: S_9  and  C_10 
REMARK    5  A    between atoms: C_10  and  C_11 
REMARK    6  A    between atoms: C_11  and  N_12 
REMARK    7  A    between atoms: N_12  and  C_13 
REMARK    8  A    between atoms: C_13  and  C_14 
REMARK    9  A    between atoms: C_14  and  O_15 
REMARK   10  A    between atoms: C_18  and  C_19 
REMARK   11  A    between atoms: C_22  and  C_23 
ROOT
ATOM      1  N   UNL d   1      27.646 -13.155   3.105  0.00  0.00    -0.271 N 
ATOM      2  C   UNL d   1      27.368 -14.042   2.067  0.00  0.00     0.196 A 
ATOM      3  N   UNL d   1      27.784 -15.244   2.404  0.00  0.00    -0.122 NA
ATOM      4  N   UNL d   1      28.333 -15.189   3.649  0.00  0.00    -0.128 NA
ATOM      5  C   UNL d   1      28.224 -13.958   4.091  0.00  0.00     0.169 A 
ENDROOT
BRANCH   2   6
ATOM      6  S   UNL d   1      26.778 -13.823   0.443  0.00  0.00    -0.088 SA
BRANCH   6   7
ATOM      7  C   UNL d   1      27.780 -14.729  -0.721  0.00  0.00     0.110 C 
BRANCH   7   8
ATOM      8  C   UNL d   1      27.866 -16.215  -0.347  0.00  0.00     0.243 C 
BRANCH   8   9
ATOM      9  N   UNL d   1      29.107 -16.441   0.487  0.00  0.00    -0.072 N 
ATOM     10  H   UNL d   1      29.266 -17.453   0.596  0.00  0.00     0.277 HD
ATOM     11  H   UNL d   1      28.955 -16.068   1.436  0.00  0.00     0.277 HD
BRANCH   9  12
ATOM     12  C   UNL d   1      30.337 -15.805  -0.083  0.00  0.00     0.258 C 
BRANCH  12  13
ATOM     13  C   UNL d   1      31.263 -15.308   1.027  0.00  0.00     0.191 C 
BRANCH  13  14
ATOM     14  O   UNL d   1      30.500 -14.739   2.078  0.00  0.00    -0.399 OA
ATOM     15  H   UNL d   1      29.933 -15.418   2.486  0.00  0.00     0.209 HD
ENDBRANCH  13  14
ENDBRANCH  12  13
ENDBRANCH   9  12
ENDBRANCH   8   9
ENDBRANCH   7   8
ENDBRANCH   6   7
ENDBRANCH   2   6
BRANCH   1  16
ATOM     16  C   UNL d   1      27.459 -11.752   3.212  0.00  0.00     0.043 A 
ATOM     17  C   UNL d   1      28.322 -10.974   3.982  0.00  0.00     0.033 A 
ATOM     18  C   UNL d   1      28.103  -9.594   4.087  0.00  0.00     0.039 A 
ATOM     19  C   UNL d   1      27.072  -8.969   3.377  0.00  0.00     0.068 A 
ATOM     20  C   UNL d   1      26.268  -9.735   2.537  0.00  0.00     0.039 A 
ATOM     21  C   UNL d   1      26.467 -11.122   2.443  0.00  0.00     0.033 A 
BRANCH  19  22
ATOM     22  O   UNL d   1      27.031  -7.610   3.507  0.00  0.00    -0.356 OA
ATOM     23  C   UNL d   1      26.426  -6.857   2.461  0.00  0.00     0.210 C 
ENDBRANCH  19  22
ENDBRANCH   1  16
BRANCH   5  24
ATOM     24  C   UNL d   1      28.536 -13.543   5.454  0.00  0.00     0.012 A 
ATOM     25  C   UNL d   1      27.576 -12.914   6.247  0.00  0.00     0.016 A 
ATOM     26  C   UNL d   1      27.898 -12.502   7.543  0.00  0.00     0.009 A 
ATOM     27  C   UNL d   1      29.170 -12.752   8.093  0.00  0.00    -0.051 A 
ATOM     28  C   UNL d   1      30.132 -13.347   7.261  0.00  0.00     0.009 A 
ATOM     29  C   UNL d   1      29.823 -13.729   5.959  0.00  0.00     0.016 A 
BRANCH  27  30
ATOM     30  C   UNL d   1      29.460 -12.429   9.566  0.00  0.00    -0.024 C 
ATOM     31  C   UNL d   1      28.174 -12.536  10.407  0.00  0.00     0.019 C 
ATOM     32  C   UNL d   1      30.503 -13.433  10.103  0.00  0.00     0.019 C 
ATOM     33  C   UNL d   1      30.041 -11.011   9.759  0.00  0.00     0.019 C 
ENDBRANCH  27  30
ENDBRANCH   5  24
TORSDOF 11
ENDMDL
MODEL 6
REMARK VINA RESULT:    -6.376      4.584      6.574
REMARK INTER + INTRA:         -14.689
REMARK INTER:                  -9.658
REMARK INTRA:                  -5.031
REMARK CONF_INDEPENDENT:        3.281
REMARK UNBOUND:                -5.031
REMARK  11 active torsions:
REMARK  status: ('A' for Active; 'I' for Inactive)
REMARK    1  A    between atoms: O_2  and  C_3 
REMARK    2  A    between atoms: C_6  and  N_7 
REMARK    3  A    between atoms: C_8  and  S_9 
REMARK    4  A    between atoms: S_9  and  C_10 
REMARK    5  A    between atoms: C_10  and  C_11 
REMARK    6  A    between atoms: C_11  and  N_12 
REMARK    7  A    between atoms: N_12  and  C_13 
REMARK    8  A    between atoms: C_13  and  C_14 
REMARK    9  A    between atoms: C_14  and  O_15 
REMARK   10  A    between atoms: C_18  and  C_19 
REMARK   11  A    between atoms: C_22  and  C_23 
ROOT
ATOM      1  N   UNL d   1      27.422 -12.750   2.709  0.00  0.00    -0.271 N 
ATOM      2  C   UNL d   1      27.800 -13.588   3.756  0.00  0.00     0.196 A 
ATOM      3  N   UNL d   1      27.853 -14.827   3.318  0.00  0.00    -0.122 NA
ATOM      4  N   UNL d   1      27.524 -14.844   1.996  0.00  0.00    -0.128 NA
ATOM      5  C   UNL d   1      27.300 -13.609   1.614  0.00  0.00     0.169 A 
ENDROOT
BRANCH   2   6
ATOM      6  S   UNL d   1      28.017 -13.330   5.464  0.00  0.00    -0.088 SA
BRANCH   6   7
ATOM      7  C   UNL d   1      29.672 -13.769   5.964  0.00  0.00     0.110 C 
BRANCH   7   8
ATOM      8  C   UNL d   1      30.027 -15.198   5.529  0.00  0.00     0.243 C 
BRANCH   8   9
ATOM      9  N   UNL d   1      30.394 -15.188   4.062  0.00  0.00    -0.072 N 
ATOM     10  H   UNL d   1      29.556 -15.389   3.499  0.00  0.00     0.277 HD
ATOM     11  H   UNL d   1      31.061 -15.951   3.871  0.00  0.00     0.277 HD
BRANCH   9  12
ATOM     12  C   UNL d   1      31.003 -13.899   3.605  0.00  0.00     0.258 C 
BRANCH  12  13
ATOM     13  C   UNL d   1      30.897 -13.750   2.087  0.00  0.00     0.191 C 
BRANCH  13  14
ATOM     14  O   UNL d   1      30.332 -14.921   1.522  0.00  0.00    -0.399 OA
ATOM     15  H   UNL d   1      29.555 -15.201   2.039  0.00  0.00     0.209 HD
ENDBRANCH  13  14
ENDBRANCH  12  13
ENDBRANCH   9  12
ENDBRANCH   8   9
ENDBRANCH   7   8
ENDBRANCH   6   7
ENDBRANCH   2   6
BRANCH   1  16
ATOM     16  C   UNL d   1      27.161 -11.355   2.674  0.00  0.00     0.043 A 
ATOM     17  C   UNL d   1      25.988 -10.862   2.105  0.00  0.00     0.033 A 
ATOM     18  C   UNL d   1      25.764  -9.480   2.066  0.00  0.00     0.039 A 
ATOM     19  C   UNL d   1      26.667  -8.584   2.650  0.00  0.00     0.068 A 
ATOM     20  C   UNL d   1      27.793  -9.085   3.298  0.00  0.00     0.039 A 
ATOM     21  C   UNL d   1      28.035 -10.468   3.323  0.00  0.00     0.033 A 
BRANCH  19  22
ATOM     22  O   UNL d   1      26.279  -7.275   2.612  0.00  0.00    -0.356 OA
ATOM     23  C   UNL d   1      26.251  -6.624   1.346  0.00  0.00     0.210 C 
ENDBRANCH  19  22
ENDBRANCH   1  16
BRANCH   5  24
ATOM     24  C   UNL d   1      27.095 -13.201   0.229  0.00  0.00     0.012 A 
ATOM     25  C   UNL d   1      26.300 -13.962  -0.630  0.00  0.00     0.016 A 
ATOM     26  C   UNL d   1      26.133 -13.570  -1.961  0.00  0.00     0.009 A 
ATOM     27  C   UNL d   1      26.716 -12.386  -2.451  0.00  0.00    -0.051 A 
ATOM     28  C   UNL d   1      27.547 -11.662  -1.582  0.00  0.00     0.009 A 
ATOM     29  C   UNL d   1      27.741 -12.068  -0.264  0.00  0.00     0.016 A 
BRANCH  27  30
ATOM     30  C   UNL d   1      26.402 -11.892  -3.871  0.00  0.00    -0.024 C 
ATOM     31  C   UNL d   1      25.658 -10.544  -3.823  0.00  0.00     0.019 C 
ATOM     32  C   UNL d   1      27.727 -11.713  -4.644  0.00  0.00     0.019 C 
ATOM     33  C   UNL d   1      25.533 -12.889  -4.668  0.00  0.00     0.019 C 
ENDBRANCH  27  30
ENDBRANCH   5  24
TORSDOF 11
ENDMDL
MODEL 7
REMARK VINA RESULT:    -6.238      3.711      5.606
REMARK INTER + INTRA:         -14.482
REMARK INTER:                  -9.520
REMARK INTRA:                  -4.962
REMARK CONF_INDEPENDENT:        3.281
REMARK UNBOUND:                -4.962
REMARK  11 active torsions:
REMARK  status: ('A' for Active; 'I' for Inactive)
REMARK    1  A    between atoms: O_2  and  C_3 
REMARK    2  A    between atoms: C_6  and  N_7 
REMARK    3  A    between atoms: C_8  and  S_9 
REMARK    4  A    between atoms: S_9  and  C_10 
REMARK    5  A    between atoms: C_10  and  C_11 
REMARK    6  A    between atoms: C_11  and  N_12 
REMARK    7  A    between atoms: N_12  and  C_13 
REMARK    8  A    between atoms: C_13  and  C_14 
REMARK    9  A    between atoms: C_14  and  O_15 
REMARK   10  A    between atoms: C_18  and  C_19 
REMARK   11  A    between atoms: C_22  and  C_23 
ROOT
ATOM      1  N   UNL d   1      27.524 -13.028   2.173  0.00  0.00    -0.271 N 
ATOM      2  C   UNL d   1      27.899 -13.536   3.415  0.00  0.00     0.196 A 
ATOM      3  N   UNL d   1      27.987 -14.846   3.335  0.00  0.00    -0.122 NA
ATOM      4  N   UNL d   1      27.686 -15.233   2.064  0.00  0.00    -0.128 NA
ATOM      5  C   UNL d   1      27.442 -14.156   1.355  0.00  0.00     0.169 A 
ENDROOT
BRANCH   2   6
ATOM      6  S   UNL d   1      28.078 -12.815   4.990  0.00  0.00    -0.088 SA
BRANCH   6   7
ATOM      7  C   UNL d   1      29.613 -13.317   5.746  0.00  0.00     0.110 C 
BRANCH   7   8
ATOM      8  C   UNL d   1      29.849 -14.825   5.583  0.00  0.00     0.243 C 
BRANCH   8   9
ATOM      9  N   UNL d   1      30.348 -15.097   4.181  0.00  0.00    -0.072 N 
ATOM     10  H   UNL d   1      29.546 -15.292   3.565  0.00  0.00     0.277 HD
ATOM     11  H   UNL d   1      30.927 -15.950   4.183  0.00  0.00     0.277 HD
BRANCH   9  12
ATOM     12  C   UNL d   1      31.155 -13.975   3.605  0.00  0.00     0.258 C 
BRANCH  12  13
ATOM     13  C   UNL d   1      31.110 -13.995   2.076  0.00  0.00     0.191 C 
BRANCH  13  14
ATOM     14  O   UNL d   1      30.514 -15.200   1.624  0.00  0.00    -0.399 OA
ATOM     15  H   UNL d   1      29.689 -15.370   2.113  0.00  0.00     0.209 HD
ENDBRANCH  13  14
ENDBRANCH  12  13
ENDBRANCH   9  12
ENDBRANCH   8   9
ENDBRANCH   7   8
ENDBRANCH   6   7
ENDBRANCH   2   6
BRANCH   1  16
ATOM     16  C   UNL d   1      27.235 -11.703   1.754  0.00  0.00     0.043 A 
ATOM     17  C   UNL d   1      27.770 -11.196   0.570  0.00  0.00     0.033 A 
ATOM     18  C   UNL d   1      27.484  -9.879   0.189  0.00  0.00     0.039 A 
ATOM     19  C   UNL d   1      26.614  -9.081   0.941  0.00  0.00     0.068 A 
ATOM     20  C   UNL d   1      26.009  -9.620   2.073  0.00  0.00     0.039 A 
ATOM     21  C   UNL d   1      26.307 -10.933   2.474  0.00  0.00     0.033 A 
BRANCH  19  22
ATOM     22  O   UNL d   1      26.361  -7.850   0.405  0.00  0.00    -0.356 OA
ATOM     23  C   UNL d   1      25.351  -7.751  -0.594  0.00  0.00     0.210 C 
ENDBRANCH  19  22
ENDBRANCH   1  16
BRANCH   5  24
ATOM     24  C   UNL d   1      27.257 -14.150  -0.091  0.00  0.00     0.012 A 
ATOM     25  C   UNL d   1      26.049 -14.558  -0.659  0.00  0.00     0.016 A 
ATOM     26  C   UNL d   1      25.895 -14.567  -2.048  0.00  0.00     0.009 A 
ATOM     27  C   UNL d   1      26.926 -14.126  -2.899  0.00  0.00    -0.051 A 
ATOM     28  C   UNL d   1      28.146 -13.763  -2.308  0.00  0.00     0.009 A 
ATOM     29  C   UNL d   1      28.312 -13.782  -0.925  0.00  0.00     0.016 A 
BRANCH  27  30
ATOM     30  C   UNL d   1      26.689 -14.002  -4.411  0.00  0.00    -0.024 C 
ATOM     31  C   UNL d   1      25.902 -12.717  -4.732  0.00  0.00     0.019 C 
ATOM     32  C   UNL d   1      28.055 -13.953  -5.130  0.00  0.00     0.019 C 
ATOM     33  C   UNL d   1      25.905 -15.200  -4.990  0.00  0.00     0.019 C 
ENDBRANCH  27  30
ENDBRANCH   5  24
TORSDOF 11
ENDMDL
MODEL 8
REMARK VINA RESULT:    -6.110      4.356     10.436
REMARK INTER + INTRA:         -14.530
REMARK INTER:                  -9.391
REMARK INTRA:                  -5.139
REMARK CONF_INDEPENDENT:        3.281
REMARK UNBOUND:                -5.139
REMARK  11 active torsions:
REMARK  status: ('A' for Active; 'I' for Inactive)
REMARK    1  A    between atoms: O_2  and  C_3 
REMARK    2  A    between atoms: C_6  and  N_7 
REMARK    3  A    between atoms: C_8  and  S_9 
REMARK    4  A    between atoms: S_9  and  C_10 
REMARK    5  A    between atoms: C_10  and  C_11 
REMARK    6  A    between atoms: C_11  and  N_12 
REMARK    7  A    between atoms: N_12  and  C_13 
REMARK    8  A    between atoms: C_13  and  C_14 
REMARK    9  A    between atoms: C_14  and  O_15 
REMARK   10  A    between atoms: C_18  and  C_19 
REMARK   11  A    between atoms: C_22  and  C_23 
ROOT
ATOM      1  N   UNL d   1      28.246 -12.874   4.632  0.00  0.00    -0.271 N 
ATOM      2  C   UNL d   1      27.806 -13.669   3.576  0.00  0.00     0.196 A 
ATOM      3  N   UNL d   1      27.880 -14.934   3.929  0.00  0.00    -0.122 NA
ATOM      4  N   UNL d   1      28.355 -15.010   5.203  0.00  0.00    -0.128 NA
ATOM      5  C   UNL d   1      28.544 -13.789   5.644  0.00  0.00     0.169 A 
ENDROOT
BRANCH   2   6
ATOM      6  S   UNL d   1      27.381 -13.320   1.923  0.00  0.00    -0.088 SA
BRANCH   6   7
ATOM      7  C   UNL d   1      27.466 -14.795   0.924  0.00  0.00     0.110 C 
BRANCH   7   8
ATOM      8  C   UNL d   1      28.892 -15.041   0.411  0.00  0.00     0.243 C 
BRANCH   8   9
ATOM      9  N   UNL d   1      29.821 -15.196   1.595  0.00  0.00    -0.072 N 
ATOM     10  H   UNL d   1      30.405 -16.033   1.462  0.00  0.00     0.277 HD
ATOM     11  H   UNL d   1      29.265 -15.362   2.447  0.00  0.00     0.277 HD
BRANCH   9  12
ATOM     12  C   UNL d   1      30.702 -14.008   1.825  0.00  0.00     0.258 C 
BRANCH  12  13
ATOM     13  C   UNL d   1      31.286 -14.023   3.238  0.00  0.00     0.191 C 
BRANCH  13  14
ATOM     14  O   UNL d   1      30.877 -15.197   3.920  0.00  0.00    -0.399 OA
ATOM     15  H   UNL d   1      29.919 -15.333   3.808  0.00  0.00     0.209 HD
ENDBRANCH  13  14
ENDBRANCH  12  13
ENDBRANCH   9  12
ENDBRANCH   8   9
ENDBRANCH   7   8
ENDBRANCH   6   7
ENDBRANCH   2   6
BRANCH   1  16
ATOM     16  C   UNL d   1      28.421 -11.469   4.736  0.00  0.00     0.043 A 
ATOM     17  C   UNL d   1      29.635 -10.931   5.160  0.00  0.00     0.033 A 
ATOM     18  C   UNL d   1      29.775  -9.541   5.273  0.00  0.00     0.039 A 
ATOM     19  C   UNL d   1      28.739  -8.677   4.902  0.00  0.00     0.068 A 
ATOM     20  C   UNL d   1      27.560  -9.215   4.393  0.00  0.00     0.039 A 
ATOM     21  C   UNL d   1      27.403 -10.607   4.297  0.00  0.00     0.033 A 
BRANCH  19  22
ATOM     22  O   UNL d   1      29.046  -7.349   4.984  0.00  0.00    -0.356 OA
ATOM     23  C   UNL d   1      29.358  -6.813   6.266  0.00  0.00     0.210 C 
ENDBRANCH  19  22
ENDBRANCH   1  16
BRANCH   5  24
ATOM     24  C   UNL d   1      28.877 -13.456   7.024  0.00  0.00     0.012 A 
ATOM     25  C   UNL d   1      28.155 -12.486   7.720  0.00  0.00     0.016 A 
ATOM     26  C   UNL d   1      28.502 -12.163   9.035  0.00  0.00     0.009 A 
ATOM     27  C   UNL d   1      29.546 -12.834   9.700  0.00  0.00    -0.051 A 
ATOM     28  C   UNL d   1      30.286 -13.774   8.965  0.00  0.00     0.009 A 
ATOM     29  C   UNL d   1      29.962 -14.076   7.645  0.00  0.00     0.016 A 
BRANCH  27  30
ATOM     30  C   UNL d   1      29.817 -12.573  11.189  0.00  0.00    -0.024 C 
ATOM     31  C   UNL d   1      30.800 -13.617  11.751  0.00  0.00     0.019 C 
ATOM     32  C   UNL d   1      30.429 -11.163  11.347  0.00  0.00     0.019 C 
ATOM     33  C   UNL d   1      28.532 -12.617  12.043  0.00  0.00     0.019 C 
ENDBRANCH  27  30
ENDBRANCH   5  24
TORSDOF 11
ENDMDL
MODEL 9
REMARK VINA RESULT:    -5.772      3.781      6.987
REMARK INTER + INTRA:         -14.477
REMARK INTER:                  -9.054
REMARK INTRA:                  -5.423
REMARK CONF_INDEPENDENT:        3.281
REMARK UNBOUND:                -5.423
REMARK  11 active torsions:
REMARK  status: ('A' for Active; 'I' for Inactive)
REMARK    1  A    between atoms: O_2  and  C_3 
REMARK    2  A    between atoms: C_6  and  N_7 
REMARK    3  A    between atoms: C_8  and  S_9 
REMARK    4  A    between atoms: S_9  and  C_10 
REMARK    5  A    between atoms: C_10  and  C_11 
REMARK    6  A    between atoms: C_11  and  N_12 
REMARK    7  A    between atoms: N_12  and  C_13 
REMARK    8  A    between atoms: C_13  and  C_14 
REMARK    9  A    between atoms: C_14  and  O_15 
REMARK   10  A    between atoms: C_18  and  C_19 
REMARK   11  A    between atoms: C_22  and  C_23 
ROOT
ATOM      1  N   UNL d   1      26.222 -14.198  -1.689  0.00  0.00    -0.271 N 
ATOM      2  C   UNL d   1      26.261 -13.656  -2.972  0.00  0.00     0.196 A 
ATOM      3  N   UNL d   1      26.850 -12.481  -2.925  0.00  0.00    -0.122 NA
ATOM      4  N   UNL d   1      27.215 -12.220  -1.639  0.00  0.00    -0.128 NA
ATOM      5  C   UNL d   1      26.877 -13.251  -0.900  0.00  0.00     0.169 A 
ENDROOT
BRANCH   2   6
ATOM      6  S   UNL d   1      25.552 -14.139  -4.488  0.00  0.00    -0.088 SA
BRANCH   6   7
ATOM      7  C   UNL d   1      26.662 -15.200  -5.395  0.00  0.00     0.110 C 
BRANCH   7   8
ATOM      8  C   UNL d   1      27.838 -14.407  -5.983  0.00  0.00     0.243 C 
BRANCH   8   9
ATOM      9  N   UNL d   1      28.201 -13.288  -5.032  0.00  0.00    -0.072 N 
ATOM     10  H   UNL d   1      28.276 -13.663  -4.076  0.00  0.00     0.277 HD
ATOM     11  H   UNL d   1      27.439 -12.594  -5.014  0.00  0.00     0.277 HD
BRANCH   9  12
ATOM     12  C   UNL d   1      29.474 -12.587  -5.391  0.00  0.00     0.258 C 
BRANCH  12  13
ATOM     13  C   UNL d   1      30.112 -11.942  -4.160  0.00  0.00     0.191 C 
BRANCH  13  14
ATOM     14  O   UNL d   1      29.629 -12.564  -2.981  0.00  0.00    -0.399 OA
ATOM     15  H   UNL d   1      28.933 -12.017  -2.575  0.00  0.00     0.209 HD
ENDBRANCH  13  14
ENDBRANCH  12  13
ENDBRANCH   9  12
ENDBRANCH   8   9
ENDBRANCH   7   8
ENDBRANCH   6   7
ENDBRANCH   2   6
BRANCH   1  16
ATOM     16  C   UNL d   1      25.644 -15.399  -1.198  0.00  0.00     0.043 A 
ATOM     17  C   UNL d   1      24.337 -15.750  -1.531  0.00  0.00     0.033 A 
ATOM     18  C   UNL d   1      23.784 -16.930  -1.017  0.00  0.00     0.039 A 
ATOM     19  C   UNL d   1      24.544 -17.801  -0.227  0.00  0.00     0.068 A 
ATOM     20  C   UNL d   1      25.878 -17.492   0.028  0.00  0.00     0.039 A 
ATOM     21  C   UNL d   1      26.433 -16.301  -0.466  0.00  0.00     0.033 A 
BRANCH  19  22
ATOM     22  O   UNL d   1      23.903 -18.952   0.132  0.00  0.00    -0.356 OA
ATOM     23  C   UNL d   1      22.530 -19.089  -0.219  0.00  0.00     0.210 C 
ENDBRANCH  19  22
ENDBRANCH   1  16
BRANCH   5  24
ATOM     24  C   UNL d   1      27.262 -13.422   0.496  0.00  0.00     0.012 A 
ATOM     25  C   UNL d   1      28.383 -14.177   0.841  0.00  0.00     0.016 A 
ATOM     26  C   UNL d   1      28.725 -14.350   2.186  0.00  0.00     0.009 A 
ATOM     27  C   UNL d   1      27.983 -13.735   3.212  0.00  0.00    -0.051 A 
ATOM     28  C   UNL d   1      26.835 -13.017   2.843  0.00  0.00     0.009 A 
ATOM     29  C   UNL d   1      26.474 -12.869   1.506  0.00  0.00     0.016 A 
BRANCH  27  30
ATOM     30  C   UNL d   1      28.458 -13.812   4.670  0.00  0.00    -0.024 C 
ATOM     31  C   UNL d   1      28.155 -15.200   5.265  0.00  0.00     0.019 C 
ATOM     32  C   UNL d   1      29.981 -13.561   4.716  0.00  0.00     0.019 C 
ATOM     33  C   UNL d   1      27.787 -12.750   5.570  0.00  0.00     0.019 C 
ENDBRANCH  27  30
ENDBRANCH   5  24
TORSDOF 11
ENDMDL
