MODEL 1
REMARK VINA RESULT:   -10.082      0.000      0.000
REMARK INTER + INTRA:         -14.214
REMARK INTER:                 -12.767
REMARK INTRA:                  -1.447
REMARK CONF_INDEPENDENT:        2.685
REMARK UNBOUND:                -1.447
REMARK  9 active torsions:
REMARK  status: ('A' for Active; 'I' for Inactive)
REMARK    1  A    between atoms: C_8  and  O_9 
REMARK    2  A    between atoms: O_9  and  C_10 
REMARK    3  A    between atoms: C_10  and  C_11 
REMARK       I    between atoms: C_11  and  N_13 
REMARK    4  A    between atoms: N_13  and  C_14 
REMARK    5  A    between atoms: C_14  and  N_16 
REMARK    6  A    between atoms: N_16  and  N_17 
REMARK       I    between atoms: N_17  and  C_18 
REMARK    7  A    between atoms: C_18  and  C_20 
REMARK    8  A    between atoms: C_23  and  N_24 
REMARK       I    between atoms: N_24  and  C_25 
REMARK    9  A    between atoms: C_25  and  C_27 
ROOT
ATOM      1  N   UNL d   1      28.345 -16.234  -1.277  0.00  0.00    -0.273 N 
ATOM      2  H   UNL d   1      28.341 -15.787  -2.193  0.00  0.00     0.189 HD
ENDROOT
BRANCH   1   3
ATOM      3  C   UNL d   1      29.424 -16.354  -0.382  0.00  0.00     0.193 C 
ATOM      4  S   UNL d   1      30.589 -17.546  -0.673  0.00  0.00    -0.039 SA
BRANCH   3   5
ATOM      5  N   UNL d   1      29.453 -15.455   0.706  0.00  0.00    -0.301 N 
ATOM      6  C   UNL d   1      28.732 -14.230   0.766  0.00  0.00     0.248 C 
ATOM      7  O   UNL d   1      27.997 -13.815  -0.128  0.00  0.00    -0.271 OA
ATOM      8  H   UNL d   1      30.031 -15.699   1.502  0.00  0.00     0.171 HD
BRANCH   6   9
ATOM      9  C   UNL d   1      28.877 -13.370   2.027  0.00  0.00     0.278 C 
BRANCH   9  10
ATOM     10  O   UNL d   1      27.868 -13.659   3.013  0.00  0.00    -0.342 OA
BRANCH  10  11
ATOM     11  C   UNL d   1      28.080 -13.423   4.351  0.00  0.00     0.075 A 
ATOM     12  C   UNL d   1      28.373 -14.580   5.110  0.00  0.00     0.039 A 
ATOM     13  C   UNL d   1      28.621 -14.514   6.492  0.00  0.00     0.022 A 
ATOM     14  C   UNL d   1      28.565 -13.286   7.132  0.00  0.00     0.011 A 
ATOM     15  C   UNL d   1      28.273 -12.138   6.403  0.00  0.00     0.028 A 
ATOM     16 BR   UNL d   1      28.886 -13.145   8.990  0.00  0.00    -0.051 Br
ATOM     17  C   UNL d   1      28.035 -12.186   5.014  0.00  0.00    -0.027 A 
ATOM     18  C   UNL d   1      27.754 -10.877   4.349  0.00  0.00     0.051 C 
ENDBRANCH  10  11
ENDBRANCH   9  10
ENDBRANCH   6   9
ENDBRANCH   3   5
ENDBRANCH   1   3
BRANCH   1  19
ATOM     19  N   UNL d   1      27.058 -16.782  -0.862  0.00  0.00    -0.264 N 
ATOM     20  C   UNL d   1      25.851 -16.366  -1.406  0.00  0.00     0.270 C 
ATOM     21  O   UNL d   1      25.770 -15.489  -2.260  0.00  0.00    -0.266 OA
ATOM     22  H   UNL d   1      27.122 -17.563  -0.208  0.00  0.00     0.190 HD
BRANCH  20  23
ATOM     23  C   UNL d   1      24.598 -17.024  -0.873  0.00  0.00     0.033 A 
ATOM     24  C   UNL d   1      24.574 -18.378  -0.490  0.00  0.00     0.019 A 
ATOM     25  C   UNL d   1      23.355 -19.032  -0.147  0.00  0.00     0.030 A 
ATOM     26  C   UNL d   1      22.147 -18.319  -0.119  0.00  0.00     0.034 A 
ATOM     27  C   UNL d   1      22.196 -16.982  -0.526  0.00  0.00     0.030 A 
ATOM     28  C   UNL d   1      23.389 -16.337  -0.887  0.00  0.00     0.019 A 
BRANCH  26  29
ATOM     29  N   UNL d   1      20.931 -18.922   0.334  0.00  0.00    -0.327 N 
ATOM     30  C   UNL d   1      19.993 -19.536  -0.495  0.00  0.00     0.226 C 
ATOM     31  O   UNL d   1      20.091 -19.702  -1.711  0.00  0.00    -0.273 OA
ATOM     32  H   UNL d   1      20.707 -18.837   1.320  0.00  0.00     0.169 HD
BRANCH  30  33
ATOM     33  C   UNL d   1      18.762 -20.084   0.156  0.00  0.00     0.078 A 
ATOM     34  C   UNL d   1      18.819 -21.388   0.948  0.00  0.00     0.015 A 
ATOM     35  C   UNL d   1      18.725 -20.081   1.673  0.00  0.00     0.015 A 
ENDBRANCH  30  33
ENDBRANCH  26  29
ENDBRANCH  20  23
ENDBRANCH   1  19
TORSDOF 9
ENDMDL
MODEL 2
REMARK VINA RESULT:    -9.428      1.652      1.938
REMARK INTER + INTRA:         -14.453
REMARK INTER:                 -12.113
REMARK INTRA:                  -2.340
REMARK CONF_INDEPENDENT:        2.685
REMARK UNBOUND:                -2.340
REMARK  9 active torsions:
REMARK  status: ('A' for Active; 'I' for Inactive)
REMARK    1  A    between atoms: C_8  and  O_9 
REMARK    2  A    between atoms: O_9  and  C_10 
REMARK    3  A    between atoms: C_10  and  C_11 
REMARK       I    between atoms: C_11  and  N_13 
REMARK    4  A    between atoms: N_13  and  C_14 
REMARK    5  A    between atoms: C_14  and  N_16 
REMARK    6  A    between atoms: N_16  and  N_17 
REMARK       I    between atoms: N_17  and  C_18 
REMARK    7  A    between atoms: C_18  and  C_20 
REMARK    8  A    between atoms: C_23  and  N_24 
REMARK       I    between atoms: N_24  and  C_25 
REMARK    9  A    between atoms: C_25  and  C_27 
ROOT
ATOM      1  N   UNL d   1      27.536 -14.324  -1.440  0.00  0.00    -0.273 N 
ATOM      2  H   UNL d   1      28.115 -14.607  -2.230  0.00  0.00     0.189 HD
ENDROOT
BRANCH   1   3
ATOM      3  C   UNL d   1      27.627 -13.138  -0.688  0.00  0.00     0.193 C 
ATOM      4  S   UNL d   1      27.351 -11.661  -1.466  0.00  0.00    -0.039 SA
BRANCH   3   5
ATOM      5  N   UNL d   1      27.944 -13.274   0.682  0.00  0.00    -0.301 N 
ATOM      6  C   UNL d   1      28.394 -14.476   1.294  0.00  0.00     0.248 C 
ATOM      7  O   UNL d   1      28.559 -15.539   0.697  0.00  0.00    -0.271 OA
ATOM      8  H   UNL d   1      27.843 -12.456   1.271  0.00  0.00     0.171 HD
BRANCH   6   9
ATOM      9  C   UNL d   1      28.696 -14.450   2.797  0.00  0.00     0.278 C 
BRANCH   9  10
ATOM     10  O   UNL d   1      28.347 -13.194   3.410  0.00  0.00    -0.342 OA
BRANCH  10  11
ATOM     11  C   UNL d   1      28.415 -13.012   4.771  0.00  0.00     0.075 A 
ATOM     12  C   UNL d   1      28.783 -14.167   5.498  0.00  0.00     0.039 A 
ATOM     13  C   UNL d   1      28.904 -14.152   6.899  0.00  0.00     0.022 A 
ATOM     14  C   UNL d   1      28.644 -12.978   7.588  0.00  0.00     0.011 A 
ATOM     15  C   UNL d   1      28.275 -11.832   6.890  0.00  0.00     0.028 A 
ATOM     16 BR   UNL d   1      28.788 -12.906   9.471  0.00  0.00    -0.051 Br
ATOM     17  C   UNL d   1      28.162 -11.829   5.484  0.00  0.00    -0.027 A 
ATOM     18  C   UNL d   1      27.779 -10.526   4.859  0.00  0.00     0.051 C 
ENDBRANCH  10  11
ENDBRANCH   9  10
ENDBRANCH   6   9
ENDBRANCH   3   5
ENDBRANCH   1   3
BRANCH   1  19
ATOM     19  N   UNL d   1      26.483 -15.270  -1.087  0.00  0.00    -0.264 N 
ATOM     20  C   UNL d   1      25.407 -15.546  -1.920  0.00  0.00     0.270 C 
ATOM     21  O   UNL d   1      25.246 -14.999  -3.005  0.00  0.00    -0.266 OA
ATOM     22  H   UNL d   1      26.649 -15.784  -0.220  0.00  0.00     0.190 HD
BRANCH  20  23
ATOM     23  C   UNL d   1      24.392 -16.547  -1.417  0.00  0.00     0.033 A 
ATOM     24  C   UNL d   1      23.058 -16.184  -1.148  0.00  0.00     0.019 A 
ATOM     25  C   UNL d   1      22.155 -17.088  -0.519  0.00  0.00     0.030 A 
ATOM     26  C   UNL d   1      22.555 -18.396  -0.209  0.00  0.00     0.034 A 
ATOM     27  C   UNL d   1      23.890 -18.723  -0.465  0.00  0.00     0.030 A 
ATOM     28  C   UNL d   1      24.793 -17.831  -1.064  0.00  0.00     0.019 A 
BRANCH  26  29
ATOM     29  N   UNL d   1      21.633 -19.358   0.314  0.00  0.00    -0.327 N 
ATOM     30  C   UNL d   1      20.562 -19.899  -0.396  0.00  0.00     0.226 C 
ATOM     31  O   UNL d   1      20.283 -19.680  -1.575  0.00  0.00    -0.273 OA
ATOM     32  H   UNL d   1      21.730 -19.614   1.291  0.00  0.00     0.169 HD
BRANCH  30  33
ATOM     33  C   UNL d   1      19.684 -20.870   0.328  0.00  0.00     0.078 A 
ATOM     34  C   UNL d   1      18.755 -20.395   1.443  0.00  0.00     0.015 A 
ATOM     35  C   UNL d   1      18.189 -20.750   0.103  0.00  0.00     0.015 A 
ENDBRANCH  30  33
ENDBRANCH  26  29
ENDBRANCH  20  23
ENDBRANCH   1  19
TORSDOF 9
ENDMDL
MODEL 3
REMARK VINA RESULT:    -9.229      5.054      6.686
REMARK INTER + INTRA:         -14.475
REMARK INTER:                 -11.914
REMARK INTRA:                  -2.561
REMARK CONF_INDEPENDENT:        2.685
REMARK UNBOUND:                -2.561
REMARK  9 active torsions:
REMARK  status: ('A' for Active; 'I' for Inactive)
REMARK    1  A    between atoms: C_8  and  O_9 
REMARK    2  A    between atoms: O_9  and  C_10 
REMARK    3  A    between atoms: C_10  and  C_11 
REMARK       I    between atoms: C_11  and  N_13 
REMARK    4  A    between atoms: N_13  and  C_14 
REMARK    5  A    between atoms: C_14  and  N_16 
REMARK    6  A    between atoms: N_16  and  N_17 
REMARK       I    between atoms: N_17  and  C_18 
REMARK    7  A    between atoms: C_18  and  C_20 
REMARK    8  A    between atoms: C_23  and  N_24 
REMARK       I    between atoms: N_24  and  C_25 
REMARK    9  A    between atoms: C_25  and  C_27 
ROOT
ATOM      1  N   UNL d   1      28.629 -15.976  -1.253  0.00  0.00    -0.273 N 
ATOM      2  H   UNL d   1      28.927 -15.237  -0.618  0.00  0.00     0.189 HD
ENDROOT
BRANCH   1   3
ATOM      3  C   UNL d   1      29.318 -16.479  -2.373  0.00  0.00     0.193 C 
ATOM      4  S   UNL d   1      30.594 -17.562  -2.121  0.00  0.00    -0.039 SA
BRANCH   3   5
ATOM      5  N   UNL d   1      28.883 -16.036  -3.641  0.00  0.00    -0.301 N 
ATOM      6  C   UNL d   1      29.655 -16.104  -4.833  0.00  0.00     0.248 C 
ATOM      7  O   UNL d   1      30.796 -16.560  -4.894  0.00  0.00    -0.271 OA
ATOM      8  H   UNL d   1      27.953 -15.639  -3.706  0.00  0.00     0.171 HD
BRANCH   6   9
ATOM      9  C   UNL d   1      29.029 -15.577  -6.129  0.00  0.00     0.278 C 
BRANCH   9  10
ATOM     10  O   UNL d   1      27.649 -15.199  -5.963  0.00  0.00    -0.342 OA
BRANCH  10  11
ATOM     11  C   UNL d   1      27.285 -13.903  -5.683  0.00  0.00     0.075 A 
ATOM     12  C   UNL d   1      26.314 -13.775  -4.663  0.00  0.00     0.039 A 
ATOM     13  C   UNL d   1      25.837 -12.519  -4.250  0.00  0.00     0.022 A 
ATOM     14  C   UNL d   1      26.320 -11.374  -4.866  0.00  0.00     0.011 A 
ATOM     15  C   UNL d   1      27.272 -11.481  -5.875  0.00  0.00     0.028 A 
ATOM     16 BR   UNL d   1      25.707  -9.663  -4.351  0.00  0.00    -0.051 Br
ATOM     17  C   UNL d   1      27.770 -12.734  -6.290  0.00  0.00    -0.027 A 
ATOM     18  C   UNL d   1      28.805 -12.704  -7.369  0.00  0.00     0.051 C 
ENDBRANCH  10  11
ENDBRANCH   9  10
ENDBRANCH   6   9
ENDBRANCH   3   5
ENDBRANCH   1   3
BRANCH   1  19
ATOM     19  N   UNL d   1      27.343 -16.581  -0.923  0.00  0.00    -0.264 N 
ATOM     20  C   UNL d   1      26.171 -16.279  -1.602  0.00  0.00     0.270 C 
ATOM     21  O   UNL d   1      26.121 -15.462  -2.516  0.00  0.00    -0.266 OA
ATOM     22  H   UNL d   1      27.390 -17.315  -0.215  0.00  0.00     0.190 HD
BRANCH  20  23
ATOM     23  C   UNL d   1      24.914 -16.983  -1.144  0.00  0.00     0.033 A 
ATOM     24  C   UNL d   1      23.664 -16.335  -1.121  0.00  0.00     0.019 A 
ATOM     25  C   UNL d   1      22.520 -16.948  -0.534  0.00  0.00     0.030 A 
ATOM     26  C   UNL d   1      22.594 -18.251  -0.019  0.00  0.00     0.034 A 
ATOM     27  C   UNL d   1      23.852 -18.862  -0.034  0.00  0.00     0.030 A 
ATOM     28  C   UNL d   1      24.989 -18.255  -0.590  0.00  0.00     0.019 A 
BRANCH  26  29
ATOM     29  N   UNL d   1      21.434 -18.932   0.468  0.00  0.00    -0.327 N 
ATOM     30  C   UNL d   1      20.198 -18.954  -0.176  0.00  0.00     0.226 C 
ATOM     31  O   UNL d   1      19.935 -18.451  -1.268  0.00  0.00    -0.273 OA
ATOM     32  H   UNL d   1      21.501 -19.375   1.379  0.00  0.00     0.169 HD
BRANCH  30  33
ATOM     33  C   UNL d   1      19.088 -19.695   0.502  0.00  0.00     0.078 A 
ATOM     34  C   UNL d   1      19.170 -21.208   0.697  0.00  0.00     0.015 A 
ATOM     35  C   UNL d   1      19.390 -20.293   1.863  0.00  0.00     0.015 A 
ENDBRANCH  30  33
ENDBRANCH  26  29
ENDBRANCH  20  23
ENDBRANCH   1  19
TORSDOF 9
ENDMDL
MODEL 4
REMARK VINA RESULT:    -9.207      5.654      7.456
REMARK INTER + INTRA:         -14.531
REMARK INTER:                 -11.891
REMARK INTRA:                  -2.639
REMARK CONF_INDEPENDENT:        2.685
REMARK UNBOUND:                -2.639
REMARK  9 active torsions:
REMARK  status: ('A' for Active; 'I' for Inactive)
REMARK    1  A    between atoms: C_8  and  O_9 
REMARK    2  A    between atoms: O_9  and  C_10 
REMARK    3  A    between atoms: C_10  and  C_11 
REMARK       I    between atoms: C_11  and  N_13 
REMARK    4  A    between atoms: N_13  and  C_14 
REMARK    5  A    between atoms: C_14  and  N_16 
REMARK    6  A    between atoms: N_16  and  N_17 
REMARK       I    between atoms: N_17  and  C_18 
REMARK    7  A    between atoms: C_18  and  C_20 
REMARK    8  A    between atoms: C_23  and  N_24 
REMARK       I    between atoms: N_24  and  C_25 
REMARK    9  A    between atoms: C_25  and  C_27 
ROOT
ATOM      1  N   UNL d   1      28.463 -15.819  -3.306  0.00  0.00    -0.273 N 
ATOM      2  H   UNL d   1      29.300 -16.095  -2.795  0.00  0.00     0.189 HD
ENDROOT
BRANCH   1   3
ATOM      3  C   UNL d   1      28.390 -15.110  -4.519  0.00  0.00     0.193 C 
ATOM      4  S   UNL d   1      29.232 -15.707  -5.859  0.00  0.00    -0.039 SA
BRANCH   3   5
ATOM      5  N   UNL d   1      27.604 -13.936  -4.525  0.00  0.00    -0.301 N 
ATOM      6  C   UNL d   1      26.183 -13.911  -4.477  0.00  0.00     0.248 C 
ATOM      7  O   UNL d   1      25.474 -14.914  -4.424  0.00  0.00    -0.271 OA
ATOM      8  H   UNL d   1      28.089 -13.047  -4.567  0.00  0.00     0.171 HD
BRANCH   6   9
ATOM      9  C   UNL d   1      25.486 -12.545  -4.491  0.00  0.00     0.278 C 
BRANCH   9  10
ATOM     10  O   UNL d   1      26.378 -11.472  -4.844  0.00  0.00    -0.342 OA
BRANCH  10  11
ATOM     11  C   UNL d   1      25.907 -10.262  -5.296  0.00  0.00     0.075 A 
ATOM     12  C   UNL d   1      25.154  -9.534  -4.346  0.00  0.00     0.039 A 
ATOM     13  C   UNL d   1      24.605  -8.276  -4.645  0.00  0.00     0.022 A 
ATOM     14  C   UNL d   1      24.795  -7.736  -5.908  0.00  0.00     0.011 A 
ATOM     15  C   UNL d   1      25.529  -8.439  -6.857  0.00  0.00     0.028 A 
ATOM     16 BR   UNL d   1      24.073  -6.049  -6.361  0.00  0.00    -0.051 Br
ATOM     17  C   UNL d   1      26.097  -9.697  -6.568  0.00  0.00    -0.027 A 
ATOM     18  C   UNL d   1      26.879 -10.334  -7.671  0.00  0.00     0.051 C 
ENDBRANCH  10  11
ENDBRANCH   9  10
ENDBRANCH   6   9
ENDBRANCH   3   5
ENDBRANCH   1   3
BRANCH   1  19
ATOM     19  N   UNL d   1      27.209 -16.244  -2.695  0.00  0.00    -0.264 N 
ATOM     20  C   UNL d   1      27.071 -16.466  -1.331  0.00  0.00     0.270 C 
ATOM     21  O   UNL d   1      27.999 -16.345  -0.539  0.00  0.00    -0.266 OA
ATOM     22  H   UNL d   1      26.414 -16.274  -3.336  0.00  0.00     0.190 HD
BRANCH  20  23
ATOM     23  C   UNL d   1      25.709 -16.908  -0.844  0.00  0.00     0.033 A 
ATOM     24  C   UNL d   1      25.534 -18.082  -0.087  0.00  0.00     0.019 A 
ATOM     25  C   UNL d   1      24.236 -18.579   0.225  0.00  0.00     0.030 A 
ATOM     26  C   UNL d   1      23.090 -17.868  -0.160  0.00  0.00     0.034 A 
ATOM     27  C   UNL d   1      23.291 -16.718  -0.930  0.00  0.00     0.030 A 
ATOM     28  C   UNL d   1      24.566 -16.235  -1.261  0.00  0.00     0.019 A 
BRANCH  26  29
ATOM     29  N   UNL d   1      21.780 -18.283   0.241  0.00  0.00    -0.327 N 
ATOM     30  C   UNL d   1      20.872 -18.950  -0.581  0.00  0.00     0.226 C 
ATOM     31  O   UNL d   1      21.074 -19.328  -1.734  0.00  0.00    -0.273 OA
ATOM     32  H   UNL d   1      21.469 -18.013   1.168  0.00  0.00     0.169 HD
BRANCH  30  33
ATOM     33  C   UNL d   1      19.534 -19.275   0.005  0.00  0.00     0.078 A 
ATOM     34  C   UNL d   1      19.190 -20.708   0.406  0.00  0.00     0.015 A 
ATOM     35  C   UNL d   1      19.503 -19.694   1.463  0.00  0.00     0.015 A 
ENDBRANCH  30  33
ENDBRANCH  26  29
ENDBRANCH  20  23
ENDBRANCH   1  19
TORSDOF 9
ENDMDL
MODEL 5
REMARK VINA RESULT:    -9.134      4.746      6.019
REMARK INTER + INTRA:         -14.737
REMARK INTER:                 -11.819
REMARK INTRA:                  -2.918
REMARK CONF_INDEPENDENT:        2.685
REMARK UNBOUND:                -2.918
REMARK  9 active torsions:
REMARK  status: ('A' for Active; 'I' for Inactive)
REMARK    1  A    between atoms: C_8  and  O_9 
REMARK    2  A    between atoms: O_9  and  C_10 
REMARK    3  A    between atoms: C_10  and  C_11 
REMARK       I    between atoms: C_11  and  N_13 
REMARK    4  A    between atoms: N_13  and  C_14 
REMARK    5  A    between atoms: C_14  and  N_16 
REMARK    6  A    between atoms: N_16  and  N_17 
REMARK       I    between atoms: N_17  and  C_18 
REMARK    7  A    between atoms: C_18  and  C_20 
REMARK    8  A    between atoms: C_23  and  N_24 
REMARK       I    between atoms: N_24  and  C_25 
REMARK    9  A    between atoms: C_25  and  C_27 
ROOT
ATOM      1  N   UNL d   1      28.429 -15.826  -3.348  0.00  0.00    -0.273 N 
ATOM      2  H   UNL d   1      29.271 -16.074  -2.830  0.00  0.00     0.189 HD
ENDROOT
BRANCH   1   3
ATOM      3  C   UNL d   1      28.343 -15.152  -4.580  0.00  0.00     0.193 C 
ATOM      4  S   UNL d   1      29.326 -15.666  -5.857  0.00  0.00    -0.039 SA
BRANCH   3   5
ATOM      5  N   UNL d   1      27.426 -14.080  -4.657  0.00  0.00    -0.301 N 
ATOM      6  C   UNL d   1      26.011 -14.222  -4.644  0.00  0.00     0.248 C 
ATOM      7  O   UNL d   1      25.422 -15.299  -4.563  0.00  0.00    -0.271 OA
ATOM      8  H   UNL d   1      27.804 -13.143  -4.727  0.00  0.00     0.171 HD
BRANCH   6   9
ATOM      9  C   UNL d   1      25.159 -12.950  -4.735  0.00  0.00     0.278 C 
BRANCH   9  10
ATOM     10  O   UNL d   1      25.950 -11.769  -4.962  0.00  0.00    -0.342 OA
BRANCH  10  11
ATOM     11  C   UNL d   1      26.036 -10.767  -4.025  0.00  0.00     0.075 A 
ATOM     12  C   UNL d   1      25.409  -9.556  -4.403  0.00  0.00     0.039 A 
ATOM     13  C   UNL d   1      25.400  -8.434  -3.557  0.00  0.00     0.022 A 
ATOM     14  C   UNL d   1      26.030  -8.508  -2.324  0.00  0.00     0.011 A 
ATOM     15  C   UNL d   1      26.655  -9.689  -1.938  0.00  0.00     0.028 A 
ATOM     16 BR   UNL d   1      26.049  -7.025  -1.153  0.00  0.00    -0.051 Br
ATOM     17  C   UNL d   1      26.662 -10.828  -2.770  0.00  0.00    -0.027 A 
ATOM     18  C   UNL d   1      27.352 -12.037  -2.223  0.00  0.00     0.051 C 
ENDBRANCH  10  11
ENDBRANCH   9  10
ENDBRANCH   6   9
ENDBRANCH   3   5
ENDBRANCH   1   3
BRANCH   1  19
ATOM     19  N   UNL d   1      27.183 -16.257  -2.724  0.00  0.00    -0.264 N 
ATOM     20  C   UNL d   1      27.050 -16.444  -1.355  0.00  0.00     0.270 C 
ATOM     21  O   UNL d   1      27.976 -16.285  -0.567  0.00  0.00    -0.266 OA
ATOM     22  H   UNL d   1      26.389 -16.319  -3.363  0.00  0.00     0.190 HD
BRANCH  20  23
ATOM     23  C   UNL d   1      25.696 -16.896  -0.854  0.00  0.00     0.033 A 
ATOM     24  C   UNL d   1      25.539 -18.069  -0.091  0.00  0.00     0.019 A 
ATOM     25  C   UNL d   1      24.248 -18.576   0.233  0.00  0.00     0.030 A 
ATOM     26  C   UNL d   1      23.092 -17.878  -0.145  0.00  0.00     0.034 A 
ATOM     27  C   UNL d   1      23.276 -16.729  -0.921  0.00  0.00     0.030 A 
ATOM     28  C   UNL d   1      24.544 -16.236  -1.264  0.00  0.00     0.019 A 
BRANCH  26  29
ATOM     29  N   UNL d   1      21.789 -18.303   0.269  0.00  0.00    -0.327 N 
ATOM     30  C   UNL d   1      20.883 -18.987  -0.540  0.00  0.00     0.226 C 
ATOM     31  O   UNL d   1      21.081 -19.374  -1.692  0.00  0.00    -0.273 OA
ATOM     32  H   UNL d   1      21.481 -18.029   1.196  0.00  0.00     0.169 HD
BRANCH  30  33
ATOM     33  C   UNL d   1      19.553 -19.322   0.057  0.00  0.00     0.078 A 
ATOM     34  C   UNL d   1      19.229 -20.754   0.478  0.00  0.00     0.015 A 
ATOM     35  C   UNL d   1      19.535 -19.723   1.520  0.00  0.00     0.015 A 
ENDBRANCH  30  33
ENDBRANCH  26  29
ENDBRANCH  20  23
ENDBRANCH   1  19
TORSDOF 9
ENDMDL
MODEL 6
REMARK VINA RESULT:    -9.038      5.431      6.802
REMARK INTER + INTRA:         -14.353
REMARK INTER:                 -11.723
REMARK INTRA:                  -2.630
REMARK CONF_INDEPENDENT:        2.685
REMARK UNBOUND:                -2.630
REMARK  9 active torsions:
REMARK  status: ('A' for Active; 'I' for Inactive)
REMARK    1  A    between atoms: C_8  and  O_9 
REMARK    2  A    between atoms: O_9  and  C_10 
REMARK    3  A    between atoms: C_10  and  C_11 
REMARK       I    between atoms: C_11  and  N_13 
REMARK    4  A    between atoms: N_13  and  C_14 
REMARK    5  A    between atoms: C_14  and  N_16 
REMARK    6  A    between atoms: N_16  and  N_17 
REMARK       I    between atoms: N_17  and  C_18 
REMARK    7  A    between atoms: C_18  and  C_20 
REMARK    8  A    between atoms: C_23  and  N_24 
REMARK       I    between atoms: N_24  and  C_25 
REMARK    9  A    between atoms: C_25  and  C_27 
ROOT
ATOM      1  N   UNL d   1      26.792 -13.386  -1.935  0.00  0.00    -0.273 N 
ATOM      2  H   UNL d   1      27.590 -13.150  -1.348  0.00  0.00     0.189 HD
ENDROOT
BRANCH   1   3
ATOM      3  C   UNL d   1      26.475 -12.871  -3.206  0.00  0.00     0.193 C 
ATOM      4  S   UNL d   1      25.531 -11.470  -3.301  0.00  0.00    -0.039 SA
BRANCH   3   5
ATOM      5  N   UNL d   1      26.979 -13.574  -4.322  0.00  0.00    -0.301 N 
ATOM      6  C   UNL d   1      27.721 -12.986  -5.383  0.00  0.00     0.248 C 
ATOM      7  O   UNL d   1      28.010 -11.792  -5.449  0.00  0.00    -0.271 OA
ATOM      8  H   UNL d   1      26.798 -14.569  -4.371  0.00  0.00     0.171 HD
BRANCH   6   9
ATOM      9  C   UNL d   1      28.195 -13.897  -6.522  0.00  0.00     0.278 C 
BRANCH   9  10
ATOM     10  O   UNL d   1      28.042 -15.295  -6.213  0.00  0.00    -0.342 OA
BRANCH  10  11
ATOM     11  C   UNL d   1      28.913 -15.948  -5.373  0.00  0.00     0.075 A 
ATOM     12  C   UNL d   1      28.528 -15.944  -4.012  0.00  0.00     0.039 A 
ATOM     13  C   UNL d   1      29.305 -16.572  -3.023  0.00  0.00     0.022 A 
ATOM     14  C   UNL d   1      30.485 -17.202  -3.387  0.00  0.00     0.011 A 
ATOM     15  C   UNL d   1      30.882 -17.211  -4.720  0.00  0.00     0.028 A 
ATOM     16 BR   UNL d   1      31.567 -18.056  -2.094  0.00  0.00    -0.051 Br
ATOM     17  C   UNL d   1      30.107 -16.597  -5.725  0.00  0.00    -0.027 A 
ATOM     18  C   UNL d   1      30.639 -16.699  -7.119  0.00  0.00     0.051 C 
ENDBRANCH  10  11
ENDBRANCH   9  10
ENDBRANCH   6   9
ENDBRANCH   3   5
ENDBRANCH   1   3
BRANCH   1  19
ATOM     19  N   UNL d   1      25.903 -14.398  -1.375  0.00  0.00    -0.264 N 
ATOM     20  C   UNL d   1      25.324 -15.401  -2.140  0.00  0.00     0.270 C 
ATOM     21  O   UNL d   1      25.495 -15.499  -3.351  0.00  0.00    -0.266 OA
ATOM     22  H   UNL d   1      25.815 -14.368  -0.358  0.00  0.00     0.190 HD
BRANCH  20  23
ATOM     23  C   UNL d   1      24.421 -16.377  -1.420  0.00  0.00     0.033 A 
ATOM     24  C   UNL d   1      24.861 -17.661  -1.047  0.00  0.00     0.019 A 
ATOM     25  C   UNL d   1      23.960 -18.631  -0.520  0.00  0.00     0.030 A 
ATOM     26  C   UNL d   1      22.614 -18.306  -0.296  0.00  0.00     0.034 A 
ATOM     27  C   UNL d   1      22.199 -17.032  -0.697  0.00  0.00     0.030 A 
ATOM     28  C   UNL d   1      23.076 -16.079  -1.237  0.00  0.00     0.019 A 
BRANCH  26  29
ATOM     29  N   UNL d   1      21.717 -19.222   0.340  0.00  0.00    -0.327 N 
ATOM     30  C   UNL d   1      20.616 -19.813  -0.279  0.00  0.00     0.226 C 
ATOM     31  O   UNL d   1      20.286 -19.686  -1.458  0.00  0.00    -0.273 OA
ATOM     32  H   UNL d   1      21.856 -19.402   1.328  0.00  0.00     0.169 HD
BRANCH  30  33
ATOM     33  C   UNL d   1      19.771 -20.723   0.556  0.00  0.00     0.078 A 
ATOM     34  C   UNL d   1      18.705 -20.153   1.489  0.00  0.00     0.015 A 
ATOM     35  C   UNL d   1      18.298 -20.811   0.207  0.00  0.00     0.015 A 
ENDBRANCH  30  33
ENDBRANCH  26  29
ENDBRANCH  20  23
ENDBRANCH   1  19
TORSDOF 9
ENDMDL
MODEL 7
REMARK VINA RESULT:    -8.938      4.787      6.602
REMARK INTER + INTRA:         -14.270
REMARK INTER:                 -11.623
REMARK INTRA:                  -2.648
REMARK CONF_INDEPENDENT:        2.685
REMARK UNBOUND:                -2.648
REMARK  9 active torsions:
REMARK  status: ('A' for Active; 'I' for Inactive)
REMARK    1  A    between atoms: C_8  and  O_9 
REMARK    2  A    between atoms: O_9  and  C_10 
REMARK    3  A    between atoms: C_10  and  C_11 
REMARK       I    between atoms: C_11  and  N_13 
REMARK    4  A    between atoms: N_13  and  C_14 
REMARK    5  A    between atoms: C_14  and  N_16 
REMARK    6  A    between atoms: N_16  and  N_17 
REMARK       I    between atoms: N_17  and  C_18 
REMARK    7  A    between atoms: C_18  and  C_20 
REMARK    8  A    between atoms: C_23  and  N_24 
REMARK       I    between atoms: N_24  and  C_25 
REMARK    9  A    between atoms: C_25  and  C_27 
ROOT
ATOM      1  N   UNL d   1      29.114 -15.461  -0.371  0.00  0.00    -0.273 N 
ATOM      2  H   UNL d   1      29.328 -14.833   0.402  0.00  0.00     0.189 HD
ENDROOT
BRANCH   1   3
ATOM      3  C   UNL d   1      29.894 -15.718  -1.514  0.00  0.00     0.193 C 
ATOM      4  S   UNL d   1      31.563 -15.928  -1.326  0.00  0.00    -0.039 SA
BRANCH   3   5
ATOM      5  N   UNL d   1      29.214 -15.783  -2.749  0.00  0.00    -0.301 N 
ATOM      6  C   UNL d   1      29.846 -15.867  -4.021  0.00  0.00     0.248 C 
ATOM      7  O   UNL d   1      31.064 -15.892  -4.188  0.00  0.00    -0.271 OA
ATOM      8  H   UNL d   1      28.201 -15.769  -2.729  0.00  0.00     0.171 HD
BRANCH   6   9
ATOM      9  C   UNL d   1      28.954 -15.931  -5.266  0.00  0.00     0.278 C 
BRANCH   9  10
ATOM     10  O   UNL d   1      27.589 -15.568  -4.988  0.00  0.00    -0.342 OA
BRANCH  10  11
ATOM     11  C   UNL d   1      27.135 -14.281  -5.162  0.00  0.00     0.075 A 
ATOM     12  C   UNL d   1      27.967 -13.471  -5.969  0.00  0.00     0.039 A 
ATOM     13  C   UNL d   1      27.646 -12.132  -6.251  0.00  0.00     0.022 A 
ATOM     14  C   UNL d   1      26.490 -11.585  -5.716  0.00  0.00     0.011 A 
ATOM     15  C   UNL d   1      25.661 -12.366  -4.916  0.00  0.00     0.028 A 
ATOM     16 BR   UNL d   1      26.016  -9.789  -6.062  0.00  0.00    -0.051 Br
ATOM     17  C   UNL d   1      25.963 -13.714  -4.635  0.00  0.00    -0.027 A 
ATOM     18  C   UNL d   1      24.977 -14.444  -3.781  0.00  0.00     0.051 C 
ENDBRANCH  10  11
ENDBRANCH   9  10
ENDBRANCH   6   9
ENDBRANCH   3   5
ENDBRANCH   1   3
BRANCH   1  19
ATOM     19  N   UNL d   1      27.854 -16.185  -0.237  0.00  0.00    -0.264 N 
ATOM     20  C   UNL d   1      26.689 -15.797  -0.884  0.00  0.00     0.270 C 
ATOM     21  O   UNL d   1      26.622 -14.803  -1.599  0.00  0.00    -0.266 OA
ATOM     22  H   UNL d   1      27.920 -17.054   0.295  0.00  0.00     0.190 HD
BRANCH  20  23
ATOM     23  C   UNL d   1      25.459 -16.644  -0.645  0.00  0.00     0.033 A 
ATOM     24  C   UNL d   1      25.483 -17.767   0.205  0.00  0.00     0.019 A 
ATOM     25  C   UNL d   1      24.371 -18.653   0.295  0.00  0.00     0.030 A 
ATOM     26  C   UNL d   1      23.191 -18.392  -0.416  0.00  0.00     0.034 A 
ATOM     27  C   UNL d   1      23.203 -17.284  -1.270  0.00  0.00     0.030 A 
ATOM     28  C   UNL d   1      24.302 -16.419  -1.381  0.00  0.00     0.019 A 
BRANCH  26  29
ATOM     29  N   UNL d   1      22.022 -19.200  -0.253  0.00  0.00    -0.327 N 
ATOM     30  C   UNL d   1      20.739 -18.832  -0.660  0.00  0.00     0.226 C 
ATOM     31  O   UNL d   1      20.432 -17.803  -1.261  0.00  0.00    -0.273 OA
ATOM     32  H   UNL d   1      22.125 -20.073   0.253  0.00  0.00     0.169 HD
BRANCH  30  33
ATOM     33  C   UNL d   1      19.631 -19.797  -0.375  0.00  0.00     0.078 A 
ATOM     34  C   UNL d   1      19.777 -20.844   0.727  0.00  0.00     0.015 A 
ATOM     35  C   UNL d   1      18.907 -19.645   0.949  0.00  0.00     0.015 A 
ENDBRANCH  30  33
ENDBRANCH  26  29
ENDBRANCH  20  23
ENDBRANCH   1  19
TORSDOF 9
ENDMDL
MODEL 8
REMARK VINA RESULT:    -8.907      5.189      7.350
REMARK INTER + INTRA:         -14.341
REMARK INTER:                 -11.592
REMARK INTRA:                  -2.749
REMARK CONF_INDEPENDENT:        2.685
REMARK UNBOUND:                -2.749
REMARK  9 active torsions:
REMARK  status: ('A' for Active; 'I' for Inactive)
REMARK    1  A    between atoms: C_8  and  O_9 
REMARK    2  A    between atoms: O_9  and  C_10 
REMARK    3  A    between atoms: C_10  and  C_11 
REMARK       I    between atoms: C_11  and  N_13 
REMARK    4  A    between atoms: N_13  and  C_14 
REMARK    5  A    between atoms: C_14  and  N_16 
REMARK    6  A    between atoms: N_16  and  N_17 
REMARK       I    between atoms: N_17  and  C_18 
REMARK    7  A    between atoms: C_18  and  C_20 
REMARK    8  A    between atoms: C_23  and  N_24 
REMARK       I    between atoms: N_24  and  C_25 
REMARK    9  A    between atoms: C_25  and  C_27 
ROOT
ATOM      1  N   UNL d   1      27.524 -13.972  -0.543  0.00  0.00    -0.273 N 
ATOM      2  H   UNL d   1      28.138 -13.935   0.269  0.00  0.00     0.189 HD
ENDROOT
BRANCH   1   3
ATOM      3  C   UNL d   1      27.677 -13.300  -1.770  0.00  0.00     0.193 C 
ATOM      4  S   UNL d   1      28.241 -11.705  -1.756  0.00  0.00    -0.039 SA
BRANCH   3   5
ATOM      5  N   UNL d   1      27.344 -14.022  -2.938  0.00  0.00    -0.301 N 
ATOM      6  C   UNL d   1      26.214 -13.758  -3.760  0.00  0.00     0.248 C 
ATOM      7  O   UNL d   1      25.395 -12.866  -3.546  0.00  0.00    -0.271 OA
ATOM      8  H   UNL d   1      27.954 -14.784  -3.208  0.00  0.00     0.171 HD
BRANCH   6   9
ATOM      9  C   UNL d   1      26.000 -14.640  -4.996  0.00  0.00     0.278 C 
BRANCH   9  10
ATOM     10  O   UNL d   1      27.076 -15.575  -5.201  0.00  0.00    -0.342 OA
BRANCH  10  11
ATOM     11  C   UNL d   1      28.253 -15.199  -5.803  0.00  0.00     0.075 A 
ATOM     12  C   UNL d   1      28.156 -14.040  -6.607  0.00  0.00     0.039 A 
ATOM     13  C   UNL d   1      29.268 -13.517  -7.289  0.00  0.00     0.022 A 
ATOM     14  C   UNL d   1      30.492 -14.159  -7.181  0.00  0.00     0.011 A 
ATOM     15  C   UNL d   1      30.606 -15.304  -6.399  0.00  0.00     0.028 A 
ATOM     16 BR   UNL d   1      32.017 -13.499  -8.082  0.00  0.00    -0.051 Br
ATOM     17  C   UNL d   1      29.502 -15.833  -5.699  0.00  0.00    -0.027 A 
ATOM     18  C   UNL d   1      29.768 -17.054  -4.878  0.00  0.00     0.051 C 
ENDBRANCH  10  11
ENDBRANCH   9  10
ENDBRANCH   6   9
ENDBRANCH   3   5
ENDBRANCH   1   3
BRANCH   1  19
ATOM     19  N   UNL d   1      26.370 -14.853  -0.394  0.00  0.00    -0.264 N 
ATOM     20  C   UNL d   1      26.220 -16.028  -1.118  0.00  0.00     0.270 C 
ATOM     21  O   UNL d   1      27.032 -16.403  -1.957  0.00  0.00    -0.266 OA
ATOM     22  H   UNL d   1      25.729 -14.587   0.354  0.00  0.00     0.190 HD
BRANCH  20  23
ATOM     23  C   UNL d   1      24.969 -16.836  -0.858  0.00  0.00     0.033 A 
ATOM     24  C   UNL d   1      23.682 -16.302  -1.059  0.00  0.00     0.019 A 
ATOM     25  C   UNL d   1      22.512 -17.008  -0.656  0.00  0.00     0.030 A 
ATOM     26  C   UNL d   1      22.611 -18.294  -0.104  0.00  0.00     0.034 A 
ATOM     27  C   UNL d   1      23.901 -18.791   0.106  0.00  0.00     0.030 A 
ATOM     28  C   UNL d   1      25.059 -18.092  -0.268  0.00  0.00     0.019 A 
BRANCH  26  29
ATOM     29  N   UNL d   1      21.449 -19.071   0.201  0.00  0.00    -0.327 N 
ATOM     30  C   UNL d   1      20.511 -19.497  -0.739  0.00  0.00     0.226 C 
ATOM     31  O   UNL d   1      20.567 -19.324  -1.957  0.00  0.00    -0.273 OA
ATOM     32  H   UNL d   1      21.262 -19.269   1.178  0.00  0.00     0.169 HD
BRANCH  30  33
ATOM     33  C   UNL d   1      19.339 -20.276  -0.229  0.00  0.00     0.078 A 
ATOM     34  C   UNL d   1      19.488 -21.200   0.978  0.00  0.00     0.015 A 
ATOM     35  C   UNL d   1      18.790 -19.884   1.130  0.00  0.00     0.015 A 
ENDBRANCH  30  33
ENDBRANCH  26  29
ENDBRANCH  20  23
ENDBRANCH   1  19
TORSDOF 9
ENDMDL
MODEL 9
REMARK VINA RESULT:    -8.777      4.054      5.406
REMARK INTER + INTRA:         -14.945
REMARK INTER:                 -11.462
REMARK INTRA:                  -3.483
REMARK CONF_INDEPENDENT:        2.685
REMARK UNBOUND:                -3.483
REMARK  9 active torsions:
REMARK  status: ('A' for Active; 'I' for Inactive)
REMARK    1  A    between atoms: C_8  and  O_9 
REMARK    2  A    between atoms: O_9  and  C_10 
REMARK    3  A    between atoms: C_10  and  C_11 
REMARK       I    between atoms: C_11  and  N_13 
REMARK    4  A    between atoms: N_13  and  C_14 
REMARK    5  A    between atoms: C_14  and  N_16 
REMARK    6  A    between atoms: N_16  and  N_17 
REMARK       I    between atoms: N_17  and  C_18 
REMARK    7  A    between atoms: C_18  and  C_20 
REMARK    8  A    between atoms: C_23  and  N_24 
REMARK       I    between atoms: N_24  and  C_25 
REMARK    9  A    between atoms: C_25  and  C_27 
ROOT
ATOM      1  N   UNL d   1      29.419 -16.266  -3.022  0.00  0.00    -0.273 N 
ATOM      2  H   UNL d   1      30.137 -16.219  -2.300  0.00  0.00     0.189 HD
ENDROOT
BRANCH   1   3
ATOM      3  C   UNL d   1      29.584 -16.115  -4.411  0.00  0.00     0.193 C 
ATOM      4  S   UNL d   1      30.335 -17.359  -5.278  0.00  0.00    -0.039 SA
BRANCH   3   5
ATOM      5  N   UNL d   1      29.101 -14.918  -4.985  0.00  0.00    -0.301 N 
ATOM      6  C   UNL d   1      27.760 -14.706  -5.409  0.00  0.00     0.248 C 
ATOM      7  O   UNL d   1      26.866 -15.545  -5.325  0.00  0.00    -0.271 OA
ATOM      8  H   UNL d   1      29.757 -14.156  -5.103  0.00  0.00     0.171 HD
BRANCH   6   9
ATOM      9  C   UNL d   1      27.403 -13.342  -6.013  0.00  0.00     0.278 C 
BRANCH   9  10
ATOM     10  O   UNL d   1      26.882 -12.424  -5.034  0.00  0.00    -0.342 OA
BRANCH  10  11
ATOM     11  C   UNL d   1      26.832 -12.745  -3.698  0.00  0.00     0.075 A 
ATOM     12  C   UNL d   1      27.949 -12.309  -2.949  0.00  0.00     0.039 A 
ATOM     13  C   UNL d   1      28.053 -12.551  -1.568  0.00  0.00     0.022 A 
ATOM     14  C   UNL d   1      27.040 -13.246  -0.924  0.00  0.00     0.011 A 
ATOM     15  C   UNL d   1      25.936 -13.687  -1.645  0.00  0.00     0.028 A 
ATOM     16 BR   UNL d   1      27.135 -13.601   0.930  0.00  0.00    -0.051 Br
ATOM     17  C   UNL d   1      25.812 -13.440  -3.028  0.00  0.00    -0.027 A 
ATOM     18  C   UNL d   1      24.565 -13.950  -3.677  0.00  0.00     0.051 C 
ENDBRANCH  10  11
ENDBRANCH   9  10
ENDBRANCH   6   9
ENDBRANCH   3   5
ENDBRANCH   1   3
BRANCH   1  19
ATOM     19  N   UNL d   1      28.076 -16.546  -2.527  0.00  0.00    -0.264 N 
ATOM     20  C   UNL d   1      27.789 -16.716  -1.179  0.00  0.00     0.270 C 
ATOM     21  O   UNL d   1      28.646 -16.667  -0.303  0.00  0.00    -0.266 OA
ATOM     22  H   UNL d   1      27.347 -16.514  -3.241  0.00  0.00     0.190 HD
BRANCH  20  23
ATOM     23  C   UNL d   1      26.349 -17.005  -0.818  0.00  0.00     0.033 A 
ATOM     24  C   UNL d   1      26.006 -17.789   0.301  0.00  0.00     0.019 A 
ATOM     25  C   UNL d   1      24.661 -18.194   0.539  0.00  0.00     0.030 A 
ATOM     26  C   UNL d   1      23.627 -17.765  -0.305  0.00  0.00     0.034 A 
ATOM     27  C   UNL d   1      23.998 -17.007  -1.420  0.00  0.00     0.030 A 
ATOM     28  C   UNL d   1      25.324 -16.623  -1.674  0.00  0.00     0.019 A 
BRANCH  26  29
ATOM     29  N   UNL d   1      22.255 -18.060  -0.022  0.00  0.00    -0.327 N 
ATOM     30  C   UNL d   1      21.411 -18.787  -0.860  0.00  0.00     0.226 C 
ATOM     31  O   UNL d   1      21.723 -19.324  -1.923  0.00  0.00    -0.273 OA
ATOM     32  H   UNL d   1      21.855 -17.656   0.818  0.00  0.00     0.169 HD
BRANCH  30  33
ATOM     33  C   UNL d   1      19.995 -18.969  -0.410  0.00  0.00     0.078 A 
ATOM     34  C   UNL d   1      19.438 -20.366  -0.148  0.00  0.00     0.015 A 
ATOM     35  C   UNL d   1      19.781 -19.473   1.004  0.00  0.00     0.015 A 
ENDBRANCH  30  33
ENDBRANCH  26  29
ENDBRANCH  20  23
ENDBRANCH   1  19
TORSDOF 9
ENDMDL
