MODEL 1
REMARK VINA RESULT:    -8.056      0.000      0.000
REMARK INTER + INTRA:         -11.835
REMARK INTER:                 -10.442
REMARK INTRA:                  -1.393
REMARK CONF_INDEPENDENT:        2.386
REMARK UNBOUND:                -1.393
REMARK  8 active torsions:
REMARK  status: ('A' for Active; 'I' for Inactive)
REMARK    1  A    between atoms: C_2  and  C_3 
REMARK    2  A    between atoms: C_3  and  N_4 
REMARK       I    between atoms: N_4  and  C_5 
REMARK       I    between atoms: C_5  and  N_7 
REMARK    3  A    between atoms: N_7  and  N_8 
REMARK       I    between atoms: N_8  and  C_9 
REMARK    4  A    between atoms: C_9  and  C_11 
REMARK    5  A    between atoms: C_11  and  C_12 
REMARK    6  A    between atoms: C_12  and  C_13 
REMARK    7  A    between atoms: C_16  and  C_17 
REMARK    8  A    between atoms: C_17  and  O_19 
ROOT
ATOM      1  N   UNL d   1      25.711 -13.502  -3.009  0.00  0.00    -0.266 N 
ATOM      2  C   UNL d   1      25.598 -14.800  -3.497  0.00  0.00     0.236 C 
ATOM      3  O   UNL d   1      25.167 -15.030  -4.628  0.00  0.00    -0.272 OA
ATOM      4  H   UNL d   1      26.062 -13.262  -2.083  0.00  0.00     0.190 HD
ENDROOT
BRANCH   2   5
ATOM      5  C   UNL d   1      26.047 -15.920  -2.550  0.00  0.00     0.109 C 
BRANCH   5   6
ATOM      6  C   UNL d   1      25.418 -15.796  -1.139  0.00  0.00     0.048 C 
BRANCH   6   7
ATOM      7  C   UNL d   1      24.227 -16.726  -0.973  0.00  0.00    -0.058 A 
ATOM      8  C   UNL d   1      24.371 -18.118  -1.011  0.00  0.00     0.008 A 
ATOM      9  C   UNL d   1      23.238 -18.944  -1.077  0.00  0.00     0.018 A 
ATOM     10  C   UNL d   1      21.943 -18.405  -0.993  0.00  0.00     0.039 A 
ATOM     11  C   UNL d   1      21.801 -17.017  -0.894  0.00  0.00     0.018 A 
ATOM     12  C   UNL d   1      22.934 -16.190  -0.875  0.00  0.00     0.008 A 
BRANCH  10  13
ATOM     13  C   UNL d   1      20.781 -19.346  -0.962  0.00  0.00     0.292 C 
ATOM     14  O   UNL d   1      20.297 -19.835  -1.978  0.00  0.00    -0.259 OA
BRANCH  13  15
ATOM     15  O   UNL d   1      20.367 -19.612   0.303  0.00  0.00    -0.323 OA
ATOM     16  C   UNL d   1      18.973 -19.941   0.411  0.00  0.00     0.213 C 
ENDBRANCH  13  15
ENDBRANCH  10  13
ENDBRANCH   6   7
ENDBRANCH   5   6
ENDBRANCH   2   5
BRANCH   1  17
ATOM     17  N   UNL d   1      25.311 -12.395  -3.836  0.00  0.00    -0.249 N 
ATOM     18  C   UNL d   1      25.759 -11.115  -3.540  0.00  0.00     0.334 C 
ATOM     19  N   UNL d   1      25.311 -10.125  -4.400  0.00  0.00    -0.342 N 
ATOM     20  O   UNL d   1      26.500 -10.887  -2.585  0.00  0.00    -0.246 OA
ATOM     21  H   UNL d   1      24.702 -10.364  -5.169  0.00  0.00     0.164 HD
ATOM     22  H   UNL d   1      24.699 -12.620  -4.614  0.00  0.00     0.192 HD
BRANCH  19  23
ATOM     23  C   UNL d   1      25.700  -8.722  -4.216  0.00  0.00     0.124 C 
BRANCH  23  24
ATOM     24  C   UNL d   1      24.724  -7.704  -4.826  0.00  0.00     0.015 C 
ATOM     25  C   UNL d   1      23.673  -8.377  -5.710  0.00  0.00     0.006 C 
ENDBRANCH  23  24
ENDBRANCH  19  23
ENDBRANCH   1  17
TORSDOF 8
ENDMDL
MODEL 2
REMARK VINA RESULT:    -7.672      4.012      9.189
REMARK INTER + INTRA:         -11.525
REMARK INTER:                 -10.059
REMARK INTRA:                  -1.466
REMARK CONF_INDEPENDENT:        2.386
REMARK UNBOUND:                -1.466
REMARK  8 active torsions:
REMARK  status: ('A' for Active; 'I' for Inactive)
REMARK    1  A    between atoms: C_2  and  C_3 
REMARK    2  A    between atoms: C_3  and  N_4 
REMARK       I    between atoms: N_4  and  C_5 
REMARK       I    between atoms: C_5  and  N_7 
REMARK    3  A    between atoms: N_7  and  N_8 
REMARK       I    between atoms: N_8  and  C_9 
REMARK    4  A    between atoms: C_9  and  C_11 
REMARK    5  A    between atoms: C_11  and  C_12 
REMARK    6  A    between atoms: C_12  and  C_13 
REMARK    7  A    between atoms: C_16  and  C_17 
REMARK    8  A    between atoms: C_17  and  O_19 
ROOT
ATOM      1  N   UNL d   1      23.892 -17.625  -0.289  0.00  0.00    -0.266 N 
ATOM      2  C   UNL d   1      25.225 -17.640   0.110  0.00  0.00     0.236 C 
ATOM      3  O   UNL d   1      25.695 -18.575   0.761  0.00  0.00    -0.272 OA
ATOM      4  H   UNL d   1      23.460 -16.877  -0.829  0.00  0.00     0.190 HD
ENDROOT
BRANCH   2   5
ATOM      5  C   UNL d   1      26.071 -16.432  -0.313  0.00  0.00     0.109 C 
BRANCH   5   6
ATOM      6  C   UNL d   1      25.310 -15.473  -1.263  0.00  0.00     0.048 C 
BRANCH   6   7
ATOM      7  C   UNL d   1      26.021 -15.327  -2.598  0.00  0.00    -0.058 A 
ATOM      8  C   UNL d   1      27.338 -15.763  -2.781  0.00  0.00     0.008 A 
ATOM      9  C   UNL d   1      28.042 -15.420  -3.946  0.00  0.00     0.018 A 
ATOM     10  C   UNL d   1      27.411 -14.733  -4.997  0.00  0.00     0.039 A 
ATOM     11  C   UNL d   1      26.075 -14.349  -4.838  0.00  0.00     0.018 A 
ATOM     12  C   UNL d   1      25.388 -14.654  -3.654  0.00  0.00     0.008 A 
BRANCH  10  13
ATOM     13  C   UNL d   1      28.183 -14.490  -6.254  0.00  0.00     0.292 C 
ATOM     14  O   UNL d   1      28.176 -13.411  -6.837  0.00  0.00    -0.259 OA
BRANCH  13  15
ATOM     15  O   UNL d   1      28.904 -15.575  -6.633  0.00  0.00    -0.323 OA
ATOM     16  C   UNL d   1      30.326 -15.374  -6.621  0.00  0.00     0.213 C 
ENDBRANCH  13  15
ENDBRANCH  10  13
ENDBRANCH   6   7
ENDBRANCH   5   6
ENDBRANCH   2   5
BRANCH   1  17
ATOM     17  N   UNL d   1      23.032 -18.722   0.067  0.00  0.00    -0.249 N 
ATOM     18  C   UNL d   1      21.700 -18.709  -0.322  0.00  0.00     0.334 C 
ATOM     19  N   UNL d   1      20.964 -19.813   0.077  0.00  0.00    -0.342 N 
ATOM     20  O   UNL d   1      21.219 -17.783  -0.973  0.00  0.00    -0.246 OA
ATOM     21  H   UNL d   1      21.405 -20.546   0.612  0.00  0.00     0.164 HD
ATOM     22  H   UNL d   1      23.463 -19.467   0.605  0.00  0.00     0.192 HD
BRANCH  19  23
ATOM     23  C   UNL d   1      19.540 -19.942  -0.260  0.00  0.00     0.124 C 
BRANCH  23  24
ATOM     24  C   UNL d   1      18.755 -20.899   0.650  0.00  0.00     0.015 C 
ATOM     25  C   UNL d   1      18.776 -20.450   2.111  0.00  0.00     0.006 C 
ENDBRANCH  23  24
ENDBRANCH  19  23
ENDBRANCH   1  17
TORSDOF 8
ENDMDL
MODEL 3
REMARK VINA RESULT:    -7.612      3.311      9.402
REMARK INTER + INTRA:         -11.426
REMARK INTER:                  -9.998
REMARK INTRA:                  -1.427
REMARK CONF_INDEPENDENT:        2.386
REMARK UNBOUND:                -1.427
REMARK  8 active torsions:
REMARK  status: ('A' for Active; 'I' for Inactive)
REMARK    1  A    between atoms: C_2  and  C_3 
REMARK    2  A    between atoms: C_3  and  N_4 
REMARK       I    between atoms: N_4  and  C_5 
REMARK       I    between atoms: C_5  and  N_7 
REMARK    3  A    between atoms: N_7  and  N_8 
REMARK       I    between atoms: N_8  and  C_9 
REMARK    4  A    between atoms: C_9  and  C_11 
REMARK    5  A    between atoms: C_11  and  C_12 
REMARK    6  A    between atoms: C_12  and  C_13 
REMARK    7  A    between atoms: C_16  and  C_17 
REMARK    8  A    between atoms: C_17  and  O_19 
ROOT
ATOM      1  N   UNL d   1      23.243 -17.681  -0.627  0.00  0.00    -0.266 N 
ATOM      2  C   UNL d   1      24.573 -17.480  -0.268  0.00  0.00     0.236 C 
ATOM      3  O   UNL d   1      25.142 -18.212   0.543  0.00  0.00    -0.272 OA
ATOM      4  H   UNL d   1      22.732 -17.104  -1.293  0.00  0.00     0.190 HD
ENDROOT
BRANCH   2   5
ATOM      5  C   UNL d   1      25.285 -16.301  -0.945  0.00  0.00     0.109 C 
BRANCH   5   6
ATOM      6  C   UNL d   1      25.488 -16.520  -2.465  0.00  0.00     0.048 C 
BRANCH   6   7
ATOM      7  C   UNL d   1      25.764 -15.211  -3.188  0.00  0.00    -0.058 A 
ATOM      8  C   UNL d   1      25.036 -14.049  -2.907  0.00  0.00     0.008 A 
ATOM      9  C   UNL d   1      25.158 -12.921  -3.734  0.00  0.00     0.018 A 
ATOM     10  C   UNL d   1      26.088 -12.893  -4.787  0.00  0.00     0.039 A 
ATOM     11  C   UNL d   1      26.858 -14.035  -5.029  0.00  0.00     0.018 A 
ATOM     12  C   UNL d   1      26.702 -15.176  -4.230  0.00  0.00     0.008 A 
BRANCH  10  13
ATOM     13  C   UNL d   1      26.244 -11.625  -5.565  0.00  0.00     0.292 C 
ATOM     14  O   UNL d   1      26.662 -11.603  -6.718  0.00  0.00    -0.259 OA
BRANCH  13  15
ATOM     15  O   UNL d   1      25.839 -10.537  -4.863  0.00  0.00    -0.323 OA
ATOM     16  C   UNL d   1      25.249  -9.502  -5.665  0.00  0.00     0.213 C 
ENDBRANCH  13  15
ENDBRANCH  10  13
ENDBRANCH   6   7
ENDBRANCH   5   6
ENDBRANCH   2   5
BRANCH   1  17
ATOM     17  N   UNL d   1      22.505 -18.765  -0.036  0.00  0.00    -0.249 N 
ATOM     18  C   UNL d   1      21.168 -18.948  -0.363  0.00  0.00     0.334 C 
ATOM     19  N   UNL d   1      20.555 -20.020   0.265  0.00  0.00    -0.342 N 
ATOM     20  O   UNL d   1      20.582 -18.210  -1.152  0.00  0.00    -0.246 OA
ATOM     21  H   UNL d   1      21.080 -20.596   0.907  0.00  0.00     0.164 HD
ATOM     22  H   UNL d   1      23.021 -19.353   0.611  0.00  0.00     0.192 HD
BRANCH  19  23
ATOM     23  C   UNL d   1      19.143 -20.341   0.021  0.00  0.00     0.124 C 
BRANCH  23  24
ATOM     24  C   UNL d   1      18.401 -20.917   1.237  0.00  0.00     0.015 C 
ATOM     25  C   UNL d   1      19.014 -20.450   2.558  0.00  0.00     0.006 C 
ENDBRANCH  23  24
ENDBRANCH  19  23
ENDBRANCH   1  17
TORSDOF 8
ENDMDL
MODEL 4
REMARK VINA RESULT:    -7.407      3.369      5.071
REMARK INTER + INTRA:         -11.283
REMARK INTER:                  -9.793
REMARK INTRA:                  -1.490
REMARK CONF_INDEPENDENT:        2.386
REMARK UNBOUND:                -1.490
REMARK  8 active torsions:
REMARK  status: ('A' for Active; 'I' for Inactive)
REMARK    1  A    between atoms: C_2  and  C_3 
REMARK    2  A    between atoms: C_3  and  N_4 
REMARK       I    between atoms: N_4  and  C_5 
REMARK       I    between atoms: C_5  and  N_7 
REMARK    3  A    between atoms: N_7  and  N_8 
REMARK       I    between atoms: N_8  and  C_9 
REMARK    4  A    between atoms: C_9  and  C_11 
REMARK    5  A    between atoms: C_11  and  C_12 
REMARK    6  A    between atoms: C_12  and  C_13 
REMARK    7  A    between atoms: C_16  and  C_17 
REMARK    8  A    between atoms: C_17  and  O_19 
ROOT
ATOM      1  N   UNL d   1      27.196 -15.520  -3.542  0.00  0.00    -0.266 N 
ATOM      2  C   UNL d   1      25.899 -15.081  -3.294  0.00  0.00     0.236 C 
ATOM      3  O   UNL d   1      25.163 -14.694  -4.202  0.00  0.00    -0.272 OA
ATOM      4  H   UNL d   1      27.841 -15.851  -2.826  0.00  0.00     0.190 HD
ENDROOT
BRANCH   2   5
ATOM      5  C   UNL d   1      25.443 -15.115  -1.829  0.00  0.00     0.109 C 
BRANCH   5   6
ATOM      6  C   UNL d   1      25.681 -16.492  -1.161  0.00  0.00     0.048 C 
BRANCH   6   7
ATOM      7  C   UNL d   1      24.372 -17.206  -0.868  0.00  0.00    -0.058 A 
ATOM      8  C   UNL d   1      24.331 -18.573  -0.570  0.00  0.00     0.008 A 
ATOM      9  C   UNL d   1      23.102 -19.250  -0.520  0.00  0.00     0.018 A 
ATOM     10  C   UNL d   1      21.888 -18.557  -0.657  0.00  0.00     0.039 A 
ATOM     11  C   UNL d   1      21.928 -17.179  -0.895  0.00  0.00     0.018 A 
ATOM     12  C   UNL d   1      23.158 -16.513  -0.989  0.00  0.00     0.008 A 
BRANCH  10  13
ATOM     13  C   UNL d   1      20.611 -19.317  -0.490  0.00  0.00     0.292 C 
ATOM     14  O   UNL d   1      20.117 -19.987  -1.391  0.00  0.00    -0.259 OA
BRANCH  13  15
ATOM     15  O   UNL d   1      20.105 -19.204   0.764  0.00  0.00    -0.323 OA
ATOM     16  C   UNL d   1      19.663 -20.445   1.337  0.00  0.00     0.213 C 
ENDBRANCH  13  15
ENDBRANCH  10  13
ENDBRANCH   6   7
ENDBRANCH   5   6
ENDBRANCH   2   5
BRANCH   1  17
ATOM     17  N   UNL d   1      27.700 -15.520  -4.889  0.00  0.00    -0.249 N 
ATOM     18  C   UNL d   1      28.997 -15.946  -5.141  0.00  0.00     0.334 C 
ATOM     19  N   UNL d   1      29.378 -15.901  -6.473  0.00  0.00    -0.342 N 
ATOM     20  O   UNL d   1      29.742 -16.333  -4.244  0.00  0.00    -0.246 OA
ATOM     21  H   UNL d   1      28.729 -15.573  -7.172  0.00  0.00     0.164 HD
ATOM     22  H   UNL d   1      27.057 -15.192  -5.603  0.00  0.00     0.192 HD
BRANCH  19  23
ATOM     23  C   UNL d   1      30.720 -16.321  -6.896  0.00  0.00     0.124 C 
BRANCH  23  24
ATOM     24  C   UNL d   1      30.983 -17.830  -6.778  0.00  0.00     0.015 C 
ATOM     25  C   UNL d   1      31.380 -18.450  -8.118  0.00  0.00     0.006 C 
ENDBRANCH  23  24
ENDBRANCH  19  23
ENDBRANCH   1  17
TORSDOF 8
ENDMDL
MODEL 5
REMARK VINA RESULT:    -7.327      5.419      7.036
REMARK INTER + INTRA:         -11.072
REMARK INTER:                  -9.713
REMARK INTRA:                  -1.359
REMARK CONF_INDEPENDENT:        2.386
REMARK UNBOUND:                -1.359
REMARK  8 active torsions:
REMARK  status: ('A' for Active; 'I' for Inactive)
REMARK    1  A    between atoms: C_2  and  C_3 
REMARK    2  A    between atoms: C_3  and  N_4 
REMARK       I    between atoms: N_4  and  C_5 
REMARK       I    between atoms: C_5  and  N_7 
REMARK    3  A    between atoms: N_7  and  N_8 
REMARK       I    between atoms: N_8  and  C_9 
REMARK    4  A    between atoms: C_9  and  C_11 
REMARK    5  A    between atoms: C_11  and  C_12 
REMARK    6  A    between atoms: C_12  and  C_13 
REMARK    7  A    between atoms: C_16  and  C_17 
REMARK    8  A    between atoms: C_17  and  O_19 
ROOT
ATOM      1  N   UNL d   1      27.855 -14.807   2.406  0.00  0.00    -0.266 N 
ATOM      2  C   UNL d   1      28.052 -15.228   1.095  0.00  0.00     0.236 C 
ATOM      3  O   UNL d   1      29.170 -15.530   0.674  0.00  0.00    -0.272 OA
ATOM      4  H   UNL d   1      26.951 -14.549   2.800  0.00  0.00     0.190 HD
ENDROOT
BRANCH   2   5
ATOM      5  C   UNL d   1      26.800 -15.298   0.211  0.00  0.00     0.109 C 
BRANCH   5   6
ATOM      6  C   UNL d   1      26.644 -16.668  -0.495  0.00  0.00     0.048 C 
BRANCH   6   7
ATOM      7  C   UNL d   1      25.214 -17.179  -0.419  0.00  0.00    -0.058 A 
ATOM      8  C   UNL d   1      24.927 -18.521  -0.146  0.00  0.00     0.008 A 
ATOM      9  C   UNL d   1      23.619 -19.010  -0.298  0.00  0.00     0.018 A 
ATOM     10  C   UNL d   1      22.557 -18.147  -0.615  0.00  0.00     0.039 A 
ATOM     11  C   UNL d   1      22.835 -16.793  -0.829  0.00  0.00     0.018 A 
ATOM     12  C   UNL d   1      24.150 -16.316  -0.721  0.00  0.00     0.008 A 
BRANCH  10  13
ATOM     13  C   UNL d   1      21.172 -18.710  -0.659  0.00  0.00     0.292 C 
ATOM     14  O   UNL d   1      20.256 -18.168  -1.270  0.00  0.00    -0.259 OA
BRANCH  13  15
ATOM     15  O   UNL d   1      21.072 -19.885   0.013  0.00  0.00    -0.323 OA
ATOM     16  C   UNL d   1      19.724 -20.287   0.303  0.00  0.00     0.213 C 
ENDBRANCH  13  15
ENDBRANCH  10  13
ENDBRANCH   6   7
ENDBRANCH   5   6
ENDBRANCH   2   5
BRANCH   1  17
ATOM     17  N   UNL d   1      28.979 -14.714   3.299  0.00  0.00    -0.249 N 
ATOM     18  C   UNL d   1      28.847 -14.045   4.507  0.00  0.00     0.334 C 
ATOM     19  N   UNL d   1      29.992 -14.014   5.287  0.00  0.00    -0.342 N 
ATOM     20  O   UNL d   1      27.789 -13.523   4.852  0.00  0.00    -0.246 OA
ATOM     21  H   UNL d   1      30.838 -14.457   4.957  0.00  0.00     0.164 HD
ATOM     22  H   UNL d   1      29.836 -15.155   2.980  0.00  0.00     0.192 HD
BRANCH  19  23
ATOM     23  C   UNL d   1      30.009 -13.343   6.592  0.00  0.00     0.124 C 
BRANCH  23  24
ATOM     24  C   UNL d   1      28.905 -13.800   7.558  0.00  0.00     0.015 C 
ATOM     25  C   UNL d   1      28.542 -12.714   8.571  0.00  0.00     0.006 C 
ENDBRANCH  23  24
ENDBRANCH  19  23
ENDBRANCH   1  17
TORSDOF 8
ENDMDL
MODEL 6
REMARK VINA RESULT:    -6.770      2.670      2.860
REMARK INTER + INTRA:          -9.949
REMARK INTER:                  -9.157
REMARK INTRA:                  -0.792
REMARK CONF_INDEPENDENT:        2.386
REMARK UNBOUND:                -0.792
REMARK  8 active torsions:
REMARK  status: ('A' for Active; 'I' for Inactive)
REMARK    1  A    between atoms: C_2  and  C_3 
REMARK    2  A    between atoms: C_3  and  N_4 
REMARK       I    between atoms: N_4  and  C_5 
REMARK       I    between atoms: C_5  and  N_7 
REMARK    3  A    between atoms: N_7  and  N_8 
REMARK       I    between atoms: N_8  and  C_9 
REMARK    4  A    between atoms: C_9  and  C_11 
REMARK    5  A    between atoms: C_11  and  C_12 
REMARK    6  A    between atoms: C_12  and  C_13 
REMARK    7  A    between atoms: C_16  and  C_17 
REMARK    8  A    between atoms: C_17  and  O_19 
ROOT
ATOM      1  N   UNL d   1      27.316 -14.799  -3.219  0.00  0.00    -0.266 N 
ATOM      2  C   UNL d   1      26.094 -15.462  -3.283  0.00  0.00     0.236 C 
ATOM      3  O   UNL d   1      25.186 -15.075  -4.021  0.00  0.00    -0.272 OA
ATOM      4  H   UNL d   1      28.095 -15.082  -2.627  0.00  0.00     0.190 HD
ENDROOT
BRANCH   2   5
ATOM      5  C   UNL d   1      25.948 -16.699  -2.387  0.00  0.00     0.109 C 
BRANCH   5   6
ATOM      6  C   UNL d   1      25.358 -16.362  -0.995  0.00  0.00     0.048 C 
BRANCH   6   7
ATOM      7  C   UNL d   1      24.053 -17.101  -0.746  0.00  0.00    -0.058 A 
ATOM      8  C   UNL d   1      24.030 -18.460  -0.411  0.00  0.00     0.008 A 
ATOM      9  C   UNL d   1      22.817 -19.167  -0.403  0.00  0.00     0.018 A 
ATOM     10  C   UNL d   1      21.595 -18.508  -0.618  0.00  0.00     0.039 A 
ATOM     11  C   UNL d   1      21.613 -17.137  -0.894  0.00  0.00     0.018 A 
ATOM     12  C   UNL d   1      22.831 -16.443  -0.946  0.00  0.00     0.008 A 
BRANCH  10  13
ATOM     13  C   UNL d   1      20.330 -19.297  -0.493  0.00  0.00     0.292 C 
ATOM     14  O   UNL d   1      19.946 -20.075  -1.360  0.00  0.00    -0.259 OA
BRANCH  13  15
ATOM     15  O   UNL d   1      19.700 -19.075   0.688  0.00  0.00    -0.323 OA
ATOM     16  C   UNL d   1      20.284 -19.758   1.808  0.00  0.00     0.213 C 
ENDBRANCH  13  15
ENDBRANCH  10  13
ENDBRANCH   6   7
ENDBRANCH   5   6
ENDBRANCH   2   5
BRANCH   1  17
ATOM     17  N   UNL d   1      27.532 -13.630  -4.028  0.00  0.00    -0.249 N 
ATOM     18  C   UNL d   1      27.662 -13.758  -5.404  0.00  0.00     0.334 C 
ATOM     19  N   UNL d   1      27.870 -12.568  -6.084  0.00  0.00    -0.342 N 
ATOM     20  O   UNL d   1      27.594 -14.848  -5.968  0.00  0.00    -0.246 OA
ATOM     21  H   UNL d   1      27.919 -11.698  -5.574  0.00  0.00     0.164 HD
ATOM     22  H   UNL d   1      27.584 -12.748  -3.528  0.00  0.00     0.192 HD
BRANCH  19  23
ATOM     23  C   UNL d   1      28.026 -12.542  -7.544  0.00  0.00     0.124 C 
BRANCH  23  24
ATOM     24  C   UNL d   1      27.239 -11.426  -8.249  0.00  0.00     0.015 C 
ATOM     25  C   UNL d   1      27.065 -11.702  -9.743  0.00  0.00     0.006 C 
ENDBRANCH  23  24
ENDBRANCH  19  23
ENDBRANCH   1  17
TORSDOF 8
ENDMDL
MODEL 7
REMARK VINA RESULT:    -6.709      4.550      9.360
REMARK INTER + INTRA:         -10.568
REMARK INTER:                  -9.096
REMARK INTRA:                  -1.473
REMARK CONF_INDEPENDENT:        2.386
REMARK UNBOUND:                -1.473
REMARK  8 active torsions:
REMARK  status: ('A' for Active; 'I' for Inactive)
REMARK    1  A    between atoms: C_2  and  C_3 
REMARK    2  A    between atoms: C_3  and  N_4 
REMARK       I    between atoms: N_4  and  C_5 
REMARK       I    between atoms: C_5  and  N_7 
REMARK    3  A    between atoms: N_7  and  N_8 
REMARK       I    between atoms: N_8  and  C_9 
REMARK    4  A    between atoms: C_9  and  C_11 
REMARK    5  A    between atoms: C_11  and  C_12 
REMARK    6  A    between atoms: C_12  and  C_13 
REMARK    7  A    between atoms: C_16  and  C_17 
REMARK    8  A    between atoms: C_17  and  O_19 
ROOT
ATOM      1  N   UNL d   1      23.205 -17.627  -0.667  0.00  0.00    -0.266 N 
ATOM      2  C   UNL d   1      24.589 -17.509  -0.588  0.00  0.00     0.236 C 
ATOM      3  O   UNL d   1      25.279 -18.359  -0.024  0.00  0.00    -0.272 OA
ATOM      4  H   UNL d   1      22.593 -16.953  -1.124  0.00  0.00     0.190 HD
ENDROOT
BRANCH   2   5
ATOM      5  C   UNL d   1      25.200 -16.267  -1.250  0.00  0.00     0.109 C 
BRANCH   5   6
ATOM      6  C   UNL d   1      26.735 -16.183  -1.059  0.00  0.00     0.048 C 
BRANCH   6   7
ATOM      7  C   UNL d   1      27.112 -15.175   0.014  0.00  0.00    -0.058 A 
ATOM      8  C   UNL d   1      27.646 -15.576   1.245  0.00  0.00     0.008 A 
ATOM      9  C   UNL d   1      27.779 -14.653   2.293  0.00  0.00     0.018 A 
ATOM     10  C   UNL d   1      27.486 -13.292   2.101  0.00  0.00     0.039 A 
ATOM     11  C   UNL d   1      27.009 -12.881   0.852  0.00  0.00     0.018 A 
ATOM     12  C   UNL d   1      26.834 -13.814  -0.181  0.00  0.00     0.008 A 
BRANCH  10  13
ATOM     13  C   UNL d   1      27.747 -12.342   3.225  0.00  0.00     0.292 C 
ATOM     14  O   UNL d   1      27.043 -11.361   3.441  0.00  0.00    -0.259 OA
BRANCH  13  15
ATOM     15  O   UNL d   1      28.812 -12.716   3.979  0.00  0.00    -0.323 OA
ATOM     16  C   UNL d   1      28.470 -13.212   5.282  0.00  0.00     0.213 C 
ENDBRANCH  13  15
ENDBRANCH  10  13
ENDBRANCH   6   7
ENDBRANCH   5   6
ENDBRANCH   2   5
BRANCH   1  17
ATOM     17  N   UNL d   1      22.554 -18.764  -0.072  0.00  0.00    -0.249 N 
ATOM     18  C   UNL d   1      21.197 -18.967  -0.276  0.00  0.00     0.334 C 
ATOM     19  N   UNL d   1      20.674 -20.090   0.345  0.00  0.00    -0.342 N 
ATOM     20  O   UNL d   1      20.518 -18.204  -0.961  0.00  0.00    -0.246 OA
ATOM     21  H   UNL d   1      21.273 -20.685   0.898  0.00  0.00     0.164 HD
ATOM     22  H   UNL d   1      23.145 -19.371   0.488  0.00  0.00     0.192 HD
BRANCH  19  23
ATOM     23  C   UNL d   1      19.253 -20.438   0.221  0.00  0.00     0.124 C 
BRANCH  23  24
ATOM     24  C   UNL d   1      18.543 -20.703   1.558  0.00  0.00     0.015 C 
ATOM     25  C   UNL d   1      19.460 -20.450   2.755  0.00  0.00     0.006 C 
ENDBRANCH  23  24
ENDBRANCH  19  23
ENDBRANCH   1  17
TORSDOF 8
ENDMDL
MODEL 8
REMARK VINA RESULT:    -6.619      6.034      7.586
REMARK INTER + INTRA:         -10.342
REMARK INTER:                  -9.006
REMARK INTRA:                  -1.336
REMARK CONF_INDEPENDENT:        2.386
REMARK UNBOUND:                -1.336
REMARK  8 active torsions:
REMARK  status: ('A' for Active; 'I' for Inactive)
REMARK    1  A    between atoms: C_2  and  C_3 
REMARK    2  A    between atoms: C_3  and  N_4 
REMARK       I    between atoms: N_4  and  C_5 
REMARK       I    between atoms: C_5  and  N_7 
REMARK    3  A    between atoms: N_7  and  N_8 
REMARK       I    between atoms: N_8  and  C_9 
REMARK    4  A    between atoms: C_9  and  C_11 
REMARK    5  A    between atoms: C_11  and  C_12 
REMARK    6  A    between atoms: C_12  and  C_13 
REMARK    7  A    between atoms: C_16  and  C_17 
REMARK    8  A    between atoms: C_17  and  O_19 
ROOT
ATOM      1  N   UNL d   1      28.139 -14.871   3.376  0.00  0.00    -0.266 N 
ATOM      2  C   UNL d   1      27.783 -14.524   2.077  0.00  0.00     0.236 C 
ATOM      3  O   UNL d   1      27.257 -13.440   1.818  0.00  0.00    -0.272 OA
ATOM      4  H   UNL d   1      28.577 -15.753   3.639  0.00  0.00     0.190 HD
ENDROOT
BRANCH   2   5
ATOM      5  C   UNL d   1      28.089 -15.564   0.991  0.00  0.00     0.109 C 
BRANCH   5   6
ATOM      6  C   UNL d   1      27.389 -15.246  -0.354  0.00  0.00     0.048 C 
BRANCH   6   7
ATOM      7  C   UNL d   1      26.215 -16.177  -0.609  0.00  0.00    -0.058 A 
ATOM      8  C   UNL d   1      25.152 -15.808  -1.442  0.00  0.00     0.008 A 
ATOM      9  C   UNL d   1      23.985 -16.587  -1.486  0.00  0.00     0.018 A 
ATOM     10  C   UNL d   1      23.901 -17.804  -0.788  0.00  0.00     0.039 A 
ATOM     11  C   UNL d   1      24.988 -18.202  -0.003  0.00  0.00     0.018 A 
ATOM     12  C   UNL d   1      26.135 -17.399   0.075  0.00  0.00     0.008 A 
BRANCH  10  13
ATOM     13  C   UNL d   1      22.672 -18.639  -0.959  0.00  0.00     0.292 C 
ATOM     14  O   UNL d   1      22.457 -19.303  -1.968  0.00  0.00    -0.259 OA
BRANCH  13  15
ATOM     15  O   UNL d   1      21.866 -18.598   0.132  0.00  0.00    -0.323 OA
ATOM     16  C   UNL d   1      20.753 -19.505   0.079  0.00  0.00     0.213 C 
ENDBRANCH  13  15
ENDBRANCH  10  13
ENDBRANCH   6   7
ENDBRANCH   5   6
ENDBRANCH   2   5
BRANCH   1  17
ATOM     17  N   UNL d   1      27.886 -13.951   4.452  0.00  0.00    -0.249 N 
ATOM     18  C   UNL d   1      28.575 -14.082   5.650  0.00  0.00     0.334 C 
ATOM     19  N   UNL d   1      28.251 -13.144   6.616  0.00  0.00    -0.342 N 
ATOM     20  O   UNL d   1      29.410 -14.966   5.828  0.00  0.00    -0.246 OA
ATOM     21  H   UNL d   1      27.556 -12.438   6.421  0.00  0.00     0.164 HD
ATOM     22  H   UNL d   1      27.189 -13.235   4.269  0.00  0.00     0.192 HD
BRANCH  19  23
ATOM     23  C   UNL d   1      28.897 -13.154   7.935  0.00  0.00     0.124 C 
BRANCH  23  24
ATOM     24  C   UNL d   1      28.568 -11.938   8.815  0.00  0.00     0.015 C 
ATOM     25  C   UNL d   1      29.432 -10.725   8.464  0.00  0.00     0.006 C 
ENDBRANCH  23  24
ENDBRANCH  19  23
ENDBRANCH   1  17
TORSDOF 8
ENDMDL
MODEL 9
REMARK VINA RESULT:    -6.385      5.049      9.554
REMARK INTER + INTRA:         -10.195
REMARK INTER:                  -8.772
REMARK INTRA:                  -1.423
REMARK CONF_INDEPENDENT:        2.386
REMARK UNBOUND:                -1.423
REMARK  8 active torsions:
REMARK  status: ('A' for Active; 'I' for Inactive)
REMARK    1  A    between atoms: C_2  and  C_3 
REMARK    2  A    between atoms: C_3  and  N_4 
REMARK       I    between atoms: N_4  and  C_5 
REMARK       I    between atoms: C_5  and  N_7 
REMARK    3  A    between atoms: N_7  and  N_8 
REMARK       I    between atoms: N_8  and  C_9 
REMARK    4  A    between atoms: C_9  and  C_11 
REMARK    5  A    between atoms: C_11  and  C_12 
REMARK    6  A    between atoms: C_12  and  C_13 
REMARK    7  A    between atoms: C_16  and  C_17 
REMARK    8  A    between atoms: C_17  and  O_19 
ROOT
ATOM      1  N   UNL d   1      23.907 -17.630  -0.305  0.00  0.00    -0.266 N 
ATOM      2  C   UNL d   1      25.237 -17.604   0.103  0.00  0.00     0.236 C 
ATOM      3  O   UNL d   1      25.725 -18.515   0.774  0.00  0.00    -0.272 OA
ATOM      4  H   UNL d   1      23.459 -16.904  -0.861  0.00  0.00     0.190 HD
ENDROOT
BRANCH   2   5
ATOM      5  C   UNL d   1      26.055 -16.383  -0.337  0.00  0.00     0.109 C 
BRANCH   5   6
ATOM      6  C   UNL d   1      27.535 -16.463   0.114  0.00  0.00     0.048 C 
BRANCH   6   7
ATOM      7  C   UNL d   1      28.476 -16.582  -1.074  0.00  0.00    -0.058 A 
ATOM      8  C   UNL d   1      28.183 -15.987  -2.307  0.00  0.00     0.008 A 
ATOM      9  C   UNL d   1      28.952 -16.293  -3.441  0.00  0.00     0.018 A 
ATOM     10  C   UNL d   1      30.091 -17.110  -3.344  0.00  0.00     0.039 A 
ATOM     11  C   UNL d   1      30.418 -17.657  -2.099  0.00  0.00     0.018 A 
ATOM     12  C   UNL d   1      29.622 -17.386  -0.976  0.00  0.00     0.008 A 
BRANCH  10  13
ATOM     13  C   UNL d   1      30.927 -17.313  -4.567  0.00  0.00     0.292 C 
ATOM     14  O   UNL d   1      32.138 -17.507  -4.517  0.00  0.00    -0.259 OA
BRANCH  13  15
ATOM     15  O   UNL d   1      30.188 -17.295  -5.705  0.00  0.00    -0.323 OA
ATOM     16  C   UNL d   1      30.803 -17.958  -6.820  0.00  0.00     0.213 C 
ENDBRANCH  13  15
ENDBRANCH  10  13
ENDBRANCH   6   7
ENDBRANCH   5   6
ENDBRANCH   2   5
BRANCH   1  17
ATOM     17  N   UNL d   1      23.072 -18.742   0.066  0.00  0.00    -0.249 N 
ATOM     18  C   UNL d   1      21.727 -18.739  -0.277  0.00  0.00     0.334 C 
ATOM     19  N   UNL d   1      21.017 -19.856   0.133  0.00  0.00    -0.342 N 
ATOM     20  O   UNL d   1      21.214 -17.810  -0.898  0.00  0.00    -0.246 OA
ATOM     21  H   UNL d   1      21.485 -20.591   0.642  0.00  0.00     0.164 HD
ATOM     22  H   UNL d   1      23.529 -19.488   0.579  0.00  0.00     0.192 HD
BRANCH  19  23
ATOM     23  C   UNL d   1      19.585 -19.998  -0.156  0.00  0.00     0.124 C 
BRANCH  23  24
ATOM     24  C   UNL d   1      18.711 -20.274   1.077  0.00  0.00     0.015 C 
ATOM     25  C   UNL d   1      17.963 -21.603   0.964  0.00  0.00     0.006 C 
ENDBRANCH  23  24
ENDBRANCH  19  23
ENDBRANCH   1  17
TORSDOF 8
ENDMDL
