MODEL 1
REMARK VINA RESULT:    -7.109      0.000      0.000
REMARK INTER + INTRA:         -11.032
REMARK INTER:                  -9.197
REMARK INTRA:                  -1.835
REMARK CONF_INDEPENDENT:        2.088
REMARK UNBOUND:                -1.835
REMARK  7 active torsions:
REMARK  status: ('A' for Active; 'I' for Inactive)
REMARK    1  A    between atoms: C_2  and  C_4 
REMARK    2  A    between atoms: C_4  and  C_5 
REMARK    3  A    between atoms: C_5  and  C_6 
REMARK       I    between atoms: C_6  and  N_8 
REMARK    4  A    between atoms: N_8  and  N_9 
REMARK    5  A    between atoms: N_9  and  C_10 
REMARK    6  A    between atoms: C_10  and  C_11 
REMARK    7  A    between atoms: C_10  and  C_14 
REMARK       I    between atoms: C_11  and  N_12 
ROOT
ATOM      1  C   UNL d   1      24.749 -16.701  -0.471  0.00  0.00     0.201 C 
ENDROOT
BRANCH   1   2
ATOM      2  N   UNL d   1      23.679 -17.456  -1.154  0.00  0.00    -0.220 NA
ATOM      3  H   UNL d   1      22.972 -16.805  -1.508  0.00  0.00     0.147 HD
BRANCH   2   4
ATOM      4  N   UNL d   1      23.012 -18.400  -0.340  0.00  0.00    -0.290 N 
ATOM      5  C   UNL d   1      21.647 -18.560  -0.547  0.00  0.00     0.231 C 
ATOM      6  O   UNL d   1      20.973 -17.821  -1.270  0.00  0.00    -0.272 OA
ATOM      7  H   UNL d   1      23.550 -19.178   0.053  0.00  0.00     0.183 HD
BRANCH   5   8
ATOM      8  C   UNL d   1      21.056 -19.716   0.229  0.00  0.00     0.104 C 
BRANCH   8   9
ATOM      9  C   UNL d   1      19.575 -19.904  -0.114  0.00  0.00     0.013 C 
BRANCH   9  10
ATOM     10  C   UNL d   1      18.692 -20.179   1.111  0.00  0.00    -0.022 C 
ATOM     11  C   UNL d   1      18.025 -21.550   0.979  0.00  0.00     0.009 C 
ATOM     12  C   UNL d   1      19.504 -20.131   2.405  0.00  0.00     0.009 C 
ENDBRANCH   9  10
ENDBRANCH   8   9
ENDBRANCH   5   8
ENDBRANCH   2   4
ENDBRANCH   1   2
BRANCH   1  13
ATOM     13  C   UNL d   1      25.767 -17.698   0.177  0.00  0.00     0.239 C 
ATOM     14  N   UNL d   1      27.095 -17.596  -0.142  0.00  0.00    -0.368 N 
ATOM     15  H   UNL d   1      27.457 -16.927  -0.811  0.00  0.00     0.159 HD
ATOM     16  H   UNL d   1      27.736 -18.286   0.220  0.00  0.00     0.159 HD
ATOM     17  O   UNL d   1      25.413 -18.566   0.981  0.00  0.00    -0.272 OA
ENDBRANCH   1  13
BRANCH   1  18
ATOM     18  C   UNL d   1      25.402 -15.758  -1.471  0.00  0.00    -0.030 A 
ATOM     19  C   UNL d   1      25.199 -15.960  -2.850  0.00  0.00     0.009 A 
ATOM     20  C   UNL d   1      25.907 -15.220  -3.787  0.00  0.00     0.001 A 
ATOM     21  C   UNL d   1      26.737 -14.187  -3.361  0.00  0.00     0.000 A 
ATOM     22  C   UNL d   1      26.911 -13.940  -1.998  0.00  0.00     0.001 A 
ATOM     23  C   UNL d   1      26.262 -14.734  -1.052  0.00  0.00     0.009 A 
ENDBRANCH   1  18
TORSDOF 7
ENDMDL
MODEL 2
REMARK VINA RESULT:    -6.170      2.816      7.277
REMARK INTER + INTRA:         -10.074
REMARK INTER:                  -8.258
REMARK INTRA:                  -1.816
REMARK CONF_INDEPENDENT:        2.088
REMARK UNBOUND:                -1.816
REMARK  7 active torsions:
REMARK  status: ('A' for Active; 'I' for Inactive)
REMARK    1  A    between atoms: C_2  and  C_4 
REMARK    2  A    between atoms: C_4  and  C_5 
REMARK    3  A    between atoms: C_5  and  C_6 
REMARK       I    between atoms: C_6  and  N_8 
REMARK    4  A    between atoms: N_8  and  N_9 
REMARK    5  A    between atoms: N_9  and  C_10 
REMARK    6  A    between atoms: C_10  and  C_11 
REMARK    7  A    between atoms: C_10  and  C_14 
REMARK       I    between atoms: C_11  and  N_12 
ROOT
ATOM      1  C   UNL d   1      25.964 -17.021  -1.034  0.00  0.00     0.201 C 
ENDROOT
BRANCH   1   2
ATOM      2  N   UNL d   1      26.037 -15.571  -1.305  0.00  0.00    -0.220 NA
ATOM      3  H   UNL d   1      25.115 -15.147  -1.161  0.00  0.00     0.147 HD
BRANCH   2   4
ATOM      4  N   UNL d   1      26.455 -15.236  -2.614  0.00  0.00    -0.290 N 
ATOM      5  C   UNL d   1      25.529 -14.592  -3.427  0.00  0.00     0.231 C 
ATOM      6  O   UNL d   1      24.340 -14.450  -3.131  0.00  0.00    -0.272 OA
ATOM      7  H   UNL d   1      27.454 -15.097  -2.791  0.00  0.00     0.183 HD
BRANCH   5   8
ATOM      8  C   UNL d   1      26.118 -14.105  -4.733  0.00  0.00     0.104 C 
BRANCH   8   9
ATOM      9  C   UNL d   1      26.960 -15.200  -5.395  0.00  0.00     0.013 C 
BRANCH   9  10
ATOM     10  C   UNL d   1      28.455 -14.861  -5.468  0.00  0.00    -0.022 C 
ATOM     11  C   UNL d   1      29.284 -16.043  -4.958  0.00  0.00     0.009 C 
ATOM     12  C   UNL d   1      28.880 -14.521  -6.895  0.00  0.00     0.009 C 
ENDBRANCH   9  10
ENDBRANCH   8   9
ENDBRANCH   5   8
ENDBRANCH   2   4
ENDBRANCH   1   2
BRANCH   1  13
ATOM     13  C   UNL d   1      26.900 -17.381   0.168  0.00  0.00     0.239 C 
ATOM     14  N   UNL d   1      27.784 -16.441   0.628  0.00  0.00    -0.368 N 
ATOM     15  H   UNL d   1      27.895 -15.527   0.206  0.00  0.00     0.159 HD
ATOM     16  H   UNL d   1      28.436 -16.702   1.353  0.00  0.00     0.159 HD
ATOM     17  O   UNL d   1      26.857 -18.482   0.725  0.00  0.00    -0.272 OA
ENDBRANCH   1  13
BRANCH   1  18
ATOM     18  C   UNL d   1      24.512 -17.403  -0.786  0.00  0.00    -0.030 A 
ATOM     19  C   UNL d   1      24.184 -18.746  -0.520  0.00  0.00     0.009 A 
ATOM     20  C   UNL d   1      22.858 -19.152  -0.451  0.00  0.00     0.001 A 
ATOM     21  C   UNL d   1      21.845 -18.201  -0.525  0.00  0.00     0.000 A 
ATOM     22  C   UNL d   1      22.155 -16.857  -0.738  0.00  0.00     0.001 A 
ATOM     23  C   UNL d   1      23.483 -16.457  -0.888  0.00  0.00     0.009 A 
ENDBRANCH   1  18
TORSDOF 7
ENDMDL
MODEL 3
REMARK VINA RESULT:    -6.169      2.832      7.213
REMARK INTER + INTRA:         -10.032
REMARK INTER:                  -8.257
REMARK INTRA:                  -1.774
REMARK CONF_INDEPENDENT:        2.088
REMARK UNBOUND:                -1.774
REMARK  7 active torsions:
REMARK  status: ('A' for Active; 'I' for Inactive)
REMARK    1  A    between atoms: C_2  and  C_4 
REMARK    2  A    between atoms: C_4  and  C_5 
REMARK    3  A    between atoms: C_5  and  C_6 
REMARK       I    between atoms: C_6  and  N_8 
REMARK    4  A    between atoms: N_8  and  N_9 
REMARK    5  A    between atoms: N_9  and  C_10 
REMARK    6  A    between atoms: C_10  and  C_11 
REMARK    7  A    between atoms: C_10  and  C_14 
REMARK       I    between atoms: C_11  and  N_12 
ROOT
ATOM      1  C   UNL d   1      25.951 -17.230  -1.050  0.00  0.00     0.201 C 
ENDROOT
BRANCH   1   2
ATOM      2  N   UNL d   1      26.074 -15.835  -1.517  0.00  0.00    -0.220 NA
ATOM      3  H   UNL d   1      25.143 -15.416  -1.600  0.00  0.00     0.147 HD
BRANCH   2   4
ATOM      4  N   UNL d   1      26.715 -15.686  -2.769  0.00  0.00    -0.290 N 
ATOM      5  C   UNL d   1      25.984 -15.081  -3.785  0.00  0.00     0.231 C 
ATOM      6  O   UNL d   1      24.780 -14.823  -3.702  0.00  0.00    -0.272 OA
ATOM      7  H   UNL d   1      27.738 -15.639  -2.797  0.00  0.00     0.183 HD
BRANCH   5   8
ATOM      8  C   UNL d   1      26.804 -14.794  -5.023  0.00  0.00     0.104 C 
BRANCH   8   9
ATOM      9  C   UNL d   1      27.137 -13.302  -5.124  0.00  0.00     0.013 C 
BRANCH   9  10
ATOM     10  C   UNL d   1      25.920 -12.388  -4.922  0.00  0.00    -0.022 C 
ATOM     11  C   UNL d   1      25.902 -11.852  -3.489  0.00  0.00     0.009 C 
ATOM     12  C   UNL d   1      25.934 -11.217  -5.904  0.00  0.00     0.009 C 
ENDBRANCH   9  10
ENDBRANCH   8   9
ENDBRANCH   5   8
ENDBRANCH   2   4
ENDBRANCH   1   2
BRANCH   1  13
ATOM     13  C   UNL d   1      26.846 -17.444   0.216  0.00  0.00     0.239 C 
ATOM     14  N   UNL d   1      27.688 -16.439   0.614  0.00  0.00    -0.368 N 
ATOM     15  H   UNL d   1      27.793 -15.569   0.107  0.00  0.00     0.159 HD
ATOM     16  H   UNL d   1      28.316 -16.609   1.385  0.00  0.00     0.159 HD
ATOM     17  O   UNL d   1      26.807 -18.486   0.878  0.00  0.00    -0.272 OA
ENDBRANCH   1  13
BRANCH   1  18
ATOM     18  C   UNL d   1      24.483 -17.536  -0.793  0.00  0.00    -0.030 A 
ATOM     19  C   UNL d   1      24.087 -18.859  -0.520  0.00  0.00     0.009 A 
ATOM     20  C   UNL d   1      22.742 -19.195  -0.442  0.00  0.00     0.001 A 
ATOM     21  C   UNL d   1      21.779 -18.193  -0.515  0.00  0.00     0.000 A 
ATOM     22  C   UNL d   1      22.157 -16.867  -0.735  0.00  0.00     0.001 A 
ATOM     23  C   UNL d   1      23.504 -16.538  -0.893  0.00  0.00     0.009 A 
ENDBRANCH   1  18
TORSDOF 7
ENDMDL
MODEL 4
REMARK VINA RESULT:    -5.662      1.862      2.938
REMARK INTER + INTRA:         -10.349
REMARK INTER:                  -7.750
REMARK INTRA:                  -2.599
REMARK CONF_INDEPENDENT:        2.088
REMARK UNBOUND:                -2.599
REMARK  7 active torsions:
REMARK  status: ('A' for Active; 'I' for Inactive)
REMARK    1  A    between atoms: C_2  and  C_4 
REMARK    2  A    between atoms: C_4  and  C_5 
REMARK    3  A    between atoms: C_5  and  C_6 
REMARK       I    between atoms: C_6  and  N_8 
REMARK    4  A    between atoms: N_8  and  N_9 
REMARK    5  A    between atoms: N_9  and  C_10 
REMARK    6  A    between atoms: C_10  and  C_11 
REMARK    7  A    between atoms: C_10  and  C_14 
REMARK       I    between atoms: C_11  and  N_12 
ROOT
ATOM      1  C   UNL d   1      27.185 -15.451  -0.558  0.00  0.00     0.201 C 
ENDROOT
BRANCH   1   2
ATOM      2  N   UNL d   1      26.063 -16.001   0.230  0.00  0.00    -0.220 NA
ATOM      3  H   UNL d   1      26.387 -16.808   0.772  0.00  0.00     0.147 HD
BRANCH   2   4
ATOM      4  N   UNL d   1      24.956 -16.427  -0.539  0.00  0.00    -0.290 N 
ATOM      5  C   UNL d   1      24.568 -17.756  -0.407  0.00  0.00     0.231 C 
ATOM      6  O   UNL d   1      25.226 -18.602   0.205  0.00  0.00    -0.272 OA
ATOM      7  H   UNL d   1      24.260 -15.733  -0.828  0.00  0.00     0.183 HD
BRANCH   5   8
ATOM      8  C   UNL d   1      23.270 -18.074  -1.115  0.00  0.00     0.104 C 
BRANCH   8   9
ATOM      9  C   UNL d   1      22.539 -19.227  -0.422  0.00  0.00     0.013 C 
BRANCH   9  10
ATOM     10  C   UNL d   1      21.047 -18.952  -0.185  0.00  0.00    -0.022 C 
ATOM     11  C   UNL d   1      20.211 -19.641  -1.265  0.00  0.00     0.009 C 
ATOM     12  C   UNL d   1      20.602 -19.440   1.192  0.00  0.00     0.009 C 
ENDBRANCH   9  10
ENDBRANCH   8   9
ENDBRANCH   5   8
ENDBRANCH   2   4
ENDBRANCH   1   2
BRANCH   1  13
ATOM     13  C   UNL d   1      28.310 -16.531  -0.698  0.00  0.00     0.239 C 
ATOM     14  N   UNL d   1      28.122 -17.766  -0.137  0.00  0.00    -0.368 N 
ATOM     15  H   UNL d   1      27.302 -18.012   0.404  0.00  0.00     0.159 HD
ATOM     16  H   UNL d   1      28.879 -18.433  -0.165  0.00  0.00     0.159 HD
ATOM     17  O   UNL d   1      29.358 -16.309  -1.314  0.00  0.00    -0.272 OA
ENDBRANCH   1  13
BRANCH   1  18
ATOM     18  C   UNL d   1      26.656 -14.973  -1.902  0.00  0.00    -0.030 A 
ATOM     19  C   UNL d   1      26.262 -13.629  -2.054  0.00  0.00     0.009 A 
ATOM     20  C   UNL d   1      25.626 -13.204  -3.213  0.00  0.00     0.001 A 
ATOM     21  C   UNL d   1      25.486 -14.084  -4.281  0.00  0.00     0.000 A 
ATOM     22  C   UNL d   1      25.918 -15.407  -4.166  0.00  0.00     0.001 A 
ATOM     23  C   UNL d   1      26.485 -15.859  -2.974  0.00  0.00     0.009 A 
ENDBRANCH   1  18
TORSDOF 7
ENDMDL
MODEL 5
REMARK VINA RESULT:    -5.387      9.897     12.061
REMARK INTER + INTRA:          -9.812
REMARK INTER:                  -7.475
REMARK INTRA:                  -2.337
REMARK CONF_INDEPENDENT:        2.088
REMARK UNBOUND:                -2.337
REMARK  7 active torsions:
REMARK  status: ('A' for Active; 'I' for Inactive)
REMARK    1  A    between atoms: C_2  and  C_4 
REMARK    2  A    between atoms: C_4  and  C_5 
REMARK    3  A    between atoms: C_5  and  C_6 
REMARK       I    between atoms: C_6  and  N_8 
REMARK    4  A    between atoms: N_8  and  N_9 
REMARK    5  A    between atoms: N_9  and  C_10 
REMARK    6  A    between atoms: C_10  and  C_11 
REMARK    7  A    between atoms: C_10  and  C_14 
REMARK       I    between atoms: C_11  and  N_12 
ROOT
ATOM      1  C   UNL d   1      32.100 -20.825   5.732  0.00  0.00     0.201 C 
ENDROOT
BRANCH   1   2
ATOM      2  N   UNL d   1      31.977 -20.423   4.316  0.00  0.00    -0.220 NA
ATOM      3  H   UNL d   1      30.995 -20.233   4.096  0.00  0.00     0.147 HD
BRANCH   2   4
ATOM      4  N   UNL d   1      32.438 -21.385   3.388  0.00  0.00    -0.290 N 
ATOM      5  C   UNL d   1      31.526 -21.838   2.442  0.00  0.00     0.231 C 
ATOM      6  O   UNL d   1      30.321 -21.576   2.473  0.00  0.00    -0.272 OA
ATOM      7  H   UNL d   1      33.439 -21.419   3.170  0.00  0.00     0.183 HD
BRANCH   5   8
ATOM      8  C   UNL d   1      32.151 -22.716   1.380  0.00  0.00     0.104 C 
BRANCH   8   9
ATOM      9  C   UNL d   1      31.609 -22.364  -0.008  0.00  0.00     0.013 C 
BRANCH   9  10
ATOM     10  C   UNL d   1      30.671 -23.432  -0.588  0.00  0.00    -0.022 C 
ATOM     11  C   UNL d   1      31.445 -24.347  -1.539  0.00  0.00     0.009 C 
ATOM     12  C   UNL d   1      30.031 -24.271   0.518  0.00  0.00     0.009 C 
ENDBRANCH   9  10
ENDBRANCH   8   9
ENDBRANCH   5   8
ENDBRANCH   2   4
ENDBRANCH   1   2
BRANCH   1  13
ATOM     13  C   UNL d   1      30.804 -21.579   6.180  0.00  0.00     0.239 C 
ATOM     14  N   UNL d   1      30.086 -22.282   5.249  0.00  0.00    -0.368 N 
ATOM     15  H   UNL d   1      30.328 -22.310   4.265  0.00  0.00     0.159 HD
ATOM     16  H   UNL d   1      29.212 -22.704   5.526  0.00  0.00     0.159 HD
ATOM     17  O   UNL d   1      30.415 -21.575   7.352  0.00  0.00    -0.272 OA
ENDBRANCH   1  13
BRANCH   1  18
ATOM     18  C   UNL d   1      33.359 -21.663   5.899  0.00  0.00    -0.030 A 
ATOM     19  C   UNL d   1      33.344 -22.771   6.768  0.00  0.00     0.009 A 
ATOM     20  C   UNL d   1      34.515 -23.455   7.064  0.00  0.00     0.001 A 
ATOM     21  C   UNL d   1      35.693 -23.118   6.403  0.00  0.00     0.000 A 
ATOM     22  C   UNL d   1      35.713 -22.054   5.499  0.00  0.00     0.001 A 
ATOM     23  C   UNL d   1      34.555 -21.314   5.259  0.00  0.00     0.009 A 
ENDBRANCH   1  18
TORSDOF 7
ENDMDL
MODEL 6
REMARK VINA RESULT:    -5.375      3.697      5.455
REMARK INTER + INTRA:         -10.115
REMARK INTER:                  -7.463
REMARK INTRA:                  -2.652
REMARK CONF_INDEPENDENT:        2.088
REMARK UNBOUND:                -2.652
REMARK  7 active torsions:
REMARK  status: ('A' for Active; 'I' for Inactive)
REMARK    1  A    between atoms: C_2  and  C_4 
REMARK    2  A    between atoms: C_4  and  C_5 
REMARK    3  A    between atoms: C_5  and  C_6 
REMARK       I    between atoms: C_6  and  N_8 
REMARK    4  A    between atoms: N_8  and  N_9 
REMARK    5  A    between atoms: N_9  and  C_10 
REMARK    6  A    between atoms: C_10  and  C_11 
REMARK    7  A    between atoms: C_10  and  C_14 
REMARK       I    between atoms: C_11  and  N_12 
ROOT
ATOM      1  C   UNL d   1      26.721 -14.424  -5.391  0.00  0.00     0.201 C 
ENDROOT
BRANCH   1   2
ATOM      2  N   UNL d   1      25.531 -15.193  -4.974  0.00  0.00    -0.220 NA
ATOM      3  H   UNL d   1      24.703 -14.591  -5.005  0.00  0.00     0.147 HD
BRANCH   2   4
ATOM      4  N   UNL d   1      25.608 -15.735  -3.670  0.00  0.00    -0.290 N 
ATOM      5  C   UNL d   1      24.778 -15.176  -2.704  0.00  0.00     0.231 C 
ATOM      6  O   UNL d   1      24.118 -14.149  -2.881  0.00  0.00    -0.272 OA
ATOM      7  H   UNL d   1      25.920 -16.704  -3.556  0.00  0.00     0.183 HD
BRANCH   5   8
ATOM      8  C   UNL d   1      24.787 -15.935  -1.396  0.00  0.00     0.104 C 
BRANCH   8   9
ATOM      9  C   UNL d   1      23.379 -16.415  -1.033  0.00  0.00     0.013 C 
BRANCH   9  10
ATOM     10  C   UNL d   1      23.359 -17.784  -0.339  0.00  0.00    -0.022 C 
ATOM     11  C   UNL d   1      22.767 -18.837  -1.279  0.00  0.00     0.009 C 
ATOM     12  C   UNL d   1      24.761 -18.214   0.088  0.00  0.00     0.009 C 
ENDBRANCH   9  10
ENDBRANCH   8   9
ENDBRANCH   5   8
ENDBRANCH   2   4
ENDBRANCH   1   2
BRANCH   1  13
ATOM     13  C   UNL d   1      26.427 -12.891  -5.271  0.00  0.00     0.239 C 
ATOM     14  N   UNL d   1      25.170 -12.480  -4.915  0.00  0.00    -0.368 N 
ATOM     15  H   UNL d   1      24.399 -13.118  -4.762  0.00  0.00     0.159 HD
ATOM     16  H   UNL d   1      24.966 -11.491  -4.911  0.00  0.00     0.159 HD
ATOM     17  O   UNL d   1      27.299 -12.040  -5.470  0.00  0.00    -0.272 OA
ENDBRANCH   1  13
BRANCH   1  18
ATOM     18  C   UNL d   1      27.912 -14.865  -4.554  0.00  0.00    -0.030 A 
ATOM     19  C   UNL d   1      28.755 -15.887  -5.031  0.00  0.00     0.009 A 
ATOM     20  C   UNL d   1      29.750 -16.421  -4.222  0.00  0.00     0.001 A 
ATOM     21  C   UNL d   1      29.993 -15.858  -2.972  0.00  0.00     0.000 A 
ATOM     22  C   UNL d   1      29.199 -14.810  -2.505  0.00  0.00     0.001 A 
ATOM     23  C   UNL d   1      28.147 -14.324  -3.283  0.00  0.00     0.009 A 
ENDBRANCH   1  18
TORSDOF 7
ENDMDL
MODEL 7
REMARK VINA RESULT:    -5.330      3.423      7.088
REMARK INTER + INTRA:          -9.653
REMARK INTER:                  -7.418
REMARK INTRA:                  -2.235
REMARK CONF_INDEPENDENT:        2.088
REMARK UNBOUND:                -2.235
REMARK  7 active torsions:
REMARK  status: ('A' for Active; 'I' for Inactive)
REMARK    1  A    between atoms: C_2  and  C_4 
REMARK    2  A    between atoms: C_4  and  C_5 
REMARK    3  A    between atoms: C_5  and  C_6 
REMARK       I    between atoms: C_6  and  N_8 
REMARK    4  A    between atoms: N_8  and  N_9 
REMARK    5  A    between atoms: N_9  and  C_10 
REMARK    6  A    between atoms: C_10  and  C_11 
REMARK    7  A    between atoms: C_10  and  C_14 
REMARK       I    between atoms: C_11  and  N_12 
ROOT
ATOM      1  C   UNL d   1      26.278 -16.992  -1.100  0.00  0.00     0.201 C 
ENDROOT
BRANCH   1   2
ATOM      2  N   UNL d   1      26.480 -15.529  -1.085  0.00  0.00    -0.220 NA
ATOM      3  H   UNL d   1      27.338 -15.295  -1.593  0.00  0.00     0.147 HD
BRANCH   2   4
ATOM      4  N   UNL d   1      26.587 -14.961   0.206  0.00  0.00    -0.290 N 
ATOM      5  C   UNL d   1      27.710 -14.183   0.463  0.00  0.00     0.231 C 
ATOM      6  O   UNL d   1      28.674 -14.100  -0.303  0.00  0.00    -0.272 OA
ATOM      7  H   UNL d   1      25.731 -14.790   0.742  0.00  0.00     0.183 HD
BRANCH   5   8
ATOM      8  C   UNL d   1      27.650 -13.466   1.793  0.00  0.00     0.104 C 
BRANCH   8   9
ATOM      9  C   UNL d   1      27.808 -14.454   2.953  0.00  0.00     0.013 C 
BRANCH   9  10
ATOM     10  C   UNL d   1      28.448 -13.834   4.203  0.00  0.00    -0.022 C 
ATOM     11  C   UNL d   1      27.401 -13.692   5.310  0.00  0.00     0.009 C 
ATOM     12  C   UNL d   1      29.614 -14.680   4.711  0.00  0.00     0.009 C 
ENDBRANCH   9  10
ENDBRANCH   8   9
ENDBRANCH   5   8
ENDBRANCH   2   4
ENDBRANCH   1   2
BRANCH   1  13
ATOM     13  C   UNL d   1      27.312 -17.677  -0.144  0.00  0.00     0.239 C 
ATOM     14  N   UNL d   1      28.530 -17.083   0.055  0.00  0.00    -0.368 N 
ATOM     15  H   UNL d   1      28.819 -16.235  -0.417  0.00  0.00     0.159 HD
ATOM     16  H   UNL d   1      29.220 -17.565   0.612  0.00  0.00     0.159 HD
ATOM     17  O   UNL d   1      27.057 -18.729   0.450  0.00  0.00    -0.272 OA
ENDBRANCH   1  13
BRANCH   1  18
ATOM     18  C   UNL d   1      24.835 -17.294  -0.723  0.00  0.00    -0.030 A 
ATOM     19  C   UNL d   1      24.478 -18.601  -0.339  0.00  0.00     0.009 A 
ATOM     20  C   UNL d   1      23.146 -18.944  -0.147  0.00  0.00     0.001 A 
ATOM     21  C   UNL d   1      22.166 -17.957  -0.217  0.00  0.00     0.000 A 
ATOM     22  C   UNL d   1      22.510 -16.645  -0.546  0.00  0.00     0.001 A 
ATOM     23  C   UNL d   1      23.838 -16.314  -0.818  0.00  0.00     0.009 A 
ENDBRANCH   1  18
TORSDOF 7
ENDMDL
MODEL 8
REMARK VINA RESULT:    -5.284      4.498      6.362
REMARK INTER + INTRA:          -9.666
REMARK INTER:                  -7.372
REMARK INTRA:                  -2.294
REMARK CONF_INDEPENDENT:        2.088
REMARK UNBOUND:                -2.294
REMARK  7 active torsions:
REMARK  status: ('A' for Active; 'I' for Inactive)
REMARK    1  A    between atoms: C_2  and  C_4 
REMARK    2  A    between atoms: C_4  and  C_5 
REMARK    3  A    between atoms: C_5  and  C_6 
REMARK       I    between atoms: C_6  and  N_8 
REMARK    4  A    between atoms: N_8  and  N_9 
REMARK    5  A    between atoms: N_9  and  C_10 
REMARK    6  A    between atoms: C_10  and  C_11 
REMARK    7  A    between atoms: C_10  and  C_14 
REMARK       I    between atoms: C_11  and  N_12 
ROOT
ATOM      1  C   UNL d   1      28.147 -14.602  -5.840  0.00  0.00     0.201 C 
ENDROOT
BRANCH   1   2
ATOM      2  N   UNL d   1      26.874 -15.245  -5.455  0.00  0.00    -0.220 NA
ATOM      3  H   UNL d   1      26.090 -14.637  -5.713  0.00  0.00     0.147 HD
BRANCH   2   4
ATOM      4  N   UNL d   1      26.750 -15.530  -4.076  0.00  0.00    -0.290 N 
ATOM      5  C   UNL d   1      25.565 -15.150  -3.456  0.00  0.00     0.231 C 
ATOM      6  O   UNL d   1      24.706 -14.447  -3.995  0.00  0.00    -0.272 OA
ATOM      7  H   UNL d   1      27.290 -16.307  -3.683  0.00  0.00     0.183 HD
BRANCH   5   8
ATOM      8  C   UNL d   1      25.442 -15.659  -2.037  0.00  0.00     0.104 C 
BRANCH   8   9
ATOM      9  C   UNL d   1      24.654 -16.972  -1.994  0.00  0.00     0.013 C 
BRANCH   9  10
ATOM     10  C   UNL d   1      24.322 -17.440  -0.570  0.00  0.00    -0.022 C 
ATOM     11  C   UNL d   1      23.315 -18.591  -0.620  0.00  0.00     0.009 C 
ATOM     12  C   UNL d   1      25.577 -17.894   0.174  0.00  0.00     0.009 C 
ENDBRANCH   9  10
ENDBRANCH   8   9
ENDBRANCH   5   8
ENDBRANCH   2   4
ENDBRANCH   1   2
BRANCH   1  13
ATOM     13  C   UNL d   1      28.397 -13.346  -4.941  0.00  0.00     0.239 C 
ATOM     14  N   UNL d   1      27.345 -12.795  -4.259  0.00  0.00    -0.368 N 
ATOM     15  H   UNL d   1      26.394 -13.136  -4.333  0.00  0.00     0.159 HD
ATOM     16  H   UNL d   1      27.495 -11.942  -3.740  0.00  0.00     0.159 HD
ATOM     17  O   UNL d   1      29.517 -12.843  -4.814  0.00  0.00    -0.272 OA
ENDBRANCH   1  13
BRANCH   1  18
ATOM     18  C   UNL d   1      29.266 -15.629  -5.744  0.00  0.00    -0.030 A 
ATOM     19  C   UNL d   1      30.032 -15.929  -6.886  0.00  0.00     0.009 A 
ATOM     20  C   UNL d   1      30.948 -16.973  -6.871  0.00  0.00     0.001 A 
ATOM     21  C   UNL d   1      31.197 -17.651  -5.681  0.00  0.00     0.000 A 
ATOM     22  C   UNL d   1      30.482 -17.331  -4.526  0.00  0.00     0.001 A 
ATOM     23  C   UNL d   1      29.504 -16.336  -4.557  0.00  0.00     0.009 A 
ENDBRANCH   1  18
TORSDOF 7
ENDMDL
MODEL 9
REMARK VINA RESULT:    -4.925      3.702      7.325
REMARK INTER + INTRA:          -9.645
REMARK INTER:                  -7.013
REMARK INTRA:                  -2.632
REMARK CONF_INDEPENDENT:        2.088
REMARK UNBOUND:                -2.632
REMARK  7 active torsions:
REMARK  status: ('A' for Active; 'I' for Inactive)
REMARK    1  A    between atoms: C_2  and  C_4 
REMARK    2  A    between atoms: C_4  and  C_5 
REMARK    3  A    between atoms: C_5  and  C_6 
REMARK       I    between atoms: C_6  and  N_8 
REMARK    4  A    between atoms: N_8  and  N_9 
REMARK    5  A    between atoms: N_9  and  C_10 
REMARK    6  A    between atoms: C_10  and  C_11 
REMARK    7  A    between atoms: C_10  and  C_14 
REMARK       I    between atoms: C_11  and  N_12 
ROOT
ATOM      1  C   UNL d   1      27.148 -17.093   0.628  0.00  0.00     0.201 C 
ENDROOT
BRANCH   1   2
ATOM      2  N   UNL d   1      28.113 -17.780  -0.254  0.00  0.00    -0.220 NA
ATOM      3  H   UNL d   1      29.015 -17.866   0.223  0.00  0.00     0.147 HD
BRANCH   2   4
ATOM      4  N   UNL d   1      28.351 -17.130  -1.488  0.00  0.00    -0.290 N 
ATOM      5  C   UNL d   1      29.644 -16.678  -1.725  0.00  0.00     0.231 C 
ATOM      6  O   UNL d   1      30.532 -16.666  -0.869  0.00  0.00    -0.272 OA
ATOM      7  H   UNL d   1      27.748 -17.352  -2.286  0.00  0.00     0.183 HD
BRANCH   5   8
ATOM      8  C   UNL d   1      29.850 -16.170  -3.135  0.00  0.00     0.104 C 
BRANCH   8   9
ATOM      9  C   UNL d   1      28.820 -15.092  -3.483  0.00  0.00     0.013 C 
BRANCH   9  10
ATOM     10  C   UNL d   1      27.831 -15.521  -4.576  0.00  0.00    -0.022 C 
ATOM     11  C   UNL d   1      26.400 -15.198  -4.141  0.00  0.00     0.009 C 
ATOM     12  C   UNL d   1      28.129 -14.824  -5.903  0.00  0.00     0.009 C 
ENDBRANCH   9  10
ENDBRANCH   8   9
ENDBRANCH   5   8
ENDBRANCH   2   4
ENDBRANCH   1   2
BRANCH   1  13
ATOM     13  C   UNL d   1      27.594 -15.607   0.842  0.00  0.00     0.239 C 
ATOM     14  N   UNL d   1      28.926 -15.327   0.994  0.00  0.00    -0.368 N 
ATOM     15  H   UNL d   1      29.646 -16.039   1.014  0.00  0.00     0.159 HD
ATOM     16  H   UNL d   1      29.202 -14.380   1.205  0.00  0.00     0.159 HD
ATOM     17  O   UNL d   1      26.783 -14.677   0.862  0.00  0.00    -0.272 OA
ENDBRANCH   1  13
BRANCH   1  18
ATOM     18  C   UNL d   1      25.757 -17.210   0.022  0.00  0.00    -0.030 A 
ATOM     19  C   UNL d   1      24.876 -18.201   0.495  0.00  0.00     0.009 A 
ATOM     20  C   UNL d   1      23.666 -18.438  -0.144  0.00  0.00     0.001 A 
ATOM     21  C   UNL d   1      23.268 -17.608  -1.187  0.00  0.00     0.000 A 
ATOM     22  C   UNL d   1      24.107 -16.587  -1.635  0.00  0.00     0.001 A 
ATOM     23  C   UNL d   1      25.359 -16.397  -1.048  0.00  0.00     0.009 A 
ENDBRANCH   1  18
TORSDOF 7
ENDMDL
