MODEL 1
REMARK VINA RESULT:   -30.412      0.000      0.000
REMARK INTER + INTRA:         -33.513
REMARK INTER:                 -32.202
REMARK INTRA:                  -1.311
REMARK CONF_INDEPENDENT:        1.790
REMARK UNBOUND:                -1.311
REMARK  6 active torsions:
REMARK  status: ('A' for Active; 'I' for Inactive)
REMARK    1  A    between atoms: C_4  and  C_5 
REMARK       I    between atoms: C_5  and  N_7 
REMARK    2  A    between atoms: N_7  and  C_8 
REMARK    3  A    between atoms: C_13  and  N_14 
REMARK    4  A    between atoms: N_14  and  C_15 
REMARK    5  A    between atoms: C_15  and  C_16 
REMARK       I    between atoms: C_16  and  N_18 
REMARK    6  A    between atoms: N_18  and  C_19 
ROOT
ATOM      1  C   UNL d   1      24.333 -16.634  -1.039  0.00  0.00     0.036 A 
ATOM      2  C   UNL d   1      25.177 -17.638  -0.560  0.00  0.00     0.029 A 
ATOM      3  C   UNL d   1      24.668 -18.862  -0.144  0.00  0.00     0.004 A 
ATOM      4  C   UNL d   1      23.301 -19.107  -0.225  0.00  0.00     0.023 A 
ATOM      5  C   UNL d   1      22.436 -18.110  -0.697  0.00  0.00     0.046 A 
ATOM      6  C   UNL d   1      21.037 -18.400  -0.809  0.00  0.00     0.099 C 
ATOM      7  N   UNL d   1      19.904 -18.657  -0.895  0.00  0.00    -0.191 NA
ATOM      8  C   UNL d   1      22.950 -16.855  -1.076  0.00  0.00     0.052 A 
ENDROOT
BRANCH   1   9
ATOM      9  N   UNL d   1      24.899 -15.421  -1.488  0.00  0.00    -0.326 N 
ATOM     10  C   UNL d   1      25.353 -15.288  -2.811  0.00  0.00     0.239 C 
ATOM     11  O   UNL d   1      25.274 -16.160  -3.676  0.00  0.00    -0.271 OA
ATOM     12  H   UNL d   1      24.806 -14.604  -0.893  0.00  0.00     0.169 HD
BRANCH  10  13
ATOM     13  C   UNL d   1      25.933 -13.925  -3.138  0.00  0.00     0.223 C 
BRANCH  13  14
ATOM     14  N   UNL d   1      27.232 -13.663  -2.510  0.00  0.00    -0.381 N 
ATOM     15  H   UNL d   1      27.982 -13.435  -3.160  0.00  0.00     0.160 HD
BRANCH  14  16
ATOM     16  C   UNL d   1      27.489 -13.682  -1.146  0.00  0.00     0.034 A 
ATOM     17  C   UNL d   1      27.266 -12.507  -0.395  0.00  0.00     0.031 A 
ATOM     18  C   UNL d   1      27.496 -12.439   0.995  0.00  0.00     0.019 A 
ATOM     19  C   UNL d   1      27.970 -13.552   1.684  0.00  0.00     0.032 A 
ATOM     20  C   UNL d   1      28.205 -14.723   0.954  0.00  0.00     0.026 A 
ATOM     21  C   UNL d   1      27.968 -14.803  -0.436  0.00  0.00    -0.035 A 
ATOM     22  C   UNL d   1      28.237 -16.132  -1.081  0.00  0.00     0.050 C 
BRANCH  19  23
ATOM     23  C   UNL d   1      28.241 -13.579   3.159  0.00  0.00     0.252 C 
ATOM     24  O   UNL d   1      27.687 -12.751   3.877  0.00  0.00    -0.268 OA
ATOM     25  N   UNL d   1      29.098 -14.546   3.661  0.00  0.00    -0.353 N 
ATOM     26  H   UNL d   1      29.560 -15.195   3.044  0.00  0.00     0.163 HD
BRANCH  25  27
ATOM     27  C   UNL d   1      29.382 -14.659   5.091  0.00  0.00     0.076 C 
ATOM     28  C   UNL d   1      29.770 -13.305   5.685  0.00  0.00     0.032 C 
ATOM     29  C   UNL d   1      28.171 -15.202   5.853  0.00  0.00     0.032 C 
ENDBRANCH  25  27
ENDBRANCH  19  23
ENDBRANCH  14  16
ENDBRANCH  13  14
ENDBRANCH  10  13
ENDBRANCH   1   9
TORSDOF 6
ENDMDL
MODEL 2
REMARK VINA RESULT:   -30.206      4.193      7.097
REMARK INTER + INTRA:         -32.990
REMARK INTER:                 -31.996
REMARK INTRA:                  -0.994
REMARK CONF_INDEPENDENT:        1.790
REMARK UNBOUND:                -0.994
REMARK  6 active torsions:
REMARK  status: ('A' for Active; 'I' for Inactive)
REMARK    1  A    between atoms: C_4  and  C_5 
REMARK       I    between atoms: C_5  and  N_7 
REMARK    2  A    between atoms: N_7  and  C_8 
REMARK    3  A    between atoms: C_13  and  N_14 
REMARK    4  A    between atoms: N_14  and  C_15 
REMARK    5  A    between atoms: C_15  and  C_16 
REMARK       I    between atoms: C_16  and  N_18 
REMARK    6  A    between atoms: N_18  and  C_19 
ROOT
ATOM      1  C   UNL d   1      24.388 -16.671  -1.017  0.00  0.00     0.036 A 
ATOM      2  C   UNL d   1      25.202 -17.703  -0.545  0.00  0.00     0.029 A 
ATOM      3  C   UNL d   1      24.658 -18.917  -0.145  0.00  0.00     0.004 A 
ATOM      4  C   UNL d   1      23.285 -19.123  -0.235  0.00  0.00     0.023 A 
ATOM      5  C   UNL d   1      22.450 -18.098  -0.702  0.00  0.00     0.046 A 
ATOM      6  C   UNL d   1      21.045 -18.350  -0.824  0.00  0.00     0.099 C 
ATOM      7  N   UNL d   1      19.905 -18.575  -0.919  0.00  0.00    -0.191 NA
ATOM      8  C   UNL d   1      23.000 -16.854  -1.064  0.00  0.00     0.052 A 
ENDROOT
BRANCH   1   9
ATOM      9  N   UNL d   1      24.989 -15.470  -1.451  0.00  0.00    -0.326 N 
ATOM     10  C   UNL d   1      25.357 -15.295  -2.795  0.00  0.00     0.239 C 
ATOM     11  O   UNL d   1      25.169 -16.118  -3.691  0.00  0.00    -0.271 OA
ATOM     12  H   UNL d   1      24.985 -14.679  -0.814  0.00  0.00     0.169 HD
BRANCH  10  13
ATOM     13  C   UNL d   1      25.989 -13.951  -3.101  0.00  0.00     0.223 C 
BRANCH  13  14
ATOM     14  N   UNL d   1      27.454 -13.979  -3.156  0.00  0.00    -0.381 N 
ATOM     15  H   UNL d   1      27.919 -13.407  -2.453  0.00  0.00     0.160 HD
BRANCH  14  16
ATOM     16  C   UNL d   1      28.215 -14.723  -4.049  0.00  0.00     0.034 A 
ATOM     17  C   UNL d   1      28.854 -15.894  -3.588  0.00  0.00     0.031 A 
ATOM     18  C   UNL d   1      29.641 -16.710  -4.426  0.00  0.00     0.019 A 
ATOM     19  C   UNL d   1      29.825 -16.373  -5.764  0.00  0.00     0.032 A 
ATOM     20  C   UNL d   1      29.206 -15.209  -6.237  0.00  0.00     0.026 A 
ATOM     21  C   UNL d   1      28.408 -14.391  -5.406  0.00  0.00    -0.035 A 
ATOM     22  C   UNL d   1      27.783 -13.192  -6.057  0.00  0.00     0.050 C 
BRANCH  19  23
ATOM     23  C   UNL d   1      30.639 -17.176  -6.733  0.00  0.00     0.252 C 
ATOM     24  O   UNL d   1      31.191 -16.598  -7.666  0.00  0.00    -0.268 OA
ATOM     25  N   UNL d   1      30.748 -18.545  -6.537  0.00  0.00    -0.353 N 
ATOM     26  H   UNL d   1      30.260 -18.996  -5.780  0.00  0.00     0.163 HD
BRANCH  25  27
ATOM     27  C   UNL d   1      31.553 -19.390  -7.418  0.00  0.00     0.076 C 
ATOM     28  C   UNL d   1      31.555 -20.841  -6.938  0.00  0.00     0.032 C 
ATOM     29  C   UNL d   1      31.028 -19.349  -8.855  0.00  0.00     0.032 C 
ENDBRANCH  25  27
ENDBRANCH  19  23
ENDBRANCH  14  16
ENDBRANCH  13  14
ENDBRANCH  10  13
ENDBRANCH   1   9
TORSDOF 6
ENDMDL
MODEL 3
REMARK VINA RESULT:   -30.130      4.049      6.850
REMARK INTER + INTRA:         -33.066
REMARK INTER:                 -31.920
REMARK INTRA:                  -1.146
REMARK CONF_INDEPENDENT:        1.790
REMARK UNBOUND:                -1.146
REMARK  6 active torsions:
REMARK  status: ('A' for Active; 'I' for Inactive)
REMARK    1  A    between atoms: C_4  and  C_5 
REMARK       I    between atoms: C_5  and  N_7 
REMARK    2  A    between atoms: N_7  and  C_8 
REMARK    3  A    between atoms: C_13  and  N_14 
REMARK    4  A    between atoms: N_14  and  C_15 
REMARK    5  A    between atoms: C_15  and  C_16 
REMARK       I    between atoms: C_16  and  N_18 
REMARK    6  A    between atoms: N_18  and  C_19 
ROOT
ATOM      1  C   UNL d   1      24.306 -16.502  -1.149  0.00  0.00     0.036 A 
ATOM      2  C   UNL d   1      25.175 -17.505  -0.717  0.00  0.00     0.029 A 
ATOM      3  C   UNL d   1      24.692 -18.743  -0.309  0.00  0.00     0.004 A 
ATOM      4  C   UNL d   1      23.326 -19.000  -0.351  0.00  0.00     0.023 A 
ATOM      5  C   UNL d   1      22.436 -18.004  -0.777  0.00  0.00     0.046 A 
ATOM      6  C   UNL d   1      21.038 -18.307  -0.850  0.00  0.00     0.099 C 
ATOM      7  N   UNL d   1      19.905 -18.575  -0.905  0.00  0.00    -0.191 NA
ATOM      8  C   UNL d   1      22.925 -16.736  -1.147  0.00  0.00     0.052 A 
ENDROOT
BRANCH   1   9
ATOM      9  N   UNL d   1      24.845 -15.274  -1.593  0.00  0.00    -0.326 N 
ATOM     10  C   UNL d   1      25.280 -15.119  -2.919  0.00  0.00     0.239 C 
ATOM     11  O   UNL d   1      25.205 -15.983  -3.793  0.00  0.00    -0.271 OA
ATOM     12  H   UNL d   1      24.746 -14.465  -0.987  0.00  0.00     0.169 HD
BRANCH  10  13
ATOM     13  C   UNL d   1      25.832 -13.743  -3.239  0.00  0.00     0.223 C 
BRANCH  13  14
ATOM     14  N   UNL d   1      27.294 -13.695  -3.339  0.00  0.00    -0.381 N 
ATOM     15  H   UNL d   1      27.738 -12.969  -2.780  0.00  0.00     0.160 HD
BRANCH  14  16
ATOM     16  C   UNL d   1      28.081 -14.555  -4.095  0.00  0.00     0.034 A 
ATOM     17  C   UNL d   1      28.323 -14.241  -5.451  0.00  0.00     0.031 A 
ATOM     18  C   UNL d   1      29.114 -15.055  -6.289  0.00  0.00     0.019 A 
ATOM     19  C   UNL d   1      29.684 -16.225  -5.797  0.00  0.00     0.032 A 
ATOM     20  C   UNL d   1      29.447 -16.557  -4.457  0.00  0.00     0.026 A 
ATOM     21  C   UNL d   1      28.665 -15.743  -3.608  0.00  0.00    -0.035 A 
ATOM     22  C   UNL d   1      28.520 -16.208  -2.188  0.00  0.00     0.050 C 
BRANCH  19  23
ATOM     23  C   UNL d   1      30.540 -17.152  -6.607  0.00  0.00     0.252 C 
ATOM     24  O   UNL d   1      31.261 -16.678  -7.482  0.00  0.00    -0.268 OA
ATOM     25  N   UNL d   1      30.497 -18.510  -6.333  0.00  0.00    -0.353 N 
ATOM     26  H   UNL d   1      29.875 -18.873  -5.628  0.00  0.00     0.163 HD
BRANCH  25  27
ATOM     27  C   UNL d   1      31.329 -19.471  -7.054  0.00  0.00     0.076 C 
ATOM     28  C   UNL d   1      31.156 -20.882  -6.492  0.00  0.00     0.032 C 
ATOM     29  C   UNL d   1      30.984 -19.491  -8.546  0.00  0.00     0.032 C 
ENDBRANCH  25  27
ENDBRANCH  19  23
ENDBRANCH  14  16
ENDBRANCH  13  14
ENDBRANCH  10  13
ENDBRANCH   1   9
TORSDOF 6
ENDMDL
MODEL 4
REMARK VINA RESULT:   -29.672      3.660      4.702
REMARK INTER + INTRA:         -32.749
REMARK INTER:                 -31.462
REMARK INTRA:                  -1.287
REMARK CONF_INDEPENDENT:        1.790
REMARK UNBOUND:                -1.287
REMARK  6 active torsions:
REMARK  status: ('A' for Active; 'I' for Inactive)
REMARK    1  A    between atoms: C_4  and  C_5 
REMARK       I    between atoms: C_5  and  N_7 
REMARK    2  A    between atoms: N_7  and  C_8 
REMARK    3  A    between atoms: C_13  and  N_14 
REMARK    4  A    between atoms: N_14  and  C_15 
REMARK    5  A    between atoms: C_15  and  C_16 
REMARK       I    between atoms: C_16  and  N_18 
REMARK    6  A    between atoms: N_18  and  C_19 
ROOT
ATOM      1  C   UNL d   1      24.390 -16.685  -0.957  0.00  0.00     0.036 A 
ATOM      2  C   UNL d   1      25.202 -17.731  -0.516  0.00  0.00     0.029 A 
ATOM      3  C   UNL d   1      24.655 -18.954  -0.147  0.00  0.00     0.004 A 
ATOM      4  C   UNL d   1      23.282 -19.153  -0.238  0.00  0.00     0.023 A 
ATOM      5  C   UNL d   1      22.448 -18.113  -0.674  0.00  0.00     0.046 A 
ATOM      6  C   UNL d   1      21.041 -18.356  -0.798  0.00  0.00     0.099 C 
ATOM      7  N   UNL d   1      19.901 -18.575  -0.895  0.00  0.00    -0.191 NA
ATOM      8  C   UNL d   1      23.001 -16.861  -1.005  0.00  0.00     0.052 A 
ENDROOT
BRANCH   1   9
ATOM      9  N   UNL d   1      24.994 -15.474  -1.361  0.00  0.00    -0.326 N 
ATOM     10  C   UNL d   1      25.403 -15.284  -2.691  0.00  0.00     0.239 C 
ATOM     11  O   UNL d   1      25.252 -16.100  -3.600  0.00  0.00    -0.271 OA
ATOM     12  H   UNL d   1      24.961 -14.688  -0.717  0.00  0.00     0.169 HD
BRANCH  10  13
ATOM     13  C   UNL d   1      26.032 -13.931  -2.964  0.00  0.00     0.223 C 
BRANCH  13  14
ATOM     14  N   UNL d   1      27.493 -13.914  -2.827  0.00  0.00    -0.381 N 
ATOM     15  H   UNL d   1      27.910 -12.984  -2.822  0.00  0.00     0.160 HD
BRANCH  14  16
ATOM     16  C   UNL d   1      28.304 -15.032  -2.686  0.00  0.00     0.034 A 
ATOM     17  C   UNL d   1      28.492 -15.578  -1.398  0.00  0.00     0.031 A 
ATOM     18  C   UNL d   1      29.295 -16.714  -1.165  0.00  0.00     0.019 A 
ATOM     19  C   UNL d   1      29.951 -17.340  -2.222  0.00  0.00     0.032 A 
ATOM     20  C   UNL d   1      29.783 -16.806  -3.505  0.00  0.00     0.026 A 
ATOM     21  C   UNL d   1      28.973 -15.675  -3.749  0.00  0.00    -0.035 A 
ATOM     22  C   UNL d   1      28.863 -15.232  -5.179  0.00  0.00     0.050 C 
BRANCH  19  23
ATOM     23  C   UNL d   1      30.821 -18.552  -2.075  0.00  0.00     0.252 C 
ATOM     24  O   UNL d   1      31.522 -18.895  -3.024  0.00  0.00    -0.268 OA
ATOM     25  N   UNL d   1      30.812 -19.237  -0.870  0.00  0.00    -0.353 N 
ATOM     26  H   UNL d   1      30.206 -18.949  -0.119  0.00  0.00     0.163 HD
BRANCH  25  27
ATOM     27  C   UNL d   1      31.660 -20.405  -0.638  0.00  0.00     0.076 C 
ATOM     28  C   UNL d   1      33.004 -19.999  -0.032  0.00  0.00     0.032 C 
ATOM     29  C   UNL d   1      30.980 -21.405   0.300  0.00  0.00     0.032 C 
ENDBRANCH  25  27
ENDBRANCH  19  23
ENDBRANCH  14  16
ENDBRANCH  13  14
ENDBRANCH  10  13
ENDBRANCH   1   9
TORSDOF 6
ENDMDL
MODEL 5
REMARK VINA RESULT:   -29.608      4.384      7.544
REMARK INTER + INTRA:         -32.264
REMARK INTER:                 -31.398
REMARK INTRA:                  -0.866
REMARK CONF_INDEPENDENT:        1.790
REMARK UNBOUND:                -0.866
REMARK  6 active torsions:
REMARK  status: ('A' for Active; 'I' for Inactive)
REMARK    1  A    between atoms: C_4  and  C_5 
REMARK       I    between atoms: C_5  and  N_7 
REMARK    2  A    between atoms: N_7  and  C_8 
REMARK    3  A    between atoms: C_13  and  N_14 
REMARK    4  A    between atoms: N_14  and  C_15 
REMARK    5  A    between atoms: C_15  and  C_16 
REMARK       I    between atoms: C_16  and  N_18 
REMARK    6  A    between atoms: N_18  and  C_19 
ROOT
ATOM      1  C   UNL d   1      24.371 -16.634  -0.873  0.00  0.00     0.036 A 
ATOM      2  C   UNL d   1      25.188 -17.691  -0.466  0.00  0.00     0.029 A 
ATOM      3  C   UNL d   1      24.649 -18.935  -0.164  0.00  0.00     0.004 A 
ATOM      4  C   UNL d   1      23.280 -19.146  -0.290  0.00  0.00     0.023 A 
ATOM      5  C   UNL d   1      22.442 -18.096  -0.692  0.00  0.00     0.046 A 
ATOM      6  C   UNL d   1      21.041 -18.349  -0.854  0.00  0.00     0.099 C 
ATOM      7  N   UNL d   1      19.905 -18.575  -0.982  0.00  0.00    -0.191 NA
ATOM      8  C   UNL d   1      22.985 -16.824  -0.954  0.00  0.00     0.052 A 
ENDROOT
BRANCH   1   9
ATOM      9  N   UNL d   1      24.967 -15.399  -1.208  0.00  0.00    -0.326 N 
ATOM     10  C   UNL d   1      25.330 -15.113  -2.535  0.00  0.00     0.239 C 
ATOM     11  O   UNL d   1      25.140 -15.860  -3.495  0.00  0.00    -0.271 OA
ATOM     12  H   UNL d   1      24.963 -14.663  -0.508  0.00  0.00     0.169 HD
BRANCH  10  13
ATOM     13  C   UNL d   1      25.957 -13.746  -2.731  0.00  0.00     0.223 C 
BRANCH  13  14
ATOM     14  N   UNL d   1      25.713 -13.161  -4.053  0.00  0.00    -0.381 N 
ATOM     15  H   UNL d   1      24.767 -12.810  -4.197  0.00  0.00     0.160 HD
BRANCH  14  16
ATOM     16  C   UNL d   1      26.652 -13.039  -5.069  0.00  0.00     0.034 A 
ATOM     17  C   UNL d   1      27.689 -13.993  -5.156  0.00  0.00     0.031 A 
ATOM     18  C   UNL d   1      28.681 -13.947  -6.157  0.00  0.00     0.019 A 
ATOM     19  C   UNL d   1      28.673 -12.930  -7.108  0.00  0.00     0.032 A 
ATOM     20  C   UNL d   1      27.657 -11.970  -7.032  0.00  0.00     0.026 A 
ATOM     21  C   UNL d   1      26.654 -12.014  -6.038  0.00  0.00    -0.035 A 
ATOM     22  C   UNL d   1      25.611 -10.936  -6.098  0.00  0.00     0.050 C 
BRANCH  19  23
ATOM     23  C   UNL d   1      29.680 -12.799  -8.211  0.00  0.00     0.252 C 
ATOM     24  O   UNL d   1      29.408 -12.095  -9.181  0.00  0.00    -0.268 OA
ATOM     25  N   UNL d   1      30.888 -13.469  -8.094  0.00  0.00    -0.353 N 
ATOM     26  H   UNL d   1      31.072 -14.062  -7.301  0.00  0.00     0.163 HD
BRANCH  25  27
ATOM     27  C   UNL d   1      31.934 -13.361  -9.110  0.00  0.00     0.076 C 
ATOM     28  C   UNL d   1      32.559 -11.966  -9.111  0.00  0.00     0.032 C 
ATOM     29  C   UNL d   1      33.039 -14.394  -8.877  0.00  0.00     0.032 C 
ENDBRANCH  25  27
ENDBRANCH  19  23
ENDBRANCH  14  16
ENDBRANCH  13  14
ENDBRANCH  10  13
ENDBRANCH   1   9
TORSDOF 6
ENDMDL
MODEL 6
REMARK VINA RESULT:   -28.978      4.497      7.450
REMARK INTER + INTRA:         -31.597
REMARK INTER:                 -30.767
REMARK INTRA:                  -0.830
REMARK CONF_INDEPENDENT:        1.790
REMARK UNBOUND:                -0.830
REMARK  6 active torsions:
REMARK  status: ('A' for Active; 'I' for Inactive)
REMARK    1  A    between atoms: C_4  and  C_5 
REMARK       I    between atoms: C_5  and  N_7 
REMARK    2  A    between atoms: N_7  and  C_8 
REMARK    3  A    between atoms: C_13  and  N_14 
REMARK    4  A    between atoms: N_14  and  C_15 
REMARK    5  A    between atoms: C_15  and  C_16 
REMARK       I    between atoms: C_16  and  N_18 
REMARK    6  A    between atoms: N_18  and  C_19 
ROOT
ATOM      1  C   UNL d   1      23.962 -16.781  -1.228  0.00  0.00     0.036 A 
ATOM      2  C   UNL d   1      24.929 -17.674  -0.764  0.00  0.00     0.029 A 
ATOM      3  C   UNL d   1      24.578 -18.951  -0.341  0.00  0.00     0.004 A 
ATOM      4  C   UNL d   1      23.250 -19.359  -0.401  0.00  0.00     0.023 A 
ATOM      5  C   UNL d   1      22.263 -18.474  -0.858  0.00  0.00     0.046 A 
ATOM      6  C   UNL d   1      20.908 -18.932  -0.948  0.00  0.00     0.099 C 
ATOM      7  N   UNL d   1      19.813 -19.325  -1.016  0.00  0.00    -0.191 NA
ATOM      8  C   UNL d   1      22.615 -17.167  -1.244  0.00  0.00     0.052 A 
ENDROOT
BRANCH   1   9
ATOM      9  N   UNL d   1      24.369 -15.508  -1.686  0.00  0.00    -0.326 N 
ATOM     10  C   UNL d   1      25.161 -15.380  -2.839  0.00  0.00     0.239 C 
ATOM     11  O   UNL d   1      25.530 -16.315  -3.550  0.00  0.00    -0.271 OA
ATOM     12  H   UNL d   1      23.933 -14.691  -1.269  0.00  0.00     0.169 HD
BRANCH  10  13
ATOM     13  C   UNL d   1      25.513 -13.949  -3.199  0.00  0.00     0.223 C 
BRANCH  13  14
ATOM     14  N   UNL d   1      25.544 -13.687  -4.642  0.00  0.00    -0.381 N 
ATOM     15  H   UNL d   1      24.648 -13.799  -5.115  0.00  0.00     0.160 HD
BRANCH  14  16
ATOM     16  C   UNL d   1      26.659 -13.290  -5.368  0.00  0.00     0.034 A 
ATOM     17  C   UNL d   1      26.670 -12.002  -5.947  0.00  0.00     0.031 A 
ATOM     18  C   UNL d   1      27.763 -11.516  -6.695  0.00  0.00     0.019 A 
ATOM     19  C   UNL d   1      28.885 -12.313  -6.899  0.00  0.00     0.032 A 
ATOM     20  C   UNL d   1      28.887 -13.597  -6.340  0.00  0.00     0.026 A 
ATOM     21  C   UNL d   1      27.802 -14.088  -5.580  0.00  0.00    -0.035 A 
ATOM     22  C   UNL d   1      27.956 -15.471  -5.017  0.00  0.00     0.050 C 
BRANCH  19  23
ATOM     23  C   UNL d   1      30.095 -11.885  -7.675  0.00  0.00     0.252 C 
ATOM     24  O   UNL d   1      30.315 -10.684  -7.812  0.00  0.00    -0.268 OA
ATOM     25  N   UNL d   1      30.927 -12.860  -8.202  0.00  0.00    -0.353 N 
ATOM     26  H   UNL d   1      30.706 -13.837  -8.098  0.00  0.00     0.163 HD
BRANCH  25  27
ATOM     27  C   UNL d   1      32.144 -12.521  -8.938  0.00  0.00     0.076 C 
ATOM     28  C   UNL d   1      32.779 -13.767  -9.556  0.00  0.00     0.032 C 
ATOM     29  C   UNL d   1      31.853 -11.514 -10.054  0.00  0.00     0.032 C 
ENDBRANCH  25  27
ENDBRANCH  19  23
ENDBRANCH  14  16
ENDBRANCH  13  14
ENDBRANCH  10  13
ENDBRANCH   1   9
TORSDOF 6
ENDMDL
MODEL 7
REMARK VINA RESULT:   -28.829      4.046      6.406
REMARK INTER + INTRA:         -31.143
REMARK INTER:                 -30.619
REMARK INTRA:                  -0.523
REMARK CONF_INDEPENDENT:        1.790
REMARK UNBOUND:                -0.523
REMARK  6 active torsions:
REMARK  status: ('A' for Active; 'I' for Inactive)
REMARK    1  A    between atoms: C_4  and  C_5 
REMARK       I    between atoms: C_5  and  N_7 
REMARK    2  A    between atoms: N_7  and  C_8 
REMARK    3  A    between atoms: C_13  and  N_14 
REMARK    4  A    between atoms: N_14  and  C_15 
REMARK    5  A    between atoms: C_15  and  C_16 
REMARK       I    between atoms: C_16  and  N_18 
REMARK    6  A    between atoms: N_18  and  C_19 
ROOT
ATOM      1  C   UNL d   1      24.385 -17.392  -1.396  0.00  0.00     0.036 A 
ATOM      2  C   UNL d   1      24.924 -17.602  -0.125  0.00  0.00     0.029 A 
ATOM      3  C   UNL d   1      24.173 -18.199   0.880  0.00  0.00     0.004 A 
ATOM      4  C   UNL d   1      22.873 -18.617   0.617  0.00  0.00     0.023 A 
ATOM      5  C   UNL d   1      22.311 -18.409  -0.650  0.00  0.00     0.046 A 
ATOM      6  C   UNL d   1      20.984 -18.885  -0.908  0.00  0.00     0.099 C 
ATOM      7  N   UNL d   1      19.905 -19.282  -1.099  0.00  0.00    -0.191 NA
ATOM      8  C   UNL d   1      23.059 -17.764  -1.654  0.00  0.00     0.052 A 
ENDROOT
BRANCH   1   9
ATOM      9  N   UNL d   1      25.198 -16.819  -2.398  0.00  0.00    -0.326 N 
ATOM     10  C   UNL d   1      25.052 -15.469  -2.756  0.00  0.00     0.239 C 
ATOM     11  O   UNL d   1      24.263 -14.681  -2.234  0.00  0.00    -0.271 OA
ATOM     12  H   UNL d   1      26.001 -17.351  -2.721  0.00  0.00     0.169 HD
BRANCH  10  13
ATOM     13  C   UNL d   1      25.999 -15.005  -3.846  0.00  0.00     0.223 C 
BRANCH  13  14
ATOM     14  N   UNL d   1      25.439 -13.973  -4.724  0.00  0.00    -0.381 N 
ATOM     15  H   UNL d   1      24.831 -14.324  -5.463  0.00  0.00     0.160 HD
BRANCH  14  16
ATOM     16  C   UNL d   1      25.653 -12.606  -4.604  0.00  0.00     0.034 A 
ATOM     17  C   UNL d   1      25.535 -11.795  -5.754  0.00  0.00     0.031 A 
ATOM     18  C   UNL d   1      25.731 -10.398  -5.721  0.00  0.00     0.019 A 
ATOM     19  C   UNL d   1      26.064  -9.763  -4.528  0.00  0.00     0.032 A 
ATOM     20  C   UNL d   1      26.194 -10.553  -3.379  0.00  0.00     0.026 A 
ATOM     21  C   UNL d   1      25.990 -11.951  -3.401  0.00  0.00    -0.035 A 
ATOM     22  C   UNL d   1      26.134 -12.664  -2.088  0.00  0.00     0.050 C 
BRANCH  19  23
ATOM     23  C   UNL d   1      26.288  -8.287  -4.392  0.00  0.00     0.252 C 
ATOM     24  O   UNL d   1      27.172  -7.758  -5.061  0.00  0.00    -0.268 OA
ATOM     25  N   UNL d   1      25.481  -7.568  -3.523  0.00  0.00    -0.353 N 
ATOM     26  H   UNL d   1      24.782  -8.033  -2.966  0.00  0.00     0.163 HD
BRANCH  25  27
ATOM     27  C   UNL d   1      25.614  -6.121  -3.364  0.00  0.00     0.076 C 
ATOM     28  C   UNL d   1      24.443  -5.385  -4.016  0.00  0.00     0.032 C 
ATOM     29  C   UNL d   1      25.676  -5.731  -1.885  0.00  0.00     0.032 C 
ENDBRANCH  25  27
ENDBRANCH  19  23
ENDBRANCH  14  16
ENDBRANCH  13  14
ENDBRANCH  10  13
ENDBRANCH   1   9
TORSDOF 6
ENDMDL
MODEL 8
REMARK VINA RESULT:   -28.155      4.818      7.624
REMARK INTER + INTRA:         -31.170
REMARK INTER:                 -29.945
REMARK INTRA:                  -1.225
REMARK CONF_INDEPENDENT:        1.790
REMARK UNBOUND:                -1.225
REMARK  6 active torsions:
REMARK  status: ('A' for Active; 'I' for Inactive)
REMARK    1  A    between atoms: C_4  and  C_5 
REMARK       I    between atoms: C_5  and  N_7 
REMARK    2  A    between atoms: N_7  and  C_8 
REMARK    3  A    between atoms: C_13  and  N_14 
REMARK    4  A    between atoms: N_14  and  C_15 
REMARK    5  A    between atoms: C_15  and  C_16 
REMARK       I    between atoms: C_16  and  N_18 
REMARK    6  A    between atoms: N_18  and  C_19 
ROOT
ATOM      1  C   UNL d   1      24.289 -16.521  -1.233  0.00  0.00     0.036 A 
ATOM      2  C   UNL d   1      25.153 -17.456  -0.660  0.00  0.00     0.029 A 
ATOM      3  C   UNL d   1      24.669 -18.645  -0.128  0.00  0.00     0.004 A 
ATOM      4  C   UNL d   1      23.308 -18.926  -0.187  0.00  0.00     0.023 A 
ATOM      5  C   UNL d   1      22.423 -17.998  -0.754  0.00  0.00     0.046 A 
ATOM      6  C   UNL d   1      21.031 -18.328  -0.839  0.00  0.00     0.099 C 
ATOM      7  N   UNL d   1      19.904 -18.616  -0.901  0.00  0.00    -0.191 NA
ATOM      8  C   UNL d   1      22.911 -16.774  -1.251  0.00  0.00     0.052 A 
ENDROOT
BRANCH   1   9
ATOM      9  N   UNL d   1      24.830 -15.345  -1.797  0.00  0.00    -0.326 N 
ATOM     10  C   UNL d   1      25.357 -15.350  -3.099  0.00  0.00     0.239 C 
ATOM     11  O   UNL d   1      25.366 -16.323  -3.854  0.00  0.00    -0.271 OA
ATOM     12  H   UNL d   1      24.668 -14.467  -1.313  0.00  0.00     0.169 HD
BRANCH  10  13
ATOM     13  C   UNL d   1      25.898 -14.009  -3.559  0.00  0.00     0.223 C 
BRANCH  13  14
ATOM     14  N   UNL d   1      26.467 -14.028  -4.911  0.00  0.00    -0.381 N 
ATOM     15  H   UNL d   1      26.251 -14.863  -5.454  0.00  0.00     0.160 HD
BRANCH  14  16
ATOM     16  C   UNL d   1      27.225 -13.015  -5.484  0.00  0.00     0.034 A 
ATOM     17  C   UNL d   1      26.891 -11.673  -5.202  0.00  0.00     0.031 A 
ATOM     18  C   UNL d   1      27.610 -10.583  -5.736  0.00  0.00     0.019 A 
ATOM     19  C   UNL d   1      28.690 -10.803  -6.586  0.00  0.00     0.032 A 
ATOM     20  C   UNL d   1      29.030 -12.128  -6.883  0.00  0.00     0.026 A 
ATOM     21  C   UNL d   1      28.322 -13.226  -6.345  0.00  0.00    -0.035 A 
ATOM     22  C   UNL d   1      28.818 -14.589  -6.728  0.00  0.00     0.050 C 
BRANCH  19  23
ATOM     23  C   UNL d   1      29.517  -9.713  -7.199  0.00  0.00     0.252 C 
ATOM     24  O   UNL d   1      30.320  -9.110  -6.492  0.00  0.00    -0.268 OA
ATOM     25  N   UNL d   1      29.352  -9.430  -8.546  0.00  0.00    -0.353 N 
ATOM     26  H   UNL d   1      28.665  -9.921  -9.095  0.00  0.00     0.163 HD
BRANCH  25  27
ATOM     27  C   UNL d   1      30.147  -8.407  -9.224  0.00  0.00     0.076 C 
ATOM     28  C   UNL d   1      29.789  -7.008  -8.721  0.00  0.00     0.032 C 
ATOM     29  C   UNL d   1      31.645  -8.638  -9.008  0.00  0.00     0.032 C 
ENDBRANCH  25  27
ENDBRANCH  19  23
ENDBRANCH  14  16
ENDBRANCH  13  14
ENDBRANCH  10  13
ENDBRANCH   1   9
TORSDOF 6
ENDMDL
