MODEL 1
REMARK VINA RESULT:    -9.106      0.000      0.000
REMARK INTER + INTRA:         -10.867
REMARK INTER:                 -10.001
REMARK INTRA:                  -0.866
REMARK CONF_INDEPENDENT:        0.895
REMARK UNBOUND:                -0.866
REMARK  3 active torsions:
REMARK  status: ('A' for Active; 'I' for Inactive)
REMARK    1  A    between atoms: C_2  and  C_3 
REMARK       I    between atoms: C_2  and  N_13 
REMARK    2  A    between atoms: C_3  and  C_4 
REMARK    3  A    between atoms: N_13  and  C_14 
ROOT
ATOM      1  O   UNL d   1      24.590 -18.558   0.965  0.00  0.00    -0.273 OA
ATOM      2  C   UNL d   1      24.582 -17.680   0.096  0.00  0.00     0.227 C 
ATOM      3  N   UNL d   1      25.666 -16.838  -0.027  0.00  0.00    -0.325 N 
ATOM      4  H   UNL d   1      26.475 -17.140   0.512  0.00  0.00     0.169 HD
ENDROOT
BRANCH   3   5
ATOM      5  C   UNL d   1      25.836 -15.755  -0.926  0.00  0.00     0.059 C 
ATOM      6  C   UNL d   1      25.606 -15.992  -2.288  0.00  0.00     0.071 C 
ATOM      7  C   UNL d   1      25.774 -14.957  -3.221  0.00  0.00     0.104 C 
ATOM      8  C   UNL d   1      26.131 -13.673  -2.813  0.00  0.00     0.103 C 
ATOM      9  O   UNL d   1      25.530 -15.245  -4.537  0.00  0.00    -0.348 OA
ATOM     10  C   UNL d   1      26.327 -13.418  -1.462  0.00  0.00     0.065 C 
ATOM     11  O   UNL d   1      26.290 -12.632  -3.689  0.00  0.00    -0.348 OA
ATOM     12  C   UNL d   1      26.280 -14.473  -0.544  0.00  0.00     0.063 C 
ATOM     13 CL   UNL d   1      27.081 -14.180   0.973  0.00  0.00    -0.082 Cl
ATOM     14  C   UNL d   1      27.382 -12.838  -4.600  0.00  0.00     0.178 C 
ATOM     15  C   UNL d   1      27.031 -13.753  -5.769  0.00  0.00     0.053 C 
ATOM     16  C   UNL d   1      26.741 -15.168  -5.294  0.00  0.00     0.178 C 
ENDBRANCH   3   5
BRANCH   2  17
ATOM     17  C   UNL d   1      23.486 -17.605  -0.940  0.00  0.00     0.161 C 
BRANCH  17  18
ATOM     18  C   UNL d   1      22.232 -18.241  -0.521  0.00  0.00     0.035 A 
ATOM     19  C   UNL d   1      21.119 -18.574  -1.270  0.00  0.00     0.123 A 
ATOM     20  N   UNL d   1      20.262 -19.263  -0.440  0.00  0.00    -0.317 N 
ATOM     21  C   UNL d   1      19.040 -19.826  -0.752  0.00  0.00     0.098 A 
ATOM     22  C   UNL d   1      20.798 -19.324   0.791  0.00  0.00     0.111 A 
ATOM     23  C   UNL d   1      18.383 -20.452   0.242  0.00  0.00     0.018 A 
ATOM     24  C   UNL d   1      18.907 -20.545   1.604  0.00  0.00     0.005 A 
ATOM     25  C   UNL d   1      20.097 -19.997   1.906  0.00  0.00     0.049 A 
ATOM     26  N   UNL d   1      21.979 -18.716   0.754  0.00  0.00    -0.344 N 
ATOM     27  H   UNL d   1      22.576 -18.580   1.564  0.00  0.00     0.167 HD
ENDBRANCH  17  18
ENDBRANCH   2  17
TORSDOF 3
ENDMDL
MODEL 2
REMARK VINA RESULT:    -7.245      3.597      7.412
REMARK INTER + INTRA:          -8.991
REMARK INTER:                  -8.140
REMARK INTRA:                  -0.851
REMARK CONF_INDEPENDENT:        0.895
REMARK UNBOUND:                -0.851
REMARK  3 active torsions:
REMARK  status: ('A' for Active; 'I' for Inactive)
REMARK    1  A    between atoms: C_2  and  C_3 
REMARK       I    between atoms: C_2  and  N_13 
REMARK    2  A    between atoms: C_3  and  C_4 
REMARK    3  A    between atoms: N_13  and  C_14 
ROOT
ATOM      1  O   UNL d   1      30.076 -16.518  -1.895  0.00  0.00    -0.273 OA
ATOM      2  C   UNL d   1      28.961 -16.495  -1.362  0.00  0.00     0.227 C 
ATOM      3  N   UNL d   1      27.833 -16.597  -2.147  0.00  0.00    -0.325 N 
ATOM      4  H   UNL d   1      28.032 -16.867  -3.108  0.00  0.00     0.169 HD
ENDROOT
BRANCH   3   5
ATOM      5  C   UNL d   1      26.476 -16.556  -1.739  0.00  0.00     0.059 C 
ATOM      6  C   UNL d   1      26.032 -17.533  -0.839  0.00  0.00     0.071 C 
ATOM      7  C   UNL d   1      24.695 -17.545  -0.414  0.00  0.00     0.104 C 
ATOM      8  C   UNL d   1      23.796 -16.569  -0.844  0.00  0.00     0.103 C 
ATOM      9  O   UNL d   1      24.320 -18.519   0.471  0.00  0.00    -0.348 OA
ATOM     10  C   UNL d   1      24.234 -15.575  -1.709  0.00  0.00     0.065 C 
ATOM     11  O   UNL d   1      22.487 -16.537  -0.442  0.00  0.00    -0.348 OA
ATOM     12  C   UNL d   1      25.531 -15.631  -2.229  0.00  0.00     0.063 C 
ATOM     13 CL   UNL d   1      25.790 -14.723  -3.691  0.00  0.00    -0.082 Cl
ATOM     14  C   UNL d   1      21.740 -17.677  -0.895  0.00  0.00     0.178 C 
ATOM     15  C   UNL d   1      21.959 -18.922  -0.041  0.00  0.00     0.053 C 
ATOM     16  C   UNL d   1      23.392 -19.417  -0.145  0.00  0.00     0.178 C 
ENDBRANCH   3   5
BRANCH   2  17
ATOM     17  C   UNL d   1      28.802 -16.519   0.139  0.00  0.00     0.161 C 
BRANCH  17  18
ATOM     18  C   UNL d   1      28.410 -15.226   0.713  0.00  0.00     0.035 A 
ATOM     19  C   UNL d   1      27.649 -14.212   0.164  0.00  0.00     0.123 A 
ATOM     20  N   UNL d   1      27.463 -13.265   1.147  0.00  0.00    -0.317 N 
ATOM     21  C   UNL d   1      26.738 -12.091   1.076  0.00  0.00     0.098 A 
ATOM     22  C   UNL d   1      28.117 -13.651   2.257  0.00  0.00     0.111 A 
ATOM     23  C   UNL d   1      26.708 -11.324   2.182  0.00  0.00     0.018 A 
ATOM     24  C   UNL d   1      27.405 -11.682   3.416  0.00  0.00     0.005 A 
ATOM     25  C   UNL d   1      28.109 -12.825   3.484  0.00  0.00     0.049 A 
ATOM     26  N   UNL d   1      28.686 -14.825   2.009  0.00  0.00    -0.344 N 
ATOM     27  H   UNL d   1      29.281 -15.321   2.666  0.00  0.00     0.167 HD
ENDBRANCH  17  18
ENDBRANCH   2  17
TORSDOF 3
ENDMDL
MODEL 3
REMARK VINA RESULT:    -7.240      2.788      4.102
REMARK INTER + INTRA:          -9.048
REMARK INTER:                  -8.135
REMARK INTRA:                  -0.913
REMARK CONF_INDEPENDENT:        0.895
REMARK UNBOUND:                -0.913
REMARK  3 active torsions:
REMARK  status: ('A' for Active; 'I' for Inactive)
REMARK    1  A    between atoms: C_2  and  C_3 
REMARK       I    between atoms: C_2  and  N_13 
REMARK    2  A    between atoms: C_3  and  C_4 
REMARK    3  A    between atoms: N_13  and  C_14 
ROOT
ATOM      1  O   UNL d   1      27.861 -14.495   1.577  0.00  0.00    -0.273 OA
ATOM      2  C   UNL d   1      27.797 -14.972   0.439  0.00  0.00     0.227 C 
ATOM      3  N   UNL d   1      27.956 -14.145  -0.652  0.00  0.00    -0.325 N 
ATOM      4  H   UNL d   1      28.298 -13.217  -0.409  0.00  0.00     0.169 HD
ENDROOT
BRANCH   3   5
ATOM      5  C   UNL d   1      27.883 -14.484  -2.026  0.00  0.00     0.059 C 
ATOM      6  C   UNL d   1      28.899 -15.290  -2.557  0.00  0.00     0.071 C 
ATOM      7  C   UNL d   1      28.880 -15.643  -3.915  0.00  0.00     0.104 C 
ATOM      8  C   UNL d   1      27.840 -15.237  -4.749  0.00  0.00     0.103 C 
ATOM      9  O   UNL d   1      29.895 -16.437  -4.377  0.00  0.00    -0.348 OA
ATOM     10  C   UNL d   1      26.809 -14.467  -4.225  0.00  0.00     0.065 C 
ATOM     11  O   UNL d   1      27.776 -15.572  -6.076  0.00  0.00    -0.348 OA
ATOM     12  C   UNL d   1      26.887 -14.013  -2.905  0.00  0.00     0.063 C 
ATOM     13 CL   UNL d   1      25.894 -12.633  -2.530  0.00  0.00    -0.082 Cl
ATOM     14  C   UNL d   1      28.849 -15.002  -6.843  0.00  0.00     0.178 C 
ATOM     15  C   UNL d   1      30.158 -15.777  -6.721  0.00  0.00     0.053 C 
ATOM     16  C   UNL d   1      30.708 -15.712  -5.305  0.00  0.00     0.178 C 
ENDBRANCH   3   5
BRANCH   2  17
ATOM     17  C   UNL d   1      27.708 -16.462   0.210  0.00  0.00     0.161 C 
BRANCH  17  18
ATOM     18  C   UNL d   1      26.356 -16.930  -0.117  0.00  0.00     0.035 A 
ATOM     19  C   UNL d   1      25.856 -18.217  -0.164  0.00  0.00     0.123 A 
ATOM     20  N   UNL d   1      24.502 -18.120  -0.398  0.00  0.00    -0.317 N 
ATOM     21  C   UNL d   1      23.575 -19.140  -0.490  0.00  0.00     0.098 A 
ATOM     22  C   UNL d   1      24.173 -16.823  -0.533  0.00  0.00     0.111 A 
ATOM     23  C   UNL d   1      22.298 -18.786  -0.728  0.00  0.00     0.018 A 
ATOM     24  C   UNL d   1      21.877 -17.396  -0.895  0.00  0.00     0.005 A 
ATOM     25  C   UNL d   1      22.781 -16.404  -0.803  0.00  0.00     0.049 A 
ATOM     26  N   UNL d   1      25.275 -16.101  -0.365  0.00  0.00    -0.344 N 
ATOM     27  H   UNL d   1      25.316 -15.090  -0.461  0.00  0.00     0.167 HD
ENDBRANCH  17  18
ENDBRANCH   2  17
TORSDOF 3
ENDMDL
MODEL 4
REMARK VINA RESULT:    -7.061      1.907      2.032
REMARK INTER + INTRA:          -8.797
REMARK INTER:                  -7.956
REMARK INTRA:                  -0.840
REMARK CONF_INDEPENDENT:        0.895
REMARK UNBOUND:                -0.840
REMARK  3 active torsions:
REMARK  status: ('A' for Active; 'I' for Inactive)
REMARK    1  A    between atoms: C_2  and  C_3 
REMARK       I    between atoms: C_2  and  N_13 
REMARK    2  A    between atoms: C_3  and  C_4 
REMARK    3  A    between atoms: N_13  and  C_14 
ROOT
ATOM      1  O   UNL d   1      25.450 -18.267   1.422  0.00  0.00    -0.273 OA
ATOM      2  C   UNL d   1      25.786 -17.770   0.341  0.00  0.00     0.227 C 
ATOM      3  N   UNL d   1      26.961 -17.055   0.260  0.00  0.00    -0.325 N 
ATOM      4  H   UNL d   1      27.552 -17.154   1.084  0.00  0.00     0.169 HD
ENDROOT
BRANCH   3   5
ATOM      5  C   UNL d   1      27.502 -16.383  -0.865  0.00  0.00     0.059 C 
ATOM      6  C   UNL d   1      26.610 -15.750  -1.740  0.00  0.00     0.071 C 
ATOM      7  C   UNL d   1      27.093 -15.082  -2.876  0.00  0.00     0.104 C 
ATOM      8  C   UNL d   1      28.460 -15.001  -3.134  0.00  0.00     0.103 C 
ATOM      9  O   UNL d   1      26.176 -14.477  -3.692  0.00  0.00    -0.348 OA
ATOM     10  C   UNL d   1      29.355 -15.594  -2.254  0.00  0.00     0.065 C 
ATOM     11  O   UNL d   1      28.973 -14.346  -4.223  0.00  0.00    -0.348 OA
ATOM     12  C   UNL d   1      28.873 -16.363  -1.189  0.00  0.00     0.063 C 
ATOM     13 CL   UNL d   1      30.005 -17.501  -0.517  0.00  0.00    -0.082 Cl
ATOM     14  C   UNL d   1      28.595 -14.959  -5.466  0.00  0.00     0.178 C 
ATOM     15  C   UNL d   1      27.187 -14.587  -5.920  0.00  0.00     0.053 C 
ATOM     16  C   UNL d   1      26.137 -15.131  -4.964  0.00  0.00     0.178 C 
ENDBRANCH   3   5
BRANCH   2  17
ATOM     17  C   UNL d   1      25.025 -18.059  -0.931  0.00  0.00     0.161 C 
BRANCH  17  18
ATOM     18  C   UNL d   1      23.608 -18.375  -0.714  0.00  0.00     0.035 A 
ATOM     19  C   UNL d   1      22.602 -18.590  -1.636  0.00  0.00     0.123 A 
ATOM     20  N   UNL d   1      21.482 -18.974  -0.933  0.00  0.00    -0.317 N 
ATOM     21  C   UNL d   1      20.242 -19.329  -1.429  0.00  0.00     0.098 A 
ATOM     22  C   UNL d   1      21.763 -18.962   0.382  0.00  0.00     0.111 A 
ATOM     23  C   UNL d   1      19.299 -19.668  -0.531  0.00  0.00     0.018 A 
ATOM     24  C   UNL d   1      19.538 -19.666   0.911  0.00  0.00     0.005 A 
ATOM     25  C   UNL d   1      20.745 -19.321   1.392  0.00  0.00     0.049 A 
ATOM     26  N   UNL d   1      23.035 -18.605   0.525  0.00  0.00    -0.344 N 
ATOM     27  H   UNL d   1      23.493 -18.473   1.422  0.00  0.00     0.167 HD
ENDBRANCH  17  18
ENDBRANCH   2  17
TORSDOF 3
ENDMDL
MODEL 5
REMARK VINA RESULT:    -6.962      4.812      7.219
REMARK INTER + INTRA:          -8.774
REMARK INTER:                  -7.857
REMARK INTRA:                  -0.917
REMARK CONF_INDEPENDENT:        0.895
REMARK UNBOUND:                -0.917
REMARK  3 active torsions:
REMARK  status: ('A' for Active; 'I' for Inactive)
REMARK    1  A    between atoms: C_2  and  C_3 
REMARK       I    between atoms: C_2  and  N_13 
REMARK    2  A    between atoms: C_3  and  C_4 
REMARK    3  A    between atoms: N_13  and  C_14 
ROOT
ATOM      1  O   UNL d   1      27.499 -14.343  -0.955  0.00  0.00    -0.273 OA
ATOM      2  C   UNL d   1      27.846 -14.730   0.166  0.00  0.00     0.227 C 
ATOM      3  N   UNL d   1      28.293 -13.812   1.091  0.00  0.00    -0.325 N 
ATOM      4  H   UNL d   1      28.125 -12.847   0.816  0.00  0.00     0.169 HD
ENDROOT
BRANCH   3   5
ATOM      5  C   UNL d   1      28.766 -14.053   2.406  0.00  0.00     0.059 C 
ATOM      6  C   UNL d   1      27.886 -13.823   3.471  0.00  0.00     0.071 C 
ATOM      7  C   UNL d   1      28.309 -14.033   4.792  0.00  0.00     0.104 C 
ATOM      8  C   UNL d   1      29.590 -14.508   5.070  0.00  0.00     0.103 C 
ATOM      9  O   UNL d   1      27.404 -13.798   5.792  0.00  0.00    -0.348 OA
ATOM     10  C   UNL d   1      30.459 -14.773   4.020  0.00  0.00     0.065 C 
ATOM     11  O   UNL d   1      30.036 -14.740   6.344  0.00  0.00    -0.348 OA
ATOM     12  C   UNL d   1      30.084 -14.450   2.712  0.00  0.00     0.063 C 
ATOM     13 CL   UNL d   1      31.395 -14.274   1.580  0.00  0.00    -0.082 Cl
ATOM     14  C   UNL d   1      30.120 -13.539   7.129  0.00  0.00     0.178 C 
ATOM     15  C   UNL d   1      28.776 -13.091   7.694  0.00  0.00     0.053 C 
ATOM     16  C   UNL d   1      27.820 -12.682   6.585  0.00  0.00     0.178 C 
ENDBRANCH   3   5
BRANCH   2  17
ATOM     17  C   UNL d   1      27.643 -16.160   0.606  0.00  0.00     0.161 C 
BRANCH  17  18
ATOM     18  C   UNL d   1      26.344 -16.721   0.216  0.00  0.00     0.035 A 
ATOM     19  C   UNL d   1      25.894 -18.026   0.273  0.00  0.00     0.123 A 
ATOM     20  N   UNL d   1      24.565 -18.014  -0.089  0.00  0.00    -0.317 N 
ATOM     21  C   UNL d   1      23.685 -19.077  -0.146  0.00  0.00     0.098 A 
ATOM     22  C   UNL d   1      24.206 -16.756  -0.400  0.00  0.00     0.111 A 
ATOM     23  C   UNL d   1      22.425 -18.808  -0.535  0.00  0.00     0.018 A 
ATOM     24  C   UNL d   1      21.975 -17.465  -0.895  0.00  0.00     0.005 A 
ATOM     25  C   UNL d   1      22.832 -16.430  -0.838  0.00  0.00     0.049 A 
ATOM     26  N   UNL d   1      25.264 -15.972  -0.219  0.00  0.00    -0.344 N 
ATOM     27  H   UNL d   1      25.279 -14.977  -0.425  0.00  0.00     0.167 HD
ENDBRANCH  17  18
ENDBRANCH   2  17
TORSDOF 3
ENDMDL
MODEL 6
REMARK VINA RESULT:    -6.704      3.520      8.181
REMARK INTER + INTRA:          -8.428
REMARK INTER:                  -7.599
REMARK INTRA:                  -0.829
REMARK CONF_INDEPENDENT:        0.895
REMARK UNBOUND:                -0.829
REMARK  3 active torsions:
REMARK  status: ('A' for Active; 'I' for Inactive)
REMARK    1  A    between atoms: C_2  and  C_3 
REMARK       I    between atoms: C_2  and  N_13 
REMARK    2  A    between atoms: C_3  and  C_4 
REMARK    3  A    between atoms: N_13  and  C_14 
ROOT
ATOM      1  O   UNL d   1      26.020 -11.557  -4.456  0.00  0.00    -0.273 OA
ATOM      2  C   UNL d   1      26.054 -12.726  -4.057  0.00  0.00     0.227 C 
ATOM      3  N   UNL d   1      25.962 -12.983  -2.706  0.00  0.00    -0.325 N 
ATOM      4  H   UNL d   1      25.689 -12.170  -2.157  0.00  0.00     0.169 HD
ENDROOT
BRANCH   3   5
ATOM      5  C   UNL d   1      26.016 -14.237  -2.047  0.00  0.00     0.059 C 
ATOM      6  C   UNL d   1      25.024 -15.178  -2.348  0.00  0.00     0.071 C 
ATOM      7  C   UNL d   1      25.024 -16.430  -1.713  0.00  0.00     0.104 C 
ATOM      8  C   UNL d   1      26.026 -16.776  -0.808  0.00  0.00     0.103 C 
ATOM      9  O   UNL d   1      24.034 -17.312  -2.051  0.00  0.00    -0.348 OA
ATOM     10  C   UNL d   1      27.035 -15.863  -0.529  0.00  0.00     0.065 C 
ATOM     11  O   UNL d   1      26.072 -17.992  -0.179  0.00  0.00    -0.348 OA
ATOM     12  C   UNL d   1      26.970 -14.574  -1.066  0.00  0.00     0.063 C 
ATOM     13 CL   UNL d   1      27.912 -13.370  -0.233  0.00  0.00    -0.082 Cl
ATOM     14  C   UNL d   1      24.957 -18.201   0.703  0.00  0.00     0.178 C 
ATOM     15  C   UNL d   1      23.686 -18.636  -0.020  0.00  0.00     0.053 C 
ATOM     16  C   UNL d   1      23.168 -17.536  -0.935  0.00  0.00     0.178 C 
ENDBRANCH   3   5
BRANCH   2  17
ATOM     17  C   UNL d   1      26.033 -13.890  -5.017  0.00  0.00     0.161 C 
BRANCH  17  18
ATOM     18  C   UNL d   1      27.310 -14.607  -5.107  0.00  0.00     0.035 A 
ATOM     19  C   UNL d   1      27.891 -15.489  -4.216  0.00  0.00     0.123 A 
ATOM     20  N   UNL d   1      29.028 -15.983  -4.815  0.00  0.00    -0.317 N 
ATOM     21  C   UNL d   1      29.915 -16.920  -4.322  0.00  0.00     0.098 A 
ATOM     22  C   UNL d   1      29.177 -15.403  -6.019  0.00  0.00     0.111 A 
ATOM     23  C   UNL d   1      30.962 -17.242  -5.105  0.00  0.00     0.018 A 
ATOM     24  C   UNL d   1      31.186 -16.640  -6.418  0.00  0.00     0.005 A 
ATOM     25  C   UNL d   1      30.321 -15.729  -6.897  0.00  0.00     0.049 A 
ATOM     26  N   UNL d   1      28.153 -14.578  -6.205  0.00  0.00    -0.344 N 
ATOM     27  H   UNL d   1      28.043 -13.978  -7.018  0.00  0.00     0.167 HD
ENDBRANCH  17  18
ENDBRANCH   2  17
TORSDOF 3
ENDMDL
MODEL 7
REMARK VINA RESULT:    -6.652      5.101      7.436
REMARK INTER + INTRA:          -8.661
REMARK INTER:                  -7.547
REMARK INTRA:                  -1.113
REMARK CONF_INDEPENDENT:        0.895
REMARK UNBOUND:                -1.113
REMARK  3 active torsions:
REMARK  status: ('A' for Active; 'I' for Inactive)
REMARK    1  A    between atoms: C_2  and  C_3 
REMARK       I    between atoms: C_2  and  N_13 
REMARK    2  A    between atoms: C_3  and  C_4 
REMARK    3  A    between atoms: N_13  and  C_14 
ROOT
ATOM      1  O   UNL d   1      30.469 -15.526   1.322  0.00  0.00    -0.273 OA
ATOM      2  C   UNL d   1      29.517 -15.191   0.608  0.00  0.00     0.227 C 
ATOM      3  N   UNL d   1      29.148 -15.993  -0.450  0.00  0.00    -0.325 N 
ATOM      4  H   UNL d   1      29.597 -16.907  -0.440  0.00  0.00     0.169 HD
ENDROOT
BRANCH   3   5
ATOM      5  C   UNL d   1      28.118 -15.772  -1.399  0.00  0.00     0.059 C 
ATOM      6  C   UNL d   1      28.369 -14.864  -2.437  0.00  0.00     0.071 C 
ATOM      7  C   UNL d   1      27.378 -14.599  -3.395  0.00  0.00     0.104 C 
ATOM      8  C   UNL d   1      26.149 -15.257  -3.358  0.00  0.00     0.103 C 
ATOM      9  O   UNL d   1      27.681 -13.709  -4.389  0.00  0.00    -0.348 OA
ATOM     10  C   UNL d   1      25.904 -16.185  -2.355  0.00  0.00     0.065 C 
ATOM     11  O   UNL d   1      25.162 -15.038  -4.282  0.00  0.00    -0.348 OA
ATOM     12  C   UNL d   1      26.840 -16.361  -1.330  0.00  0.00     0.063 C 
ATOM     13 CL   UNL d   1      26.221 -17.073   0.132  0.00  0.00    -0.082 Cl
ATOM     14  C   UNL d   1      24.646 -13.698  -4.235  0.00  0.00     0.178 C 
ATOM     15  C   UNL d   1      25.530 -12.684  -4.956  0.00  0.00     0.053 C 
ATOM     16  C   UNL d   1      26.875 -12.534  -4.263  0.00  0.00     0.178 C 
ENDBRANCH   3   5
BRANCH   2  17
ATOM     17  C   UNL d   1      28.645 -14.009   0.959  0.00  0.00     0.161 C 
BRANCH  17  18
ATOM     18  C   UNL d   1      28.651 -13.673   2.388  0.00  0.00     0.035 A 
ATOM     19  C   UNL d   1      28.128 -12.571   3.036  0.00  0.00     0.123 A 
ATOM     20  N   UNL d   1      28.282 -12.783   4.388  0.00  0.00    -0.317 N 
ATOM     21  C   UNL d   1      27.879 -11.973   5.432  0.00  0.00     0.098 A 
ATOM     22  C   UNL d   1      28.914 -13.955   4.579  0.00  0.00     0.111 A 
ATOM     23  C   UNL d   1      28.148 -12.403   6.679  0.00  0.00     0.018 A 
ATOM     24  C   UNL d   1      28.840 -13.661   6.953  0.00  0.00     0.005 A 
ATOM     25  C   UNL d   1      29.230 -14.449   5.936  0.00  0.00     0.049 A 
ATOM     26  N   UNL d   1      29.139 -14.497   3.387  0.00  0.00    -0.344 N 
ATOM     27  H   UNL d   1      29.644 -15.367   3.242  0.00  0.00     0.167 HD
ENDBRANCH  17  18
ENDBRANCH   2  17
TORSDOF 3
ENDMDL
MODEL 8
REMARK VINA RESULT:    -6.606      3.990      6.469
REMARK INTER + INTRA:          -8.511
REMARK INTER:                  -7.501
REMARK INTRA:                  -1.010
REMARK CONF_INDEPENDENT:        0.895
REMARK UNBOUND:                -1.010
REMARK  3 active torsions:
REMARK  status: ('A' for Active; 'I' for Inactive)
REMARK    1  A    between atoms: C_2  and  C_3 
REMARK       I    between atoms: C_2  and  N_13 
REMARK    2  A    between atoms: C_3  and  C_4 
REMARK    3  A    between atoms: N_13  and  C_14 
ROOT
ATOM      1  O   UNL d   1      24.939 -14.796  -4.879  0.00  0.00    -0.273 OA
ATOM      2  C   UNL d   1      25.587 -13.823  -4.478  0.00  0.00     0.227 C 
ATOM      3  N   UNL d   1      25.267 -12.562  -4.933  0.00  0.00    -0.325 N 
ATOM      4  H   UNL d   1      24.385 -12.527  -5.438  0.00  0.00     0.169 HD
ENDROOT
BRANCH   3   5
ATOM      5  C   UNL d   1      25.904 -11.333  -4.626  0.00  0.00     0.059 C 
ATOM      6  C   UNL d   1      25.830 -10.868  -3.307  0.00  0.00     0.071 C 
ATOM      7  C   UNL d   1      26.431  -9.650  -2.955  0.00  0.00     0.104 C 
ATOM      8  C   UNL d   1      27.143  -8.903  -3.892  0.00  0.00     0.103 C 
ATOM      9  O   UNL d   1      26.331  -9.249  -1.650  0.00  0.00    -0.348 OA
ATOM     10  C   UNL d   1      27.253  -9.373  -5.194  0.00  0.00     0.065 C 
ATOM     11  O   UNL d   1      27.757  -7.718  -3.585  0.00  0.00    -0.348 OA
ATOM     12  C   UNL d   1      26.554 -10.521  -5.578  0.00  0.00     0.063 C 
ATOM     13 CL   UNL d   1      26.287 -10.697  -7.289  0.00  0.00    -0.082 Cl
ATOM     14  C   UNL d   1      26.824  -6.690  -3.213  0.00  0.00     0.178 C 
ATOM     15  C   UNL d   1      26.345  -6.802  -1.769  0.00  0.00     0.053 C 
ATOM     16  C   UNL d   1      25.529  -8.068  -1.555  0.00  0.00     0.178 C 
ENDBRANCH   3   5
BRANCH   2  17
ATOM     17  C   UNL d   1      26.616 -13.957  -3.382  0.00  0.00     0.161 C 
BRANCH  17  18
ATOM     18  C   UNL d   1      26.359 -15.072  -2.462  0.00  0.00     0.035 A 
ATOM     19  C   UNL d   1      27.185 -15.637  -1.509  0.00  0.00     0.123 A 
ATOM     20  N   UNL d   1      26.437 -16.570  -0.825  0.00  0.00    -0.317 N 
ATOM     21  C   UNL d   1      26.824 -17.362   0.239  0.00  0.00     0.098 A 
ATOM     22  C   UNL d   1      25.202 -16.617  -1.355  0.00  0.00     0.111 A 
ATOM     23  C   UNL d   1      25.903 -18.206   0.740  0.00  0.00     0.018 A 
ATOM     24  C   UNL d   1      24.548 -18.312   0.203  0.00  0.00     0.005 A 
ATOM     25  C   UNL d   1      24.172 -17.539  -0.831  0.00  0.00     0.049 A 
ATOM     26  N   UNL d   1      25.144 -15.722  -2.335  0.00  0.00    -0.344 N 
ATOM     27  H   UNL d   1      24.335 -15.583  -2.934  0.00  0.00     0.167 HD
ENDBRANCH  17  18
ENDBRANCH   2  17
TORSDOF 3
ENDMDL
MODEL 9
REMARK VINA RESULT:    -6.584      4.610      8.993
REMARK INTER + INTRA:          -8.638
REMARK INTER:                  -7.479
REMARK INTRA:                  -1.159
REMARK CONF_INDEPENDENT:        0.895
REMARK UNBOUND:                -1.159
REMARK  3 active torsions:
REMARK  status: ('A' for Active; 'I' for Inactive)
REMARK    1  A    between atoms: C_2  and  C_3 
REMARK       I    between atoms: C_2  and  N_13 
REMARK    2  A    between atoms: C_3  and  C_4 
REMARK    3  A    between atoms: N_13  and  C_14 
ROOT
ATOM      1  O   UNL d   1      31.025 -15.064  -3.599  0.00  0.00    -0.273 OA
ATOM      2  C   UNL d   1      29.955 -15.588  -3.268  0.00  0.00     0.227 C 
ATOM      3  N   UNL d   1      28.874 -14.789  -2.965  0.00  0.00    -0.325 N 
ATOM      4  H   UNL d   1      29.009 -13.812  -3.220  0.00  0.00     0.169 HD
ENDROOT
BRANCH   3   5
ATOM      5  C   UNL d   1      27.584 -15.187  -2.534  0.00  0.00     0.059 C 
ATOM      6  C   UNL d   1      27.476 -15.824  -1.291  0.00  0.00     0.071 C 
ATOM      7  C   UNL d   1      26.224 -16.250  -0.824  0.00  0.00     0.104 C 
ATOM      8  C   UNL d   1      25.064 -16.016  -1.562  0.00  0.00     0.103 C 
ATOM      9  O   UNL d   1      26.178 -16.861   0.400  0.00  0.00    -0.348 OA
ATOM     10  C   UNL d   1      25.155 -15.354  -2.779  0.00  0.00     0.065 C 
ATOM     11  O   UNL d   1      23.821 -16.402  -1.135  0.00  0.00    -0.348 OA
ATOM     12  C   UNL d   1      26.412 -15.037  -3.303  0.00  0.00     0.063 C 
ATOM     13 CL   UNL d   1      26.456 -14.755  -5.020  0.00  0.00    -0.082 Cl
ATOM     14  C   UNL d   1      23.686 -17.830  -1.043  0.00  0.00     0.178 C 
ATOM     15  C   UNL d   1      24.292 -18.414   0.230  0.00  0.00     0.053 C 
ATOM     16  C   UNL d   1      25.802 -18.233   0.255  0.00  0.00     0.178 C 
ENDBRANCH   3   5
BRANCH   2  17
ATOM     17  C   UNL d   1      29.752 -17.082  -3.341  0.00  0.00     0.161 C 
BRANCH  17  18
ATOM     18  C   UNL d   1      30.257 -17.688  -4.579  0.00  0.00     0.035 A 
ATOM     19  C   UNL d   1      30.170 -18.995  -5.020  0.00  0.00     0.123 A 
ATOM     20  N   UNL d   1      30.688 -19.028  -6.296  0.00  0.00    -0.317 N 
ATOM     21  C   UNL d   1      30.780 -20.108  -7.152  0.00  0.00     0.098 A 
ATOM     22  C   UNL d   1      31.121 -17.799  -6.626  0.00  0.00     0.111 A 
ATOM     23  C   UNL d   1      31.334 -19.886  -8.359  0.00  0.00     0.018 A 
ATOM     24  C   UNL d   1      31.833 -18.577  -8.775  0.00  0.00     0.005 A 
ATOM     25  C   UNL d   1      31.741 -17.526  -7.940  0.00  0.00     0.049 A 
ATOM     26  N   UNL d   1      30.867 -16.988  -5.605  0.00  0.00    -0.344 N 
ATOM     27  H   UNL d   1      31.134 -16.008  -5.574  0.00  0.00     0.167 HD
ENDBRANCH  17  18
ENDBRANCH   2  17
TORSDOF 3
ENDMDL
