MODEL 1
REMARK VINA RESULT:    -8.587      0.000      0.000
REMARK INTER + INTRA:         -15.749
REMARK INTER:                 -12.166
REMARK INTRA:                  -3.583
REMARK CONF_INDEPENDENT:        3.580
REMARK UNBOUND:                -3.583
REMARK  12 active torsions:
REMARK  status: ('A' for Active; 'I' for Inactive)
REMARK    1  A    between atoms: C_2  and  N_3 
REMARK    2  A    between atoms: N_3  and  C_4 
REMARK    3  A    between atoms: N_3  and  C_22 
REMARK    4  A    between atoms: C_4  and  C_5 
REMARK    5  A    between atoms: C_9  and  C_10 
REMARK    6  A    between atoms: C_10  and  O_12 
REMARK    7  A    between atoms: O_12  and  C_13 
REMARK    8  A    between atoms: C_22  and  C_23 
REMARK    9  A    between atoms: C_23  and  O_24 
REMARK   10  A    between atoms: C_23  and  C_25 
REMARK   11  A    between atoms: C_25  and  O_26 
REMARK   12  A    between atoms: O_26  and  C_27 
ROOT
ATOM      1  C   UNL d   1      28.013 -14.100   2.996  0.00  0.00     0.134 C 
ATOM      2  N   UNL d   1      27.885 -12.830   3.199  0.00  0.00    -0.225 NA
ATOM      3  C   UNL d   1      28.150 -12.457   4.472  0.00  0.00     0.116 C 
ATOM      4  S   UNL d   1      28.544 -10.854   4.824  0.00  0.00    -0.063 SA
ATOM      5  C   UNL d   1      28.679 -11.187   6.506  0.00  0.00     0.089 C 
ATOM      6  C   UNL d   1      28.524 -12.547   6.775  0.00  0.00    -0.020 C 
ATOM      7  C   UNL d   1      28.530 -13.213   8.113  0.00  0.00     0.051 C 
ATOM      8  C   UNL d   1      28.322 -13.283   5.556  0.00  0.00     0.075 C 
ATOM      9  C   UNL d   1      28.240 -14.713   5.320  0.00  0.00     0.260 C 
ATOM     10  O   UNL d   1      28.237 -15.575   6.181  0.00  0.00    -0.267 OA
ATOM     11  N   UNL d   1      28.199 -15.043   3.983  0.00  0.00    -0.309 N 
ATOM     12  H   UNL d   1      28.098 -16.036   3.809  0.00  0.00     0.170 HD
ENDROOT
BRANCH   1  13
ATOM     13  C   UNL d   1      28.082 -14.599   1.585  0.00  0.00     0.313 C 
BRANCH  13  14
ATOM     14  N   UNL d   1      29.464 -15.121   1.106  0.00  0.00    -0.062 N 
ATOM     15  H   UNL d   1      29.559 -16.103   1.399  0.00  0.00     0.280 HD
BRANCH  14  16
ATOM     16  C   UNL d   1      30.665 -14.352   1.657  0.00  0.00     0.231 C 
ATOM     17  C   UNL d   1      31.531 -15.200   2.552  0.00  0.00     0.034 C 
ENDBRANCH  14  16
BRANCH  14  18
ATOM     18  C   UNL d   1      29.533 -15.089  -0.427  0.00  0.00     0.269 C 
BRANCH  18  19
ATOM     19  C   UNL d   1      29.647 -16.504  -1.035  0.00  0.00     0.168 C 
BRANCH  19  20
ATOM     20  O   UNL d   1      30.286 -17.416  -0.145  0.00  0.00    -0.392 OA
ATOM     21  H   UNL d   1      29.614 -17.898   0.369  0.00  0.00     0.210 HD
ENDBRANCH  19  20
BRANCH  19  22
ATOM     22  C   UNL d   1      28.266 -17.047  -1.333  0.00  0.00     0.209 C 
BRANCH  22  23
ATOM     23  O   UNL d   1      27.540 -17.177  -0.109  0.00  0.00    -0.348 OA
BRANCH  23  24
ATOM     24  C   UNL d   1      26.178 -17.220  -0.268  0.00  0.00     0.074 C 
ATOM     25  C   UNL d   1      25.539 -18.383   0.172  0.00  0.00     0.037 C 
ATOM     26  C   UNL d   1      24.144 -18.448   0.183  0.00  0.00     0.003 C 
ATOM     27  C   UNL d   1      23.405 -17.487  -0.497  0.00  0.00     0.001 C 
ATOM     28  C   UNL d   1      24.053 -16.400  -1.071  0.00  0.00     0.009 C 
ATOM     29  C   UNL d   1      25.427 -16.208  -0.884  0.00  0.00    -0.029 C 
ATOM     30  C   UNL d   1      26.001 -14.902  -1.332  0.00  0.00     0.051 C 
ENDBRANCH  23  24
ENDBRANCH  22  23
ENDBRANCH  19  22
ENDBRANCH  18  19
ENDBRANCH  14  18
ENDBRANCH  13  14
ENDBRANCH   1  13
BRANCH   5  31
ATOM     31  C   UNL d   1      28.905 -10.025   7.353  0.00  0.00     0.301 C 
ATOM     32  O   UNL d   1      28.945  -8.871   6.966  0.00  0.00    -0.259 OA
BRANCH  31  33
ATOM     33  O   UNL d   1      29.045 -10.404   8.656  0.00  0.00    -0.312 OA
BRANCH  33  34
ATOM     34  C   UNL d   1      30.354 -10.265   9.231  0.00  0.00     0.124 C 
ATOM     35  C   UNL d   1      30.413 -10.957  10.588  0.00  0.00     0.040 C 
ATOM     36  C   UNL d   1      31.361 -10.929   8.291  0.00  0.00     0.040 C 
ENDBRANCH  33  34
ENDBRANCH  31  33
ENDBRANCH   5  31
TORSDOF 12
ENDMDL
MODEL 2
REMARK VINA RESULT:    -8.378      6.048      8.928
REMARK INTER + INTRA:         -16.701
REMARK INTER:                 -11.957
REMARK INTRA:                  -4.744
REMARK CONF_INDEPENDENT:        3.580
REMARK UNBOUND:                -4.744
REMARK  12 active torsions:
REMARK  status: ('A' for Active; 'I' for Inactive)
REMARK    1  A    between atoms: C_2  and  N_3 
REMARK    2  A    between atoms: N_3  and  C_4 
REMARK    3  A    between atoms: N_3  and  C_22 
REMARK    4  A    between atoms: C_4  and  C_5 
REMARK    5  A    between atoms: C_9  and  C_10 
REMARK    6  A    between atoms: C_10  and  O_12 
REMARK    7  A    between atoms: O_12  and  C_13 
REMARK    8  A    between atoms: C_22  and  C_23 
REMARK    9  A    between atoms: C_23  and  O_24 
REMARK   10  A    between atoms: C_23  and  C_25 
REMARK   11  A    between atoms: C_25  and  O_26 
REMARK   12  A    between atoms: O_26  and  C_27 
ROOT
ATOM      1  C   UNL d   1      29.977 -16.487  -0.442  0.00  0.00     0.134 C 
ATOM      2  N   UNL d   1      29.952 -16.437  -1.733  0.00  0.00    -0.225 NA
ATOM      3  C   UNL d   1      28.723 -16.184  -2.240  0.00  0.00     0.116 C 
ATOM      4  S   UNL d   1      28.559 -15.575  -3.806  0.00  0.00    -0.063 SA
ATOM      5  C   UNL d   1      26.843 -15.575  -3.696  0.00  0.00     0.089 C 
ATOM      6  C   UNL d   1      26.409 -15.941  -2.422  0.00  0.00    -0.020 C 
ATOM      7  C   UNL d   1      24.998 -16.099  -1.955  0.00  0.00     0.051 C 
ATOM      8  C   UNL d   1      27.532 -16.188  -1.558  0.00  0.00     0.075 C 
ATOM      9  C   UNL d   1      27.582 -16.468  -0.135  0.00  0.00     0.260 C 
ATOM     10  O   UNL d   1      26.618 -16.640   0.590  0.00  0.00    -0.267 OA
ATOM     11  N   UNL d   1      28.865 -16.491   0.371  0.00  0.00    -0.309 N 
ATOM     12  H   UNL d   1      28.913 -16.728   1.355  0.00  0.00     0.170 HD
ENDROOT
BRANCH   1  13
ATOM     13  C   UNL d   1      31.302 -16.423   0.254  0.00  0.00     0.313 C 
BRANCH  13  14
ATOM     14  N   UNL d   1      31.860 -17.766   0.799  0.00  0.00    -0.062 N 
ATOM     15  H   UNL d   1      31.067 -18.397   0.980  0.00  0.00     0.280 HD
BRANCH  14  16
ATOM     16  C   UNL d   1      32.665 -17.647   2.093  0.00  0.00     0.231 C 
ATOM     17  C   UNL d   1      32.936 -18.985   2.730  0.00  0.00     0.034 C 
ENDBRANCH  14  16
BRANCH  14  18
ATOM     18  C   UNL d   1      32.747 -18.433  -0.261  0.00  0.00     0.269 C 
BRANCH  18  19
ATOM     19  C   UNL d   1      31.932 -19.318  -1.230  0.00  0.00     0.168 C 
BRANCH  19  20
ATOM     20  O   UNL d   1      30.538 -19.283  -0.937  0.00  0.00    -0.392 OA
ATOM     21  H   UNL d   1      30.108 -18.592  -1.472  0.00  0.00     0.210 HD
ENDBRANCH  19  20
BRANCH  19  22
ATOM     22  C   UNL d   1      32.115 -18.826  -2.650  0.00  0.00     0.209 C 
BRANCH  22  23
ATOM     23  O   UNL d   1      30.833 -18.583  -3.230  0.00  0.00    -0.348 OA
BRANCH  23  24
ATOM     24  C   UNL d   1      30.810 -18.681  -4.598  0.00  0.00     0.074 C 
ATOM     25  C   UNL d   1      30.816 -17.476  -5.307  0.00  0.00     0.037 C 
ATOM     26  C   UNL d   1      30.943 -17.487  -6.697  0.00  0.00     0.003 C 
ATOM     27  C   UNL d   1      30.780 -18.679  -7.393  0.00  0.00     0.001 C 
ATOM     28  C   UNL d   1      30.621 -19.868  -6.694  0.00  0.00     0.009 C 
ATOM     29  C   UNL d   1      30.727 -19.895  -5.297  0.00  0.00    -0.029 C 
ATOM     30  C   UNL d   1      30.776 -21.237  -4.642  0.00  0.00     0.051 C 
ENDBRANCH  23  24
ENDBRANCH  22  23
ENDBRANCH  19  22
ENDBRANCH  18  19
ENDBRANCH  14  18
ENDBRANCH  13  14
ENDBRANCH   1  13
BRANCH   5  31
ATOM     31  C   UNL d   1      26.142 -15.222  -4.922  0.00  0.00     0.301 C 
ATOM     32  O   UNL d   1      26.466 -15.575  -6.042  0.00  0.00    -0.259 OA
BRANCH  31  33
ATOM     33  O   UNL d   1      25.048 -14.456  -4.644  0.00  0.00    -0.312 OA
BRANCH  33  34
ATOM     34  C   UNL d   1      25.278 -13.051  -4.449  0.00  0.00     0.124 C 
ATOM     35  C   UNL d   1      25.550 -12.758  -2.978  0.00  0.00     0.040 C 
ATOM     36  C   UNL d   1      26.504 -12.650  -5.270  0.00  0.00     0.040 C 
ENDBRANCH  33  34
ENDBRANCH  31  33
ENDBRANCH   5  31
TORSDOF 12
ENDMDL
MODEL 3
REMARK VINA RESULT:    -7.529      3.781      8.068
REMARK INTER + INTRA:         -16.751
REMARK INTER:                 -11.108
REMARK INTRA:                  -5.643
REMARK CONF_INDEPENDENT:        3.580
REMARK UNBOUND:                -5.643
REMARK  12 active torsions:
REMARK  status: ('A' for Active; 'I' for Inactive)
REMARK    1  A    between atoms: C_2  and  N_3 
REMARK    2  A    between atoms: N_3  and  C_4 
REMARK    3  A    between atoms: N_3  and  C_22 
REMARK    4  A    between atoms: C_4  and  C_5 
REMARK    5  A    between atoms: C_9  and  C_10 
REMARK    6  A    between atoms: C_10  and  O_12 
REMARK    7  A    between atoms: O_12  and  C_13 
REMARK    8  A    between atoms: C_22  and  C_23 
REMARK    9  A    between atoms: C_23  and  O_24 
REMARK   10  A    between atoms: C_23  and  C_25 
REMARK   11  A    between atoms: C_25  and  O_26 
REMARK   12  A    between atoms: O_26  and  C_27 
ROOT
ATOM      1  C   UNL d   1      28.247 -14.317   1.406  0.00  0.00     0.134 C 
ATOM      2  N   UNL d   1      28.065 -13.649   0.316  0.00  0.00    -0.225 NA
ATOM      3  C   UNL d   1      27.187 -14.230  -0.534  0.00  0.00     0.116 C 
ATOM      4  S   UNL d   1      26.427 -13.313  -1.730  0.00  0.00    -0.063 SA
ATOM      5  C   UNL d   1      25.586 -14.684  -2.339  0.00  0.00     0.089 C 
ATOM      6  C   UNL d   1      25.811 -15.816  -1.556  0.00  0.00    -0.020 C 
ATOM      7  C   UNL d   1      25.294 -17.198  -1.790  0.00  0.00     0.051 C 
ATOM      8  C   UNL d   1      26.667 -15.498  -0.445  0.00  0.00     0.075 C 
ATOM      9  C   UNL d   1      27.073 -16.303   0.693  0.00  0.00     0.260 C 
ATOM     10  O   UNL d   1      26.815 -17.483   0.857  0.00  0.00    -0.267 OA
ATOM     11  N   UNL d   1      27.779 -15.592   1.640  0.00  0.00    -0.309 N 
ATOM     12  H   UNL d   1      28.104 -16.154   2.417  0.00  0.00     0.170 HD
ENDROOT
BRANCH   1  13
ATOM     13  C   UNL d   1      28.917 -13.639   2.561  0.00  0.00     0.313 C 
BRANCH  13  14
ATOM     14  N   UNL d   1      29.988 -14.468   3.321  0.00  0.00    -0.062 N 
ATOM     15  H   UNL d   1      29.919 -15.448   3.012  0.00  0.00     0.280 HD
BRANCH  14  16
ATOM     16  C   UNL d   1      29.852 -14.449   4.843  0.00  0.00     0.231 C 
ATOM     17  C   UNL d   1      28.486 -14.883   5.307  0.00  0.00     0.034 C 
ENDBRANCH  14  16
BRANCH  14  18
ATOM     18  C   UNL d   1      31.394 -13.969   2.955  0.00  0.00     0.269 C 
BRANCH  18  19
ATOM     19  C   UNL d   1      32.229 -15.053   2.239  0.00  0.00     0.168 C 
BRANCH  19  20
ATOM     20  O   UNL d   1      31.916 -16.362   2.708  0.00  0.00    -0.392 OA
ATOM     21  H   UNL d   1      31.159 -16.717   2.209  0.00  0.00     0.210 HD
ENDBRANCH  19  20
BRANCH  19  22
ATOM     22  C   UNL d   1      31.946 -15.019   0.753  0.00  0.00     0.209 C 
BRANCH  22  23
ATOM     23  O   UNL d   1      30.673 -15.617   0.504  0.00  0.00    -0.348 OA
BRANCH  23  24
ATOM     24  C   UNL d   1      30.317 -15.647  -0.820  0.00  0.00     0.074 C 
ATOM     25  C   UNL d   1      30.334 -14.423  -1.495  0.00  0.00     0.037 C 
ATOM     26  C   UNL d   1      30.130 -14.387  -2.876  0.00  0.00     0.003 C 
ATOM     27  C   UNL d   1      29.637 -15.512  -3.528  0.00  0.00     0.001 C 
ATOM     28  C   UNL d   1      29.474 -16.699  -2.825  0.00  0.00     0.009 C 
ATOM     29  C   UNL d   1      29.898 -16.804  -1.494  0.00  0.00    -0.029 C 
ATOM     30  C   UNL d   1      29.903 -18.169  -0.885  0.00  0.00     0.051 C 
ENDBRANCH  23  24
ENDBRANCH  22  23
ENDBRANCH  19  22
ENDBRANCH  18  19
ENDBRANCH  14  18
ENDBRANCH  13  14
ENDBRANCH   1  13
BRANCH   5  31
ATOM     31  C   UNL d   1      24.813 -14.451  -3.551  0.00  0.00     0.301 C 
ATOM     32  O   UNL d   1      23.694 -13.973  -3.589  0.00  0.00    -0.259 OA
BRANCH  31  33
ATOM     33  O   UNL d   1      25.528 -14.822  -4.652  0.00  0.00    -0.312 OA
BRANCH  33  34
ATOM     34  C   UNL d   1      26.804 -14.186  -4.836  0.00  0.00     0.124 C 
ATOM     35  C   UNL d   1      27.550 -14.824  -6.003  0.00  0.00     0.040 C 
ATOM     36  C   UNL d   1      26.559 -12.710  -5.151  0.00  0.00     0.040 C 
ENDBRANCH  33  34
ENDBRANCH  31  33
ENDBRANCH   5  31
TORSDOF 12
ENDMDL
MODEL 4
REMARK VINA RESULT:    -6.638      3.825      7.765
REMARK INTER + INTRA:         -16.215
REMARK INTER:                 -10.218
REMARK INTRA:                  -5.997
REMARK CONF_INDEPENDENT:        3.580
REMARK UNBOUND:                -5.997
REMARK  12 active torsions:
REMARK  status: ('A' for Active; 'I' for Inactive)
REMARK    1  A    between atoms: C_2  and  N_3 
REMARK    2  A    between atoms: N_3  and  C_4 
REMARK    3  A    between atoms: N_3  and  C_22 
REMARK    4  A    between atoms: C_4  and  C_5 
REMARK    5  A    between atoms: C_9  and  C_10 
REMARK    6  A    between atoms: C_10  and  O_12 
REMARK    7  A    between atoms: O_12  and  C_13 
REMARK    8  A    between atoms: C_22  and  C_23 
REMARK    9  A    between atoms: C_23  and  O_24 
REMARK   10  A    between atoms: C_23  and  C_25 
REMARK   11  A    between atoms: C_25  and  O_26 
REMARK   12  A    between atoms: O_26  and  C_27 
ROOT
ATOM      1  C   UNL d   1      28.540 -13.229   1.747  0.00  0.00     0.134 C 
ATOM      2  N   UNL d   1      27.706 -14.215   1.763  0.00  0.00    -0.225 NA
ATOM      3  C   UNL d   1      27.067 -14.402   0.584  0.00  0.00     0.116 C 
ATOM      4  S   UNL d   1      26.357 -15.891   0.229  0.00  0.00    -0.063 SA
ATOM      5  C   UNL d   1      25.780 -15.327  -1.290  0.00  0.00     0.089 C 
ATOM      6  C   UNL d   1      26.225 -14.034  -1.562  0.00  0.00    -0.020 C 
ATOM      7  C   UNL d   1      25.899 -13.193  -2.754  0.00  0.00     0.051 C 
ATOM      8  C   UNL d   1      27.065 -13.555  -0.497  0.00  0.00     0.075 C 
ATOM      9  C   UNL d   1      27.849 -12.338  -0.388  0.00  0.00     0.260 C 
ATOM     10  O   UNL d   1      27.854 -11.422  -1.192  0.00  0.00    -0.267 OA
ATOM     11  N   UNL d   1      28.656 -12.307   0.729  0.00  0.00    -0.309 N 
ATOM     12  H   UNL d   1      29.175 -11.444   0.836  0.00  0.00     0.170 HD
ENDROOT
BRANCH   1  13
ATOM     13  C   UNL d   1      29.546 -13.121   2.852  0.00  0.00     0.313 C 
BRANCH  13  14
ATOM     14  N   UNL d   1      30.213 -14.447   3.308  0.00  0.00    -0.062 N 
ATOM     15  H   UNL d   1      29.891 -15.203   2.688  0.00  0.00     0.280 HD
BRANCH  14  16
ATOM     16  C   UNL d   1      29.898 -14.860   4.746  0.00  0.00     0.231 C 
ATOM     17  C   UNL d   1      28.422 -14.820   5.049  0.00  0.00     0.034 C 
ENDBRANCH  14  16
BRANCH  14  18
ATOM     18  C   UNL d   1      31.737 -14.346   3.158  0.00  0.00     0.269 C 
BRANCH  18  19
ATOM     19  C   UNL d   1      32.286 -15.334   2.106  0.00  0.00     0.168 C 
BRANCH  19  20
ATOM     20  O   UNL d   1      31.906 -16.679   2.390  0.00  0.00    -0.392 OA
ATOM     21  H   UNL d   1      31.106 -16.907   1.885  0.00  0.00     0.210 HD
ENDBRANCH  19  20
BRANCH  19  22
ATOM     22  C   UNL d   1      31.739 -14.983   0.739  0.00  0.00     0.209 C 
BRANCH  22  23
ATOM     23  O   UNL d   1      30.431 -15.539   0.600  0.00  0.00    -0.348 OA
BRANCH  23  24
ATOM     24  C   UNL d   1      29.953 -15.532  -0.686  0.00  0.00     0.074 C 
ATOM     25  C   UNL d   1      30.255 -14.403  -1.453  0.00  0.00     0.037 C 
ATOM     26  C   UNL d   1      29.934 -14.380  -2.812  0.00  0.00     0.003 C 
ATOM     27  C   UNL d   1      29.077 -15.343  -3.333  0.00  0.00     0.001 C 
ATOM     28  C   UNL d   1      28.649 -16.391  -2.529  0.00  0.00     0.009 C 
ATOM     29  C   UNL d   1      29.154 -16.548  -1.232  0.00  0.00    -0.029 C 
ATOM     30  C   UNL d   1      28.826 -17.821  -0.521  0.00  0.00     0.051 C 
ENDBRANCH  23  24
ENDBRANCH  22  23
ENDBRANCH  19  22
ENDBRANCH  18  19
ENDBRANCH  14  18
ENDBRANCH  13  14
ENDBRANCH   1  13
BRANCH   5  31
ATOM     31  C   UNL d   1      24.927 -16.258  -2.016  0.00  0.00     0.301 C 
ATOM     32  O   UNL d   1      25.156 -16.698  -3.128  0.00  0.00    -0.259 OA
BRANCH  31  33
ATOM     33  O   UNL d   1      23.839 -16.593  -1.265  0.00  0.00    -0.312 OA
BRANCH  33  34
ATOM     34  C   UNL d   1      23.565 -17.996  -1.118  0.00  0.00     0.124 C 
ATOM     35  C   UNL d   1      24.380 -18.577   0.034  0.00  0.00     0.040 C 
ATOM     36  C   UNL d   1      22.077 -18.161  -0.806  0.00  0.00     0.040 C 
ENDBRANCH  33  34
ENDBRANCH  31  33
ENDBRANCH   5  31
TORSDOF 12
ENDMDL
MODEL 5
REMARK VINA RESULT:    -6.510      7.016      9.881
REMARK INTER + INTRA:         -15.887
REMARK INTER:                 -10.089
REMARK INTRA:                  -5.798
REMARK CONF_INDEPENDENT:        3.580
REMARK UNBOUND:                -5.798
REMARK  12 active torsions:
REMARK  status: ('A' for Active; 'I' for Inactive)
REMARK    1  A    between atoms: C_2  and  N_3 
REMARK    2  A    between atoms: N_3  and  C_4 
REMARK    3  A    between atoms: N_3  and  C_22 
REMARK    4  A    between atoms: C_4  and  C_5 
REMARK    5  A    between atoms: C_9  and  C_10 
REMARK    6  A    between atoms: C_10  and  O_12 
REMARK    7  A    between atoms: O_12  and  C_13 
REMARK    8  A    between atoms: C_22  and  C_23 
REMARK    9  A    between atoms: C_23  and  O_24 
REMARK   10  A    between atoms: C_23  and  C_25 
REMARK   11  A    between atoms: C_25  and  O_26 
REMARK   12  A    between atoms: O_26  and  C_27 
ROOT
ATOM      1  C   UNL d   1      28.533 -14.905  -5.950  0.00  0.00     0.134 C 
ATOM      2  N   UNL d   1      27.302 -15.188  -5.676  0.00  0.00    -0.225 NA
ATOM      3  C   UNL d   1      27.087 -15.451  -4.366  0.00  0.00     0.116 C 
ATOM      4  S   UNL d   1      25.532 -15.330  -3.720  0.00  0.00    -0.063 SA
ATOM      5  C   UNL d   1      26.071 -15.819  -2.161  0.00  0.00     0.089 C 
ATOM      6  C   UNL d   1      27.457 -15.969  -2.120  0.00  0.00    -0.020 C 
ATOM      7  C   UNL d   1      28.286 -16.423  -0.963  0.00  0.00     0.051 C 
ATOM      8  C   UNL d   1      28.038 -15.644  -3.395  0.00  0.00     0.075 C 
ATOM      9  C   UNL d   1      29.428 -15.532  -3.797  0.00  0.00     0.260 C 
ATOM     10  O   UNL d   1      30.392 -15.800  -3.101  0.00  0.00    -0.267 OA
ATOM     11  N   UNL d   1      29.589 -15.042  -5.075  0.00  0.00    -0.309 N 
ATOM     12  H   UNL d   1      30.554 -15.000  -5.380  0.00  0.00     0.170 HD
ENDROOT
BRANCH   1  13
ATOM     13  C   UNL d   1      28.848 -14.274  -7.271  0.00  0.00     0.313 C 
BRANCH  13  14
ATOM     14  N   UNL d   1      30.187 -13.492  -7.359  0.00  0.00    -0.062 N 
ATOM     15  H   UNL d   1      30.369 -13.056  -6.444  0.00  0.00     0.280 HD
BRANCH  14  16
ATOM     16  C   UNL d   1      30.216 -12.388  -8.415  0.00  0.00     0.231 C 
ATOM     17  C   UNL d   1      31.413 -12.489  -9.325  0.00  0.00     0.034 C 
ENDBRANCH  14  16
BRANCH  14  18
ATOM     18  C   UNL d   1      31.343 -14.462  -7.644  0.00  0.00     0.269 C 
BRANCH  18  19
ATOM     19  C   UNL d   1      32.383 -14.482  -6.502  0.00  0.00     0.168 C 
BRANCH  19  20
ATOM     20  O   UNL d   1      31.849 -13.960  -5.288  0.00  0.00    -0.392 OA
ATOM     21  H   UNL d   1      31.737 -14.680  -4.643  0.00  0.00     0.210 HD
ENDBRANCH  19  20
BRANCH  19  22
ATOM     22  C   UNL d   1      32.823 -15.905  -6.235  0.00  0.00     0.209 C 
BRANCH  22  23
ATOM     23  O   UNL d   1      31.803 -16.581  -5.498  0.00  0.00    -0.348 OA
BRANCH  23  24
ATOM     24  C   UNL d   1      31.385 -17.756  -6.069  0.00  0.00     0.074 C 
ATOM     25  C   UNL d   1      31.421 -17.814  -7.466  0.00  0.00     0.037 C 
ATOM     26  C   UNL d   1      31.154 -19.020  -8.118  0.00  0.00     0.003 C 
ATOM     27  C   UNL d   1      30.585 -20.073  -7.412  0.00  0.00     0.001 C 
ATOM     28  C   UNL d   1      30.405 -19.964  -6.039  0.00  0.00     0.009 C 
ATOM     29  C   UNL d   1      30.886 -18.848  -5.343  0.00  0.00    -0.029 C 
ATOM     30  C   UNL d   1      30.863 -18.912  -3.850  0.00  0.00     0.051 C 
ENDBRANCH  23  24
ENDBRANCH  22  23
ENDBRANCH  19  22
ENDBRANCH  18  19
ENDBRANCH  14  18
ENDBRANCH  13  14
ENDBRANCH   1  13
BRANCH   5  31
ATOM     31  C   UNL d   1      25.020 -16.011  -1.172  0.00  0.00     0.301 C 
ATOM     32  O   UNL d   1      25.039 -15.575  -0.035  0.00  0.00    -0.259 OA
BRANCH  31  33
ATOM     33  O   UNL d   1      23.991 -16.730  -1.703  0.00  0.00    -0.312 OA
BRANCH  33  34
ATOM     34  C   UNL d   1      23.847 -18.084  -1.243  0.00  0.00     0.124 C 
ATOM     35  C   UNL d   1      24.862 -18.381  -0.144  0.00  0.00     0.040 C 
ATOM     36  C   UNL d   1      22.437 -18.247  -0.674  0.00  0.00     0.040 C 
ENDBRANCH  33  34
ENDBRANCH  31  33
ENDBRANCH   5  31
TORSDOF 12
ENDMDL
MODEL 6
REMARK VINA RESULT:    -6.381      4.038      8.423
REMARK INTER + INTRA:         -15.794
REMARK INTER:                  -9.961
REMARK INTRA:                  -5.833
REMARK CONF_INDEPENDENT:        3.580
REMARK UNBOUND:                -5.833
REMARK  12 active torsions:
REMARK  status: ('A' for Active; 'I' for Inactive)
REMARK    1  A    between atoms: C_2  and  N_3 
REMARK    2  A    between atoms: N_3  and  C_4 
REMARK    3  A    between atoms: N_3  and  C_22 
REMARK    4  A    between atoms: C_4  and  C_5 
REMARK    5  A    between atoms: C_9  and  C_10 
REMARK    6  A    between atoms: C_10  and  O_12 
REMARK    7  A    between atoms: O_12  and  C_13 
REMARK    8  A    between atoms: C_22  and  C_23 
REMARK    9  A    between atoms: C_23  and  O_24 
REMARK   10  A    between atoms: C_23  and  C_25 
REMARK   11  A    between atoms: C_25  and  O_26 
REMARK   12  A    between atoms: O_26  and  C_27 
ROOT
ATOM      1  C   UNL d   1      29.707 -16.434  -0.129  0.00  0.00     0.134 C 
ATOM      2  N   UNL d   1      29.778 -16.298  -1.412  0.00  0.00    -0.225 NA
ATOM      3  C   UNL d   1      28.576 -16.104  -2.002  0.00  0.00     0.116 C 
ATOM      4  S   UNL d   1      28.485 -15.404  -3.536  0.00  0.00    -0.063 SA
ATOM      5  C   UNL d   1      26.771 -15.539  -3.568  0.00  0.00     0.089 C 
ATOM      6  C   UNL d   1      26.270 -16.022  -2.359  0.00  0.00    -0.020 C 
ATOM      7  C   UNL d   1      24.845 -16.317  -2.021  0.00  0.00     0.051 C 
ATOM      8  C   UNL d   1      27.339 -16.244  -1.423  0.00  0.00     0.075 C 
ATOM      9  C   UNL d   1      27.302 -16.615  -0.020  0.00  0.00     0.260 C 
ATOM     10  O   UNL d   1      26.301 -16.907   0.611  0.00  0.00    -0.267 OA
ATOM     11  N   UNL d   1      28.539 -16.577   0.587  0.00  0.00    -0.309 N 
ATOM     12  H   UNL d   1      28.530 -16.875   1.555  0.00  0.00     0.170 HD
ENDROOT
BRANCH   1  13
ATOM     13  C   UNL d   1      30.965 -16.318   0.676  0.00  0.00     0.313 C 
BRANCH  13  14
ATOM     14  N   UNL d   1      32.203 -15.737  -0.060  0.00  0.00    -0.062 N 
ATOM     15  H   UNL d   1      31.976 -15.654  -1.061  0.00  0.00     0.280 HD
BRANCH  14  16
ATOM     16  C   UNL d   1      33.473 -16.578   0.062  0.00  0.00     0.231 C 
ATOM     17  C   UNL d   1      34.044 -16.562   1.456  0.00  0.00     0.034 C 
ENDBRANCH  14  16
BRANCH  14  18
ATOM     18  C   UNL d   1      32.507 -14.325   0.462  0.00  0.00     0.269 C 
BRANCH  18  19
ATOM     19  C   UNL d   1      31.644 -13.249  -0.234  0.00  0.00     0.168 C 
BRANCH  19  20
ATOM     20  O   UNL d   1      30.916 -13.782  -1.337  0.00  0.00    -0.392 OA
ATOM     21  H   UNL d   1      30.095 -14.197  -1.018  0.00  0.00     0.210 HD
ENDBRANCH  19  20
BRANCH  19  22
ATOM     22  C   UNL d   1      30.640 -12.684   0.748  0.00  0.00     0.209 C 
BRANCH  22  23
ATOM     23  O   UNL d   1      29.514 -13.559   0.823  0.00  0.00    -0.348 OA
BRANCH  23  24
ATOM     24  C   UNL d   1      29.082 -13.807   2.101  0.00  0.00     0.074 C 
ATOM     25  C   UNL d   1      30.053 -14.232   3.013  0.00  0.00     0.037 C 
ATOM     26  C   UNL d   1      29.727 -14.363   4.364  0.00  0.00     0.003 C 
ATOM     27  C   UNL d   1      28.394 -14.348   4.755  0.00  0.00     0.001 C 
ATOM     28  C   UNL d   1      27.405 -14.075   3.819  0.00  0.00     0.009 C 
ATOM     29  C   UNL d   1      27.743 -13.712   2.509  0.00  0.00    -0.029 C 
ATOM     30  C   UNL d   1      26.641 -13.210   1.634  0.00  0.00     0.051 C 
ENDBRANCH  23  24
ENDBRANCH  22  23
ENDBRANCH  19  22
ENDBRANCH  18  19
ENDBRANCH  14  18
ENDBRANCH  13  14
ENDBRANCH   1  13
BRANCH   5  31
ATOM     31  C   UNL d   1      26.141 -15.158  -4.824  0.00  0.00     0.301 C 
ATOM     32  O   UNL d   1      26.556 -15.444  -5.933  0.00  0.00    -0.259 OA
BRANCH  31  33
ATOM     33  O   UNL d   1      24.999 -14.450  -4.590  0.00  0.00    -0.312 OA
BRANCH  33  34
ATOM     34  C   UNL d   1      25.156 -13.054  -4.286  0.00  0.00     0.124 C 
ATOM     35  C   UNL d   1      25.530 -12.870  -2.819  0.00  0.00     0.040 C 
ATOM     36  C   UNL d   1      26.283 -12.500  -5.159  0.00  0.00     0.040 C 
ENDBRANCH  33  34
ENDBRANCH  31  33
ENDBRANCH   5  31
TORSDOF 12
ENDMDL
MODEL 7
REMARK VINA RESULT:    -6.371      4.529      8.614
REMARK INTER + INTRA:         -15.865
REMARK INTER:                  -9.951
REMARK INTRA:                  -5.914
REMARK CONF_INDEPENDENT:        3.580
REMARK UNBOUND:                -5.914
REMARK  12 active torsions:
REMARK  status: ('A' for Active; 'I' for Inactive)
REMARK    1  A    between atoms: C_2  and  N_3 
REMARK    2  A    between atoms: N_3  and  C_4 
REMARK    3  A    between atoms: N_3  and  C_22 
REMARK    4  A    between atoms: C_4  and  C_5 
REMARK    5  A    between atoms: C_9  and  C_10 
REMARK    6  A    between atoms: C_10  and  O_12 
REMARK    7  A    between atoms: O_12  and  C_13 
REMARK    8  A    between atoms: C_22  and  C_23 
REMARK    9  A    between atoms: C_23  and  O_24 
REMARK   10  A    between atoms: C_23  and  C_25 
REMARK   11  A    between atoms: C_25  and  O_26 
REMARK   12  A    between atoms: O_26  and  C_27 
ROOT
ATOM      1  C   UNL d   1      31.024 -16.304  -0.090  0.00  0.00     0.134 C 
ATOM      2  N   UNL d   1      30.823 -15.360  -0.950  0.00  0.00    -0.225 NA
ATOM      3  C   UNL d   1      30.407 -15.808  -2.157  0.00  0.00     0.116 C 
ATOM      4  S   UNL d   1      29.610 -14.768  -3.221  0.00  0.00    -0.063 SA
ATOM      5  C   UNL d   1      29.472 -15.993  -4.419  0.00  0.00     0.089 C 
ATOM      6  C   UNL d   1      29.943 -17.221  -3.956  0.00  0.00    -0.020 C 
ATOM      7  C   UNL d   1      30.030 -18.505  -4.717  0.00  0.00     0.051 C 
ATOM      8  C   UNL d   1      30.386 -17.110  -2.593  0.00  0.00     0.075 C 
ATOM      9  C   UNL d   1      30.831 -18.129  -1.660  0.00  0.00     0.260 C 
ATOM     10  O   UNL d   1      31.001 -19.307  -1.922  0.00  0.00    -0.267 OA
ATOM     11  N   UNL d   1      31.025 -17.651  -0.381  0.00  0.00    -0.309 N 
ATOM     12  H   UNL d   1      31.377 -18.345   0.268  0.00  0.00     0.170 HD
ENDROOT
BRANCH   1  13
ATOM     13  C   UNL d   1      31.156 -15.942   1.357  0.00  0.00     0.313 C 
BRANCH  13  14
ATOM     14  N   UNL d   1      31.049 -14.431   1.701  0.00  0.00    -0.062 N 
ATOM     15  H   UNL d   1      31.049 -13.897   0.821  0.00  0.00     0.280 HD
BRANCH  14  16
ATOM     16  C   UNL d   1      32.183 -13.891   2.572  0.00  0.00     0.231 C 
ATOM     17  C   UNL d   1      33.320 -14.870   2.713  0.00  0.00     0.034 C 
ENDBRANCH  14  16
BRANCH  14  18
ATOM     18  C   UNL d   1      29.718 -14.149   2.413  0.00  0.00     0.269 C 
BRANCH  18  19
ATOM     19  C   UNL d   1      28.545 -14.004   1.418  0.00  0.00     0.168 C 
BRANCH  19  20
ATOM     20  O   UNL d   1      28.999 -13.707   0.099  0.00  0.00    -0.392 OA
ATOM     21  H   UNL d   1      28.884 -14.489  -0.470  0.00  0.00     0.210 HD
ENDBRANCH  19  20
BRANCH  19  22
ATOM     22  C   UNL d   1      27.765 -15.300   1.353  0.00  0.00     0.209 C 
BRANCH  22  23
ATOM     23  O   UNL d   1      27.836 -15.824   0.027  0.00  0.00    -0.348 OA
BRANCH  23  24
ATOM     24  C   UNL d   1      26.653 -16.342  -0.434  0.00  0.00     0.074 C 
ATOM     25  C   UNL d   1      25.907 -15.522  -1.287  0.00  0.00     0.037 C 
ATOM     26  C   UNL d   1      24.767 -16.027  -1.916  0.00  0.00     0.003 C 
ATOM     27  C   UNL d   1      24.221 -17.230  -1.486  0.00  0.00     0.001 C 
ATOM     28  C   UNL d   1      24.882 -17.982  -0.524  0.00  0.00     0.009 C 
ATOM     29  C   UNL d   1      26.145 -17.594  -0.059  0.00  0.00    -0.029 C 
ATOM     30  C   UNL d   1      26.888 -18.571   0.794  0.00  0.00     0.051 C 
ENDBRANCH  23  24
ENDBRANCH  22  23
ENDBRANCH  19  22
ENDBRANCH  18  19
ENDBRANCH  14  18
ENDBRANCH  13  14
ENDBRANCH   1  13
BRANCH   5  31
ATOM     31  C   UNL d   1      28.920 -15.556  -5.694  0.00  0.00     0.301 C 
ATOM     32  O   UNL d   1      29.570 -15.334  -6.701  0.00  0.00    -0.259 OA
BRANCH  31  33
ATOM     33  O   UNL d   1      27.563 -15.451  -5.616  0.00  0.00    -0.312 OA
BRANCH  33  34
ATOM     34  C   UNL d   1      27.045 -14.338  -4.869  0.00  0.00     0.124 C 
ATOM     35  C   UNL d   1      27.243 -13.041  -5.646  0.00  0.00     0.040 C 
ATOM     36  C   UNL d   1      25.548 -14.563  -4.654  0.00  0.00     0.040 C 
ENDBRANCH  33  34
ENDBRANCH  31  33
ENDBRANCH   5  31
TORSDOF 12
ENDMDL
MODEL 8
REMARK VINA RESULT:    -6.136      3.767      8.681
REMARK INTER + INTRA:         -16.272
REMARK INTER:                  -9.715
REMARK INTRA:                  -6.556
REMARK CONF_INDEPENDENT:        3.580
REMARK UNBOUND:                -6.556
REMARK  12 active torsions:
REMARK  status: ('A' for Active; 'I' for Inactive)
REMARK    1  A    between atoms: C_2  and  N_3 
REMARK    2  A    between atoms: N_3  and  C_4 
REMARK    3  A    between atoms: N_3  and  C_22 
REMARK    4  A    between atoms: C_4  and  C_5 
REMARK    5  A    between atoms: C_9  and  C_10 
REMARK    6  A    between atoms: C_10  and  O_12 
REMARK    7  A    between atoms: O_12  and  C_13 
REMARK    8  A    between atoms: C_22  and  C_23 
REMARK    9  A    between atoms: C_23  and  O_24 
REMARK   10  A    between atoms: C_23  and  C_25 
REMARK   11  A    between atoms: C_25  and  O_26 
REMARK   12  A    between atoms: O_26  and  C_27 
ROOT
ATOM      1  C   UNL d   1      28.024 -14.670   1.310  0.00  0.00     0.134 C 
ATOM      2  N   UNL d   1      27.240 -14.083   0.467  0.00  0.00    -0.225 NA
ATOM      3  C   UNL d   1      27.324 -14.585  -0.787  0.00  0.00     0.116 C 
ATOM      4  S   UNL d   1      26.066 -14.341  -1.886  0.00  0.00    -0.063 SA
ATOM      5  C   UNL d   1      26.903 -15.183  -3.131  0.00  0.00     0.089 C 
ATOM      6  C   UNL d   1      28.095 -15.738  -2.666  0.00  0.00    -0.020 C 
ATOM      7  C   UNL d   1      29.111 -16.497  -3.455  0.00  0.00     0.051 C 
ATOM      8  C   UNL d   1      28.265 -15.464  -1.264  0.00  0.00     0.075 C 
ATOM      9  C   UNL d   1      29.269 -15.934  -0.327  0.00  0.00     0.260 C 
ATOM     10  O   UNL d   1      30.246 -16.605  -0.610  0.00  0.00    -0.267 OA
ATOM     11  N   UNL d   1      29.006 -15.577   0.978  0.00  0.00    -0.309 N 
ATOM     12  H   UNL d   1      29.723 -15.863   1.634  0.00  0.00     0.170 HD
ENDROOT
BRANCH   1  13
ATOM     13  C   UNL d   1      27.795 -14.452   2.775  0.00  0.00     0.313 C 
BRANCH  13  14
ATOM     14  N   UNL d   1      29.000 -14.740   3.711  0.00  0.00    -0.062 N 
ATOM     15  H   UNL d   1      29.491 -15.574   3.360  0.00  0.00     0.280 HD
BRANCH  14  16
ATOM     16  C   UNL d   1      28.629 -14.998   5.171  0.00  0.00     0.231 C 
ATOM     17  C   UNL d   1      28.171 -13.750   5.880  0.00  0.00     0.034 C 
ENDBRANCH  14  16
BRANCH  14  18
ATOM     18  C   UNL d   1      29.991 -13.568   3.664  0.00  0.00     0.269 C 
BRANCH  18  19
ATOM     19  C   UNL d   1      31.208 -13.870   2.763  0.00  0.00     0.168 C 
BRANCH  19  20
ATOM     20  O   UNL d   1      31.171 -15.197   2.245  0.00  0.00    -0.392 OA
ATOM     21  H   UNL d   1      31.121 -15.168   1.273  0.00  0.00     0.210 HD
ENDBRANCH  19  20
BRANCH  19  22
ATOM     22  C   UNL d   1      31.222 -12.918   1.585  0.00  0.00     0.209 C 
BRANCH  22  23
ATOM     23  O   UNL d   1      31.104 -13.668   0.376  0.00  0.00    -0.348 OA
BRANCH  23  24
ATOM     24  C   UNL d   1      30.460 -13.002  -0.635  0.00  0.00     0.074 C 
ATOM     25  C   UNL d   1      29.531 -12.032  -0.246  0.00  0.00     0.037 C 
ATOM     26  C   UNL d   1      28.941 -11.208  -1.207  0.00  0.00     0.003 C 
ATOM     27  C   UNL d   1      29.057 -11.530  -2.554  0.00  0.00     0.001 C 
ATOM     28  C   UNL d   1      29.864 -12.593  -2.940  0.00  0.00     0.009 C 
ATOM     29  C   UNL d   1      30.642 -13.278  -1.999  0.00  0.00    -0.029 C 
ATOM     30  C   UNL d   1      31.652 -14.247  -2.523  0.00  0.00     0.051 C 
ENDBRANCH  23  24
ENDBRANCH  22  23
ENDBRANCH  19  22
ENDBRANCH  18  19
ENDBRANCH  14  18
ENDBRANCH  13  14
ENDBRANCH   1  13
BRANCH   5  31
ATOM     31  C   UNL d   1      26.259 -15.162  -4.436  0.00  0.00     0.301 C 
ATOM     32  O   UNL d   1      25.108 -14.821  -4.646  0.00  0.00    -0.259 OA
BRANCH  31  33
ATOM     33  O   UNL d   1      27.132 -15.557  -5.406  0.00  0.00    -0.312 OA
BRANCH  33  34
ATOM     34  C   UNL d   1      27.781 -14.514  -6.153  0.00  0.00     0.124 C 
ATOM     35  C   UNL d   1      27.547 -13.162  -5.487  0.00  0.00     0.040 C 
ATOM     36  C   UNL d   1      29.282 -14.804  -6.172  0.00  0.00     0.040 C 
ENDBRANCH  33  34
ENDBRANCH  31  33
ENDBRANCH   5  31
TORSDOF 12
ENDMDL
MODEL 9
REMARK VINA RESULT:    -5.781      5.797      8.193
REMARK INTER + INTRA:         -16.164
REMARK INTER:                  -9.360
REMARK INTRA:                  -6.803
REMARK CONF_INDEPENDENT:        3.580
REMARK UNBOUND:                -6.803
REMARK  12 active torsions:
REMARK  status: ('A' for Active; 'I' for Inactive)
REMARK    1  A    between atoms: C_2  and  N_3 
REMARK    2  A    between atoms: N_3  and  C_4 
REMARK    3  A    between atoms: N_3  and  C_22 
REMARK    4  A    between atoms: C_4  and  C_5 
REMARK    5  A    between atoms: C_9  and  C_10 
REMARK    6  A    between atoms: C_10  and  O_12 
REMARK    7  A    between atoms: O_12  and  C_13 
REMARK    8  A    between atoms: C_22  and  C_23 
REMARK    9  A    between atoms: C_23  and  O_24 
REMARK   10  A    between atoms: C_23  and  C_25 
REMARK   11  A    between atoms: C_25  and  O_26 
REMARK   12  A    between atoms: O_26  and  C_27 
ROOT
ATOM      1  C   UNL d   1      29.891 -13.673  -3.184  0.00  0.00     0.134 C 
ATOM      2  N   UNL d   1      29.848 -14.919  -2.844  0.00  0.00    -0.225 NA
ATOM      3  C   UNL d   1      28.850 -15.207  -1.976  0.00  0.00     0.116 C 
ATOM      4  S   UNL d   1      28.299 -16.794  -1.813  0.00  0.00    -0.063 SA
ATOM      5  C   UNL d   1      27.163 -16.344  -0.603  0.00  0.00     0.089 C 
ATOM      6  C   UNL d   1      27.139 -14.964  -0.407  0.00  0.00    -0.020 C 
ATOM      7  C   UNL d   1      26.321 -14.202   0.586  0.00  0.00     0.051 C 
ATOM      8  C   UNL d   1      28.060 -14.312  -1.299  0.00  0.00     0.075 C 
ATOM      9  C   UNL d   1      28.291 -12.901  -1.549  0.00  0.00     0.260 C 
ATOM     10  O   UNL d   1      27.776 -11.978  -0.942  0.00  0.00    -0.267 OA
ATOM     11  N   UNL d   1      29.152 -12.668  -2.600  0.00  0.00    -0.309 N 
ATOM     12  H   UNL d   1      29.353 -11.687  -2.756  0.00  0.00     0.170 HD
ENDROOT
BRANCH   1  13
ATOM     13  C   UNL d   1      30.713 -13.282  -4.374  0.00  0.00     0.313 C 
BRANCH  13  14
ATOM     14  N   UNL d   1      31.485 -14.427  -5.084  0.00  0.00    -0.062 N 
ATOM     15  H   UNL d   1      31.367 -15.288  -4.533  0.00  0.00     0.280 HD
BRANCH  14  16
ATOM     16  C   UNL d   1      32.985 -14.181  -5.249  0.00  0.00     0.231 C 
ATOM     17  C   UNL d   1      33.581 -13.440  -4.080  0.00  0.00     0.034 C 
ENDBRANCH  14  16
BRANCH  14  18
ATOM     18  C   UNL d   1      30.883 -14.682  -6.473  0.00  0.00     0.269 C 
BRANCH  18  19
ATOM     19  C   UNL d   1      29.662 -15.627  -6.414  0.00  0.00     0.168 C 
BRANCH  19  20
ATOM     20  O   UNL d   1      29.590 -16.327  -5.174  0.00  0.00    -0.392 OA
ATOM     21  H   UNL d   1      28.967 -15.874  -4.578  0.00  0.00     0.210 HD
ENDBRANCH  19  20
BRANCH  19  22
ATOM     22  C   UNL d   1      28.386 -14.825  -6.562  0.00  0.00     0.209 C 
BRANCH  22  23
ATOM     23  O   UNL d   1      27.414 -15.316  -5.638  0.00  0.00    -0.348 OA
BRANCH  23  24
ATOM     24  C   UNL d   1      26.767 -14.335  -4.932  0.00  0.00     0.074 C 
ATOM     25  C   UNL d   1      27.029 -13.017  -5.318  0.00  0.00     0.037 C 
ATOM     26  C   UNL d   1      26.302 -11.968  -4.750  0.00  0.00     0.003 C 
ATOM     27  C   UNL d   1      25.531 -12.200  -3.618  0.00  0.00     0.001 C 
ATOM     28  C   UNL d   1      25.387 -13.495  -3.136  0.00  0.00     0.009 C 
ATOM     29  C   UNL d   1      25.924 -14.581  -3.837  0.00  0.00    -0.029 C 
ATOM     30  C   UNL d   1      25.530 -15.950  -3.383  0.00  0.00     0.051 C 
ENDBRANCH  23  24
ENDBRANCH  22  23
ENDBRANCH  19  22
ENDBRANCH  18  19
ENDBRANCH  14  18
ENDBRANCH  13  14
ENDBRANCH   1  13
BRANCH   5  31
ATOM     31  C   UNL d   1      26.445 -17.449   0.017  0.00  0.00     0.301 C 
ATOM     32  O   UNL d   1      26.694 -17.921   1.113  0.00  0.00    -0.259 OA
BRANCH  31  33
ATOM     33  O   UNL d   1      25.432 -17.874  -0.790  0.00  0.00    -0.312 OA
BRANCH  33  34
ATOM     34  C   UNL d   1      24.106 -17.834  -0.236  0.00  0.00     0.124 C 
ATOM     35  C   UNL d   1      23.452 -16.486  -0.524  0.00  0.00     0.040 C 
ATOM     36  C   UNL d   1      23.279 -18.938  -0.896  0.00  0.00     0.040 C 
ENDBRANCH  33  34
ENDBRANCH  31  33
ENDBRANCH   5  31
TORSDOF 12
ENDMDL
