MODEL 1
REMARK VINA RESULT:    -9.400      0.000      0.000
REMARK INTER + INTRA:         -15.340
REMARK INTER:                 -13.576
REMARK INTRA:                  -1.764
REMARK CONF_INDEPENDENT:        4.176
REMARK UNBOUND:                -1.764
REMARK  14 active torsions:
REMARK  status: ('A' for Active; 'I' for Inactive)
REMARK    1  A    between atoms: O_2  and  C_3 
REMARK    2  A    between atoms: C_6  and  N_7 
REMARK    3  A    between atoms: N_7  and  S_8 
REMARK    4  A    between atoms: S_8  and  C_11 
REMARK    5  A    between atoms: C_14  and  N_15 
REMARK       I    between atoms: N_15  and  C_16 
REMARK    6  A    between atoms: C_16  and  C_18 
REMARK    7  A    between atoms: C_18  and  C_19 
REMARK    8  A    between atoms: C_19  and  C_20 
REMARK    9  A    between atoms: C_20  and  C_21 
REMARK   10  A    between atoms: C_21  and  O_23 
REMARK   11  A    between atoms: O_23  and  C_24 
REMARK   12  A    between atoms: C_24  and  C_25 
REMARK   13  A    between atoms: C_25  and  C_26 
REMARK   14  A    between atoms: C_26  and  C_27 
ROOT
ATOM      1  C   UNL d   1      25.219 -16.762  -0.494  0.00  0.00     0.080 A 
ATOM      2  C   UNL d   1      26.059 -17.619   0.231  0.00  0.00     0.027 A 
ATOM      3  C   UNL d   1      27.203 -17.108   0.894  0.00  0.00     0.031 A 
ATOM      4  C   UNL d   1      27.549 -15.752   0.782  0.00  0.00     0.034 A 
ATOM      5  C   UNL d   1      26.668 -14.928   0.069  0.00  0.00     0.031 A 
ATOM      6  C   UNL d   1      25.525 -15.412  -0.563  0.00  0.00     0.027 A 
ENDROOT
BRANCH   4   7
ATOM      7  N   UNL d   1      28.764 -15.247   1.353  0.00  0.00    -0.327 N 
ATOM      8  C   UNL d   1      28.902 -13.956   1.860  0.00  0.00     0.222 C 
ATOM      9  O   UNL d   1      27.992 -13.130   1.918  0.00  0.00    -0.273 OA
ATOM     10  H   UNL d   1      29.583 -15.840   1.302  0.00  0.00     0.169 HD
BRANCH   8  11
ATOM     11  C   UNL d   1      30.283 -13.536   2.361  0.00  0.00     0.103 C 
BRANCH  11  12
ATOM     12  C   UNL d   1      30.768 -14.599   3.374  0.00  0.00     0.019 C 
BRANCH  12  13
ATOM     13  C   UNL d   1      30.317 -14.387   4.817  0.00  0.00     0.111 C 
BRANCH  13  14
ATOM     14  C   UNL d   1      28.800 -14.291   4.884  0.00  0.00     0.258 C 
ATOM     15  O   UNL d   1      28.036 -15.248   4.856  0.00  0.00    -0.265 OA
BRANCH  14  16
ATOM     16  O   UNL d   1      28.388 -12.995   4.978  0.00  0.00    -0.321 OA
BRANCH  16  17
ATOM     17  C   UNL d   1      27.776 -12.684   6.245  0.00  0.00     0.179 C 
BRANCH  17  18
ATOM     18  C   UNL d   1      28.444 -11.447   6.818  0.00  0.00     0.031 C 
BRANCH  18  19
ATOM     19  C   UNL d   1      29.553 -11.786   7.817  0.00  0.00     0.041 C 
BRANCH  19  20
ATOM     20  C   UNL d   1      29.149 -12.805   8.862  0.00  0.00    -0.058 A 
ATOM     21  C   UNL d   1      28.156 -12.552   9.820  0.00  0.00     0.007 A 
ATOM     22  C   UNL d   1      27.965 -13.416  10.894  0.00  0.00     0.001 A 
ATOM     23  C   UNL d   1      28.688 -14.601  10.966  0.00  0.00     0.000 A 
ATOM     24  C   UNL d   1      29.624 -14.906   9.980  0.00  0.00     0.001 A 
ATOM     25  C   UNL d   1      29.858 -14.011   8.935  0.00  0.00     0.007 A 
ENDBRANCH  19  20
ENDBRANCH  18  19
ENDBRANCH  17  18
ENDBRANCH  16  17
ENDBRANCH  14  16
ENDBRANCH  13  14
ENDBRANCH  12  13
ENDBRANCH  11  12
ENDBRANCH   8  11
ENDBRANCH   4   7
BRANCH   1  26
ATOM     26  S   UNL d   1      23.589 -17.264  -1.010  0.00  0.00     0.263 S 
ATOM     27  O   UNL d   1      23.792 -18.258  -2.055  0.00  0.00    -0.200 OA
ATOM     28  O   UNL d   1      22.833 -16.065  -1.277  0.00  0.00    -0.200 OA
BRANCH  26  29
ATOM     29  N   UNL d   1      22.881 -18.039   0.316  0.00  0.00    -0.281 N 
ATOM     30  H   UNL d   1      23.450 -18.210   1.141  0.00  0.00     0.179 HD
BRANCH  29  31
ATOM     31  C   UNL d   1      21.654 -18.777   0.142  0.00  0.00     0.042 A 
ATOM     32  C   UNL d   1      21.001 -19.325   1.252  0.00  0.00     0.033 A 
ATOM     33  C   UNL d   1      19.812 -20.067   1.089  0.00  0.00     0.039 A 
ATOM     34  C   UNL d   1      19.220 -20.205  -0.170  0.00  0.00     0.068 A 
ATOM     35  C   UNL d   1      19.847 -19.630  -1.265  0.00  0.00     0.039 A 
ATOM     36  C   UNL d   1      21.041 -18.922  -1.106  0.00  0.00     0.033 A 
BRANCH  34  37
ATOM     37  O   UNL d   1      17.998 -20.819  -0.214  0.00  0.00    -0.356 OA
ATOM     38  C   UNL d   1      17.630 -21.580   0.936  0.00  0.00     0.210 C 
ENDBRANCH  34  37
ENDBRANCH  29  31
ENDBRANCH  26  29
ENDBRANCH   1  26
TORSDOF 14
ENDMDL
MODEL 2
REMARK VINA RESULT:    -8.246      3.258     10.467
REMARK INTER + INTRA:         -15.563
REMARK INTER:                 -12.422
REMARK INTRA:                  -3.141
REMARK CONF_INDEPENDENT:        4.176
REMARK UNBOUND:                -3.141
REMARK  14 active torsions:
REMARK  status: ('A' for Active; 'I' for Inactive)
REMARK    1  A    between atoms: O_2  and  C_3 
REMARK    2  A    between atoms: C_6  and  N_7 
REMARK    3  A    between atoms: N_7  and  S_8 
REMARK    4  A    between atoms: S_8  and  C_11 
REMARK    5  A    between atoms: C_14  and  N_15 
REMARK       I    between atoms: N_15  and  C_16 
REMARK    6  A    between atoms: C_16  and  C_18 
REMARK    7  A    between atoms: C_18  and  C_19 
REMARK    8  A    between atoms: C_19  and  C_20 
REMARK    9  A    between atoms: C_20  and  C_21 
REMARK   10  A    between atoms: C_21  and  O_23 
REMARK   11  A    between atoms: O_23  and  C_24 
REMARK   12  A    between atoms: C_24  and  C_25 
REMARK   13  A    between atoms: C_25  and  C_26 
REMARK   14  A    between atoms: C_26  and  C_27 
ROOT
ATOM      1  C   UNL d   1      28.249 -13.837   3.003  0.00  0.00     0.080 A 
ATOM      2  C   UNL d   1      27.023 -13.222   2.714  0.00  0.00     0.027 A 
ATOM      3  C   UNL d   1      26.554 -13.151   1.377  0.00  0.00     0.031 A 
ATOM      4  C   UNL d   1      27.338 -13.636   0.318  0.00  0.00     0.034 A 
ATOM      5  C   UNL d   1      28.545 -14.263   0.655  0.00  0.00     0.031 A 
ATOM      6  C   UNL d   1      29.003 -14.365   1.967  0.00  0.00     0.027 A 
ENDROOT
BRANCH   4   7
ATOM      7  N   UNL d   1      26.928 -13.468  -1.046  0.00  0.00    -0.327 N 
ATOM      8  C   UNL d   1      27.101 -12.287  -1.766  0.00  0.00     0.222 C 
ATOM      9  O   UNL d   1      27.662 -11.283  -1.331  0.00  0.00    -0.273 OA
ATOM     10  H   UNL d   1      26.410 -14.227  -1.473  0.00  0.00     0.169 HD
BRANCH   8  11
ATOM     11  C   UNL d   1      26.537 -12.235  -3.185  0.00  0.00     0.103 C 
BRANCH  11  12
ATOM     12  C   UNL d   1      25.249 -13.089  -3.220  0.00  0.00     0.019 C 
BRANCH  12  13
ATOM     13  C   UNL d   1      25.165 -14.108  -4.354  0.00  0.00     0.111 C 
BRANCH  13  14
ATOM     14  C   UNL d   1      26.202 -15.203  -4.154  0.00  0.00     0.258 C 
ATOM     15  O   UNL d   1      27.001 -15.576  -5.005  0.00  0.00    -0.265 OA
BRANCH  14  16
ATOM     16  O   UNL d   1      26.134 -15.728  -2.897  0.00  0.00    -0.321 OA
BRANCH  16  17
ATOM     17  C   UNL d   1      27.409 -16.178  -2.399  0.00  0.00     0.179 C 
BRANCH  17  18
ATOM     18  C   UNL d   1      27.174 -17.070  -1.194  0.00  0.00     0.031 C 
BRANCH  18  19
ATOM     19  C   UNL d   1      26.082 -16.531  -0.267  0.00  0.00     0.041 C 
BRANCH  19  20
ATOM     20  C   UNL d   1      24.711 -17.117  -0.525  0.00  0.00    -0.058 A 
ATOM     21  C   UNL d   1      23.598 -16.324  -0.843  0.00  0.00     0.007 A 
ATOM     22  C   UNL d   1      22.316 -16.866  -0.856  0.00  0.00     0.001 A 
ATOM     23  C   UNL d   1      22.140 -18.232  -0.662  0.00  0.00     0.000 A 
ATOM     24  C   UNL d   1      23.244 -19.048  -0.423  0.00  0.00     0.001 A 
ATOM     25  C   UNL d   1      24.523 -18.494  -0.349  0.00  0.00     0.007 A 
ENDBRANCH  19  20
ENDBRANCH  18  19
ENDBRANCH  17  18
ENDBRANCH  16  17
ENDBRANCH  14  16
ENDBRANCH  13  14
ENDBRANCH  12  13
ENDBRANCH  11  12
ENDBRANCH   8  11
ENDBRANCH   4   7
BRANCH   1  26
ATOM     26  S   UNL d   1      28.697 -14.296   4.665  0.00  0.00     0.263 S 
ATOM     27  O   UNL d   1      30.058 -14.808   4.582  0.00  0.00    -0.200 OA
ATOM     28  O   UNL d   1      27.635 -15.122   5.185  0.00  0.00    -0.200 OA
BRANCH  26  29
ATOM     29  N   UNL d   1      28.732 -12.866   5.568  0.00  0.00    -0.281 N 
ATOM     30  H   UNL d   1      28.963 -11.997   5.094  0.00  0.00     0.179 HD
BRANCH  29  31
ATOM     31  C   UNL d   1      28.823 -12.931   7.006  0.00  0.00     0.042 A 
ATOM     32  C   UNL d   1      29.343 -14.074   7.626  0.00  0.00     0.033 A 
ATOM     33  C   UNL d   1      29.415 -14.156   9.032  0.00  0.00     0.039 A 
ATOM     34  C   UNL d   1      29.043 -13.073   9.833  0.00  0.00     0.068 A 
ATOM     35  C   UNL d   1      28.564 -11.926   9.218  0.00  0.00     0.039 A 
ATOM     36  C   UNL d   1      28.463 -11.858   7.826  0.00  0.00     0.033 A 
BRANCH  34  37
ATOM     37  O   UNL d   1      29.278 -13.188  11.176  0.00  0.00    -0.356 OA
ATOM     38  C   UNL d   1      28.155 -13.526  11.989  0.00  0.00     0.210 C 
ENDBRANCH  34  37
ENDBRANCH  29  31
ENDBRANCH  26  29
ENDBRANCH   1  26
TORSDOF 14
ENDMDL
MODEL 3
REMARK VINA RESULT:    -8.033      5.495      7.474
REMARK INTER + INTRA:         -15.610
REMARK INTER:                 -12.210
REMARK INTRA:                  -3.400
REMARK CONF_INDEPENDENT:        4.176
REMARK UNBOUND:                -3.400
REMARK  14 active torsions:
REMARK  status: ('A' for Active; 'I' for Inactive)
REMARK    1  A    between atoms: O_2  and  C_3 
REMARK    2  A    between atoms: C_6  and  N_7 
REMARK    3  A    between atoms: N_7  and  S_8 
REMARK    4  A    between atoms: S_8  and  C_11 
REMARK    5  A    between atoms: C_14  and  N_15 
REMARK       I    between atoms: N_15  and  C_16 
REMARK    6  A    between atoms: C_16  and  C_18 
REMARK    7  A    between atoms: C_18  and  C_19 
REMARK    8  A    between atoms: C_19  and  C_20 
REMARK    9  A    between atoms: C_20  and  C_21 
REMARK   10  A    between atoms: C_21  and  O_23 
REMARK   11  A    between atoms: O_23  and  C_24 
REMARK   12  A    between atoms: C_24  and  C_25 
REMARK   13  A    between atoms: C_25  and  C_26 
REMARK   14  A    between atoms: C_26  and  C_27 
ROOT
ATOM      1  C   UNL d   1      25.152 -17.140  -0.336  0.00  0.00     0.080 A 
ATOM      2  C   UNL d   1      25.816 -15.918  -0.520  0.00  0.00     0.027 A 
ATOM      3  C   UNL d   1      27.231 -15.855  -0.451  0.00  0.00     0.031 A 
ATOM      4  C   UNL d   1      27.984 -16.997  -0.134  0.00  0.00     0.034 A 
ATOM      5  C   UNL d   1      27.281 -18.199   0.018  0.00  0.00     0.031 A 
ATOM      6  C   UNL d   1      25.894 -18.281  -0.076  0.00  0.00     0.027 A 
ENDROOT
BRANCH   4   7
ATOM      7  N   UNL d   1      29.404 -16.921   0.051  0.00  0.00    -0.327 N 
ATOM      8  C   UNL d   1      30.182 -15.841  -0.361  0.00  0.00     0.222 C 
ATOM      9  O   UNL d   1      29.734 -14.820  -0.882  0.00  0.00    -0.273 OA
ATOM     10  H   UNL d   1      29.868 -17.740   0.427  0.00  0.00     0.169 HD
BRANCH   8  11
ATOM     11  C   UNL d   1      31.694 -15.942  -0.168  0.00  0.00     0.103 C 
BRANCH  11  12
ATOM     12  C   UNL d   1      32.340 -16.152  -1.558  0.00  0.00     0.019 C 
BRANCH  12  13
ATOM     13  C   UNL d   1      32.639 -17.601  -1.933  0.00  0.00     0.111 C 
BRANCH  13  14
ATOM     14  C   UNL d   1      31.341 -18.378  -2.103  0.00  0.00     0.258 C 
ATOM     15  O   UNL d   1      30.703 -18.885  -1.188  0.00  0.00    -0.265 OA
BRANCH  14  16
ATOM     16  O   UNL d   1      30.969 -18.444  -3.413  0.00  0.00    -0.321 OA
BRANCH  16  17
ATOM     17  C   UNL d   1      30.732 -17.150  -4.002  0.00  0.00     0.179 C 
BRANCH  17  18
ATOM     18  C   UNL d   1      29.396 -16.627  -3.507  0.00  0.00     0.031 C 
BRANCH  18  19
ATOM     19  C   UNL d   1      28.602 -15.910  -4.601  0.00  0.00     0.041 C 
BRANCH  19  20
ATOM     20  C   UNL d   1      27.444 -15.085  -4.081  0.00  0.00    -0.058 A 
ATOM     21  C   UNL d   1      26.144 -15.198  -4.597  0.00  0.00     0.007 A 
ATOM     22  C   UNL d   1      25.158 -14.278  -4.254  0.00  0.00     0.001 A 
ATOM     23  C   UNL d   1      25.427 -13.297  -3.305  0.00  0.00     0.000 A 
ATOM     24  C   UNL d   1      26.691 -13.219  -2.725  0.00  0.00     0.001 A 
ATOM     25  C   UNL d   1      27.697 -14.104  -3.113  0.00  0.00     0.007 A 
ENDBRANCH  19  20
ENDBRANCH  18  19
ENDBRANCH  17  18
ENDBRANCH  16  17
ENDBRANCH  14  16
ENDBRANCH  13  14
ENDBRANCH  12  13
ENDBRANCH  11  12
ENDBRANCH   8  11
ENDBRANCH   4   7
BRANCH   1  26
ATOM     26  S   UNL d   1      23.443 -17.353  -0.790  0.00  0.00     0.263 S 
ATOM     27  O   UNL d   1      23.449 -18.211  -1.966  0.00  0.00    -0.200 OA
ATOM     28  O   UNL d   1      22.844 -16.042  -0.844  0.00  0.00    -0.200 OA
BRANCH  26  29
ATOM     29  N   UNL d   1      22.711 -18.206   0.474  0.00  0.00    -0.281 N 
ATOM     30  H   UNL d   1      23.277 -18.466   1.278  0.00  0.00     0.179 HD
BRANCH  29  31
ATOM     31  C   UNL d   1      21.454 -18.878   0.250  0.00  0.00     0.042 A 
ATOM     32  C   UNL d   1      20.693 -19.324   1.336  0.00  0.00     0.033 A 
ATOM     33  C   UNL d   1      19.474 -20.002   1.127  0.00  0.00     0.039 A 
ATOM     34  C   UNL d   1      18.962 -20.175  -0.163  0.00  0.00     0.068 A 
ATOM     35  C   UNL d   1      19.698 -19.699  -1.237  0.00  0.00     0.039 A 
ATOM     36  C   UNL d   1      20.921 -19.056  -1.030  0.00  0.00     0.033 A 
BRANCH  34  37
ATOM     37  O   UNL d   1      17.710 -20.716  -0.263  0.00  0.00    -0.356 OA
ATOM     38  C   UNL d   1      17.305 -21.575   0.803  0.00  0.00     0.210 C 
ENDBRANCH  34  37
ENDBRANCH  29  31
ENDBRANCH  26  29
ENDBRANCH   1  26
TORSDOF 14
ENDMDL
MODEL 4
REMARK VINA RESULT:    -7.918      2.054      3.631
REMARK INTER + INTRA:         -14.945
REMARK INTER:                 -12.094
REMARK INTRA:                  -2.851
REMARK CONF_INDEPENDENT:        4.176
REMARK UNBOUND:                -2.851
REMARK  14 active torsions:
REMARK  status: ('A' for Active; 'I' for Inactive)
REMARK    1  A    between atoms: O_2  and  C_3 
REMARK    2  A    between atoms: C_6  and  N_7 
REMARK    3  A    between atoms: N_7  and  S_8 
REMARK    4  A    between atoms: S_8  and  C_11 
REMARK    5  A    between atoms: C_14  and  N_15 
REMARK       I    between atoms: N_15  and  C_16 
REMARK    6  A    between atoms: C_16  and  C_18 
REMARK    7  A    between atoms: C_18  and  C_19 
REMARK    8  A    between atoms: C_19  and  C_20 
REMARK    9  A    between atoms: C_20  and  C_21 
REMARK   10  A    between atoms: C_21  and  O_23 
REMARK   11  A    between atoms: O_23  and  C_24 
REMARK   12  A    between atoms: C_24  and  C_25 
REMARK   13  A    between atoms: C_25  and  C_26 
REMARK   14  A    between atoms: C_26  and  C_27 
ROOT
ATOM      1  C   UNL d   1      25.152 -17.193  -0.342  0.00  0.00     0.080 A 
ATOM      2  C   UNL d   1      25.761 -15.966  -0.641  0.00  0.00     0.027 A 
ATOM      3  C   UNL d   1      27.166 -15.814  -0.516  0.00  0.00     0.031 A 
ATOM      4  C   UNL d   1      27.958 -16.866  -0.031  0.00  0.00     0.034 A 
ATOM      5  C   UNL d   1      27.311 -18.081   0.231  0.00  0.00     0.031 A 
ATOM      6  C   UNL d   1      25.937 -18.252   0.085  0.00  0.00     0.027 A 
ENDROOT
BRANCH   4   7
ATOM      7  N   UNL d   1      29.361 -16.689   0.208  0.00  0.00    -0.327 N 
ATOM      8  C   UNL d   1      30.358 -17.342  -0.515  0.00  0.00     0.222 C 
ATOM      9  O   UNL d   1      30.147 -18.099  -1.462  0.00  0.00    -0.273 OA
ATOM     10  H   UNL d   1      29.630 -16.121   1.003  0.00  0.00     0.169 HD
BRANCH   8  11
ATOM     11  C   UNL d   1      31.807 -17.113  -0.089  0.00  0.00     0.103 C 
BRANCH  11  12
ATOM     12  C   UNL d   1      32.087 -15.593  -0.142  0.00  0.00     0.019 C 
BRANCH  12  13
ATOM     13  C   UNL d   1      32.925 -15.038   1.007  0.00  0.00     0.111 C 
BRANCH  13  14
ATOM     14  C   UNL d   1      32.023 -14.412   2.060  0.00  0.00     0.258 C 
ATOM     15  O   UNL d   1      32.416 -13.780   3.034  0.00  0.00    -0.265 OA
BRANCH  14  16
ATOM     16  O   UNL d   1      30.707 -14.644   1.789  0.00  0.00    -0.321 OA
BRANCH  16  17
ATOM     17  C   UNL d   1      29.872 -13.487   1.990  0.00  0.00     0.179 C 
BRANCH  17  18
ATOM     18  C   UNL d   1      28.445 -13.845   1.617  0.00  0.00     0.031 C 
BRANCH  18  19
ATOM     19  C   UNL d   1      27.675 -14.479   2.777  0.00  0.00     0.041 C 
BRANCH  19  20
ATOM     20  C   UNL d   1      28.124 -14.009   4.145  0.00  0.00    -0.058 A 
ATOM     21  C   UNL d   1      28.751 -14.859   5.067  0.00  0.00     0.007 A 
ATOM     22  C   UNL d   1      28.950 -14.460   6.385  0.00  0.00     0.001 A 
ATOM     23  C   UNL d   1      28.625 -13.164   6.772  0.00  0.00     0.000 A 
ATOM     24  C   UNL d   1      28.072 -12.280   5.847  0.00  0.00     0.001 A 
ATOM     25  C   UNL d   1      27.818 -12.701   4.541  0.00  0.00     0.007 A 
ENDBRANCH  19  20
ENDBRANCH  18  19
ENDBRANCH  17  18
ENDBRANCH  16  17
ENDBRANCH  14  16
ENDBRANCH  13  14
ENDBRANCH  12  13
ENDBRANCH  11  12
ENDBRANCH   8  11
ENDBRANCH   4   7
BRANCH   1  26
ATOM     26  S   UNL d   1      23.482 -17.555  -0.845  0.00  0.00     0.263 S 
ATOM     27  O   UNL d   1      23.584 -18.638  -1.812  0.00  0.00    -0.200 OA
ATOM     28  O   UNL d   1      22.861 -16.305  -1.209  0.00  0.00    -0.200 OA
BRANCH  26  29
ATOM     29  N   UNL d   1      22.685 -18.151   0.523  0.00  0.00    -0.281 N 
ATOM     30  H   UNL d   1      23.218 -18.281   1.379  0.00  0.00     0.179 HD
BRANCH  29  31
ATOM     31  C   UNL d   1      21.414 -18.818   0.376  0.00  0.00     0.042 A 
ATOM     32  C   UNL d   1      20.870 -19.019  -0.898  0.00  0.00     0.033 A 
ATOM     33  C   UNL d   1      19.617 -19.649  -1.051  0.00  0.00     0.039 A 
ATOM     34  C   UNL d   1      18.930 -20.155   0.057  0.00  0.00     0.068 A 
ATOM     35  C   UNL d   1      19.487 -19.989   1.316  0.00  0.00     0.039 A 
ATOM     36  C   UNL d   1      20.713 -19.336   1.468  0.00  0.00     0.033 A 
BRANCH  34  37
ATOM     37  O   UNL d   1      17.794 -20.873  -0.197  0.00  0.00    -0.356 OA
ATOM     38  C   UNL d   1      17.411 -21.824   0.795  0.00  0.00     0.210 C 
ENDBRANCH  34  37
ENDBRANCH  29  31
ENDBRANCH  26  29
ENDBRANCH   1  26
TORSDOF 14
ENDMDL
MODEL 5
REMARK VINA RESULT:    -7.586      5.610      7.832
REMARK INTER + INTRA:         -14.939
REMARK INTER:                 -11.762
REMARK INTRA:                  -3.176
REMARK CONF_INDEPENDENT:        4.176
REMARK UNBOUND:                -3.176
REMARK  14 active torsions:
REMARK  status: ('A' for Active; 'I' for Inactive)
REMARK    1  A    between atoms: O_2  and  C_3 
REMARK    2  A    between atoms: C_6  and  N_7 
REMARK    3  A    between atoms: N_7  and  S_8 
REMARK    4  A    between atoms: S_8  and  C_11 
REMARK    5  A    between atoms: C_14  and  N_15 
REMARK       I    between atoms: N_15  and  C_16 
REMARK    6  A    between atoms: C_16  and  C_18 
REMARK    7  A    between atoms: C_18  and  C_19 
REMARK    8  A    between atoms: C_19  and  C_20 
REMARK    9  A    between atoms: C_20  and  C_21 
REMARK   10  A    between atoms: C_21  and  O_23 
REMARK   11  A    between atoms: O_23  and  C_24 
REMARK   12  A    between atoms: C_24  and  C_25 
REMARK   13  A    between atoms: C_25  and  C_26 
REMARK   14  A    between atoms: C_26  and  C_27 
ROOT
ATOM      1  C   UNL d   1      24.860 -16.272  -1.775  0.00  0.00     0.080 A 
ATOM      2  C   UNL d   1      26.214 -16.595  -1.942  0.00  0.00     0.027 A 
ATOM      3  C   UNL d   1      27.069 -15.736  -2.679  0.00  0.00     0.031 A 
ATOM      4  C   UNL d   1      26.562 -14.587  -3.306  0.00  0.00     0.034 A 
ATOM      5  C   UNL d   1      25.209 -14.291  -3.092  0.00  0.00     0.031 A 
ATOM      6  C   UNL d   1      24.365 -15.111  -2.346  0.00  0.00     0.027 A 
ENDROOT
BRANCH   4   7
ATOM      7  N   UNL d   1      27.390 -13.773  -4.147  0.00  0.00    -0.327 N 
ATOM      8  C   UNL d   1      27.057 -12.479  -4.542  0.00  0.00     0.222 C 
ATOM      9  O   UNL d   1      26.047 -11.879  -4.178  0.00  0.00    -0.273 OA
ATOM     10  H   UNL d   1      28.221 -14.203  -4.537  0.00  0.00     0.169 HD
BRANCH   8  11
ATOM     11  C   UNL d   1      28.004 -11.767  -5.508  0.00  0.00     0.103 C 
BRANCH  11  12
ATOM     12  C   UNL d   1      27.881 -12.451  -6.889  0.00  0.00     0.019 C 
BRANCH  12  13
ATOM     13  C   UNL d   1      28.945 -13.501  -7.201  0.00  0.00     0.111 C 
BRANCH  13  14
ATOM     14  C   UNL d   1      28.588 -14.823  -6.538  0.00  0.00     0.258 C 
ATOM     15  O   UNL d   1      27.447 -15.203  -6.301  0.00  0.00    -0.265 OA
BRANCH  14  16
ATOM     16  O   UNL d   1      29.705 -15.544  -6.233  0.00  0.00    -0.321 OA
BRANCH  16  17
ATOM     17  C   UNL d   1      29.582 -16.291  -5.007  0.00  0.00     0.179 C 
BRANCH  17  18
ATOM     18  C   UNL d   1      30.828 -17.139  -4.828  0.00  0.00     0.031 C 
BRANCH  18  19
ATOM     19  C   UNL d   1      31.518 -16.895  -3.483  0.00  0.00     0.041 C 
BRANCH  19  20
ATOM     20  C   UNL d   1      30.578 -16.454  -2.381  0.00  0.00    -0.058 A 
ATOM     21  C   UNL d   1      30.414 -15.108  -2.022  0.00  0.00     0.007 A 
ATOM     22  C   UNL d   1      29.719 -14.757  -0.869  0.00  0.00     0.001 A 
ATOM     23  C   UNL d   1      29.083 -15.740  -0.117  0.00  0.00     0.000 A 
ATOM     24  C   UNL d   1      29.171 -17.076  -0.503  0.00  0.00     0.001 A 
ATOM     25  C   UNL d   1      29.919 -17.434  -1.626  0.00  0.00     0.007 A 
ENDBRANCH  19  20
ENDBRANCH  18  19
ENDBRANCH  17  18
ENDBRANCH  16  17
ENDBRANCH  14  16
ENDBRANCH  13  14
ENDBRANCH  12  13
ENDBRANCH  11  12
ENDBRANCH   8  11
ENDBRANCH   4   7
BRANCH   1  26
ATOM     26  S   UNL d   1      23.847 -17.089  -0.559  0.00  0.00     0.263 S 
ATOM     27  O   UNL d   1      22.903 -16.084  -0.089  0.00  0.00    -0.200 OA
ATOM     28  O   UNL d   1      24.734 -17.748   0.368  0.00  0.00    -0.200 OA
BRANCH  26  29
ATOM     29  N   UNL d   1      22.973 -18.281  -1.380  0.00  0.00    -0.281 N 
ATOM     30  H   UNL d   1      23.138 -18.407  -2.375  0.00  0.00     0.179 HD
BRANCH  29  31
ATOM     31  C   UNL d   1      21.773 -18.822  -0.790  0.00  0.00     0.042 A 
ATOM     32  C   UNL d   1      21.668 -18.945   0.600  0.00  0.00     0.033 A 
ATOM     33  C   UNL d   1      20.507 -19.493   1.186  0.00  0.00     0.039 A 
ATOM     34  C   UNL d   1      19.409 -19.852   0.399  0.00  0.00     0.068 A 
ATOM     35  C   UNL d   1      19.498 -19.695  -0.976  0.00  0.00     0.039 A 
ATOM     36  C   UNL d   1      20.661 -19.182  -1.557  0.00  0.00     0.033 A 
BRANCH  34  37
ATOM     37  O   UNL d   1      18.276 -20.242   1.060  0.00  0.00    -0.356 OA
ATOM     38  C   UNL d   1      17.977 -21.637   1.035  0.00  0.00     0.210 C 
ENDBRANCH  34  37
ENDBRANCH  29  31
ENDBRANCH  26  29
ENDBRANCH   1  26
TORSDOF 14
ENDMDL
MODEL 6
REMARK VINA RESULT:    -7.475      3.410      7.160
REMARK INTER + INTRA:         -15.417
REMARK INTER:                 -11.651
REMARK INTRA:                  -3.765
REMARK CONF_INDEPENDENT:        4.176
REMARK UNBOUND:                -3.765
REMARK  14 active torsions:
REMARK  status: ('A' for Active; 'I' for Inactive)
REMARK    1  A    between atoms: O_2  and  C_3 
REMARK    2  A    between atoms: C_6  and  N_7 
REMARK    3  A    between atoms: N_7  and  S_8 
REMARK    4  A    between atoms: S_8  and  C_11 
REMARK    5  A    between atoms: C_14  and  N_15 
REMARK       I    between atoms: N_15  and  C_16 
REMARK    6  A    between atoms: C_16  and  C_18 
REMARK    7  A    between atoms: C_18  and  C_19 
REMARK    8  A    between atoms: C_19  and  C_20 
REMARK    9  A    between atoms: C_20  and  C_21 
REMARK   10  A    between atoms: C_21  and  O_23 
REMARK   11  A    between atoms: O_23  and  C_24 
REMARK   12  A    between atoms: C_24  and  C_25 
REMARK   13  A    between atoms: C_25  and  C_26 
REMARK   14  A    between atoms: C_26  and  C_27 
ROOT
ATOM      1  C   UNL d   1      27.492 -15.425  -0.023  0.00  0.00     0.080 A 
ATOM      2  C   UNL d   1      28.787 -15.147   0.436  0.00  0.00     0.027 A 
ATOM      3  C   UNL d   1      29.014 -14.070   1.331  0.00  0.00     0.031 A 
ATOM      4  C   UNL d   1      27.959 -13.228   1.720  0.00  0.00     0.034 A 
ATOM      5  C   UNL d   1      26.679 -13.559   1.257  0.00  0.00     0.031 A 
ATOM      6  C   UNL d   1      26.438 -14.630   0.400  0.00  0.00     0.027 A 
ENDROOT
BRANCH   4   7
ATOM      7  N   UNL d   1      28.195 -12.070   2.532  0.00  0.00    -0.327 N 
ATOM      8  C   UNL d   1      27.876 -11.998   3.887  0.00  0.00     0.222 C 
ATOM      9  O   UNL d   1      27.404 -12.926   4.541  0.00  0.00    -0.273 OA
ATOM     10  H   UNL d   1      28.535 -11.237   2.066  0.00  0.00     0.169 HD
BRANCH   8  11
ATOM     11  C   UNL d   1      28.111 -10.666   4.599  0.00  0.00     0.103 C 
BRANCH  11  12
ATOM     12  C   UNL d   1      28.295  -9.573   3.521  0.00  0.00     0.019 C 
BRANCH  12  13
ATOM     13  C   UNL d   1      27.073  -8.697   3.257  0.00  0.00     0.111 C 
BRANCH  13  14
ATOM     14  C   UNL d   1      26.538  -8.951   1.855  0.00  0.00     0.258 C 
ATOM     15  O   UNL d   1      25.522  -8.447   1.392  0.00  0.00    -0.265 OA
BRANCH  14  16
ATOM     16  O   UNL d   1      27.334  -9.819   1.169  0.00  0.00    -0.321 OA
BRANCH  16  17
ATOM     17  C   UNL d   1      27.198  -9.707  -0.261  0.00  0.00     0.179 C 
BRANCH  17  18
ATOM     18  C   UNL d   1      27.392 -11.079  -0.878  0.00  0.00     0.031 C 
BRANCH  18  19
ATOM     19  C   UNL d   1      27.100 -11.096  -2.381  0.00  0.00     0.041 C 
BRANCH  19  20
ATOM     20  C   UNL d   1      26.817 -12.475  -2.937  0.00  0.00    -0.058 A 
ATOM     21  C   UNL d   1      27.837 -13.359  -3.320  0.00  0.00     0.007 A 
ATOM     22  C   UNL d   1      27.546 -14.521  -4.028  0.00  0.00     0.001 A 
ATOM     23  C   UNL d   1      26.221 -14.872  -4.267  0.00  0.00     0.000 A 
ATOM     24  C   UNL d   1      25.192 -14.044  -3.824  0.00  0.00     0.001 A 
ATOM     25  C   UNL d   1      25.487 -12.848  -3.167  0.00  0.00     0.007 A 
ENDBRANCH  19  20
ENDBRANCH  18  19
ENDBRANCH  17  18
ENDBRANCH  16  17
ENDBRANCH  14  16
ENDBRANCH  13  14
ENDBRANCH  12  13
ENDBRANCH  11  12
ENDBRANCH   8  11
ENDBRANCH   4   7
BRANCH   1  26
ATOM     26  S   UNL d   1      27.092 -16.968  -0.819  0.00  0.00     0.263 S 
ATOM     27  O   UNL d   1      28.319 -17.752  -0.804  0.00  0.00    -0.200 OA
ATOM     28  O   UNL d   1      26.441 -16.653  -2.066  0.00  0.00    -0.200 OA
BRANCH  26  29
ATOM     29  N   UNL d   1      25.965 -17.745   0.174  0.00  0.00    -0.281 N 
ATOM     30  H   UNL d   1      26.301 -18.419   0.857  0.00  0.00     0.179 HD
BRANCH  29  31
ATOM     31  C   UNL d   1      24.570 -17.751  -0.196  0.00  0.00     0.042 A 
ATOM     32  C   UNL d   1      23.838 -18.943  -0.152  0.00  0.00     0.033 A 
ATOM     33  C   UNL d   1      22.480 -18.964  -0.533  0.00  0.00     0.039 A 
ATOM     34  C   UNL d   1      21.817 -17.785  -0.888  0.00  0.00     0.068 A 
ATOM     35  C   UNL d   1      22.533 -16.598  -0.895  0.00  0.00     0.039 A 
ATOM     36  C   UNL d   1      23.887 -16.584  -0.548  0.00  0.00     0.033 A 
BRANCH  34  37
ATOM     37  O   UNL d   1      20.470 -17.876  -1.106  0.00  0.00    -0.356 OA
ATOM     38  C   UNL d   1      19.879 -19.158  -0.893  0.00  0.00     0.210 C 
ENDBRANCH  34  37
ENDBRANCH  29  31
ENDBRANCH  26  29
ENDBRANCH   1  26
TORSDOF 14
ENDMDL
MODEL 7
REMARK VINA RESULT:    -7.461      4.937      6.864
REMARK INTER + INTRA:         -14.978
REMARK INTER:                 -11.637
REMARK INTRA:                  -3.341
REMARK CONF_INDEPENDENT:        4.176
REMARK UNBOUND:                -3.341
REMARK  14 active torsions:
REMARK  status: ('A' for Active; 'I' for Inactive)
REMARK    1  A    between atoms: O_2  and  C_3 
REMARK    2  A    between atoms: C_6  and  N_7 
REMARK    3  A    between atoms: N_7  and  S_8 
REMARK    4  A    between atoms: S_8  and  C_11 
REMARK    5  A    between atoms: C_14  and  N_15 
REMARK       I    between atoms: N_15  and  C_16 
REMARK    6  A    between atoms: C_16  and  C_18 
REMARK    7  A    between atoms: C_18  and  C_19 
REMARK    8  A    between atoms: C_19  and  C_20 
REMARK    9  A    between atoms: C_20  and  C_21 
REMARK   10  A    between atoms: C_21  and  O_23 
REMARK   11  A    between atoms: O_23  and  C_24 
REMARK   12  A    between atoms: C_24  and  C_25 
REMARK   13  A    between atoms: C_25  and  C_26 
REMARK   14  A    between atoms: C_26  and  C_27 
ROOT
ATOM      1  C   UNL d   1      25.204 -17.107  -0.369  0.00  0.00     0.080 A 
ATOM      2  C   UNL d   1      25.888 -15.959  -0.792  0.00  0.00     0.027 A 
ATOM      3  C   UNL d   1      27.298 -15.877  -0.667  0.00  0.00     0.031 A 
ATOM      4  C   UNL d   1      28.023 -16.915  -0.060  0.00  0.00     0.034 A 
ATOM      5  C   UNL d   1      27.303 -18.053   0.325  0.00  0.00     0.031 A 
ATOM      6  C   UNL d   1      25.921 -18.158   0.181  0.00  0.00     0.027 A 
ENDROOT
BRANCH   4   7
ATOM      7  N   UNL d   1      29.433 -16.796   0.175  0.00  0.00    -0.327 N 
ATOM      8  C   UNL d   1      30.401 -17.462  -0.574  0.00  0.00     0.222 C 
ATOM      9  O   UNL d   1      30.159 -18.182  -1.541  0.00  0.00    -0.273 OA
ATOM     10  H   UNL d   1      29.726 -16.262   0.985  0.00  0.00     0.169 HD
BRANCH   8  11
ATOM     11  C   UNL d   1      31.860 -17.299  -0.150  0.00  0.00     0.103 C 
BRANCH  11  12
ATOM     12  C   UNL d   1      32.444 -16.082  -0.904  0.00  0.00     0.019 C 
BRANCH  12  13
ATOM     13  C   UNL d   1      32.396 -14.755  -0.150  0.00  0.00     0.111 C 
BRANCH  13  14
ATOM     14  C   UNL d   1      30.997 -14.515   0.400  0.00  0.00     0.258 C 
ATOM     15  O   UNL d   1      30.720 -14.412   1.589  0.00  0.00    -0.265 OA
BRANCH  14  16
ATOM     16  O   UNL d   1      30.077 -14.428  -0.603  0.00  0.00    -0.321 OA
BRANCH  16  17
ATOM     17  C   UNL d   1      29.255 -13.248  -0.520  0.00  0.00     0.179 C 
BRANCH  17  18
ATOM     18  C   UNL d   1      29.368 -12.483  -1.826  0.00  0.00     0.031 C 
BRANCH  18  19
ATOM     19  C   UNL d   1      28.008 -12.039  -2.369  0.00  0.00     0.041 C 
BRANCH  19  20
ATOM     20  C   UNL d   1      27.222 -13.146  -3.040  0.00  0.00    -0.058 A 
ATOM     21  C   UNL d   1      27.787 -14.001  -3.997  0.00  0.00     0.007 A 
ATOM     22  C   UNL d   1      26.989 -14.856  -4.751  0.00  0.00     0.001 A 
ATOM     23  C   UNL d   1      25.628 -14.949  -4.481  0.00  0.00     0.000 A 
ATOM     24  C   UNL d   1      25.062 -14.163  -3.478  0.00  0.00     0.001 A 
ATOM     25  C   UNL d   1      25.853 -13.262  -2.764  0.00  0.00     0.007 A 
ENDBRANCH  19  20
ENDBRANCH  18  19
ENDBRANCH  17  18
ENDBRANCH  16  17
ENDBRANCH  14  16
ENDBRANCH  13  14
ENDBRANCH  12  13
ENDBRANCH  11  12
ENDBRANCH   8  11
ENDBRANCH   4   7
BRANCH   1  26
ATOM     26  S   UNL d   1      23.518 -17.423  -0.849  0.00  0.00     0.263 S 
ATOM     27  O   UNL d   1      23.593 -18.318  -1.996  0.00  0.00    -0.200 OA
ATOM     28  O   UNL d   1      22.855 -16.147  -0.959  0.00  0.00    -0.200 OA
BRANCH  26  29
ATOM     29  N   UNL d   1      22.804 -18.271   0.427  0.00  0.00    -0.281 N 
ATOM     30  H   UNL d   1      23.392 -18.579   1.197  0.00  0.00     0.179 HD
BRANCH  29  31
ATOM     31  C   UNL d   1      21.506 -18.875   0.247  0.00  0.00     0.042 A 
ATOM     32  C   UNL d   1      21.002 -19.084  -1.042  0.00  0.00     0.033 A 
ATOM     33  C   UNL d   1      19.724 -19.653  -1.229  0.00  0.00     0.039 A 
ATOM     34  C   UNL d   1      18.968 -20.090  -0.137  0.00  0.00     0.068 A 
ATOM     35  C   UNL d   1      19.484 -19.918   1.139  0.00  0.00     0.039 A 
ATOM     36  C   UNL d   1      20.736 -19.325   1.323  0.00  0.00     0.033 A 
BRANCH  34  37
ATOM     37  O   UNL d   1      17.807 -20.756  -0.417  0.00  0.00    -0.356 OA
ATOM     38  C   UNL d   1      17.280 -21.576   0.625  0.00  0.00     0.210 C 
ENDBRANCH  34  37
ENDBRANCH  29  31
ENDBRANCH  26  29
ENDBRANCH   1  26
TORSDOF 14
ENDMDL
MODEL 8
REMARK VINA RESULT:    -7.206      5.988      8.918
REMARK INTER + INTRA:         -14.878
REMARK INTER:                 -11.383
REMARK INTRA:                  -3.495
REMARK CONF_INDEPENDENT:        4.176
REMARK UNBOUND:                -3.495
REMARK  14 active torsions:
REMARK  status: ('A' for Active; 'I' for Inactive)
REMARK    1  A    between atoms: O_2  and  C_3 
REMARK    2  A    between atoms: C_6  and  N_7 
REMARK    3  A    between atoms: N_7  and  S_8 
REMARK    4  A    between atoms: S_8  and  C_11 
REMARK    5  A    between atoms: C_14  and  N_15 
REMARK       I    between atoms: N_15  and  C_16 
REMARK    6  A    between atoms: C_16  and  C_18 
REMARK    7  A    between atoms: C_18  and  C_19 
REMARK    8  A    between atoms: C_19  and  C_20 
REMARK    9  A    between atoms: C_20  and  C_21 
REMARK   10  A    between atoms: C_21  and  O_23 
REMARK   11  A    between atoms: O_23  and  C_24 
REMARK   12  A    between atoms: C_24  and  C_25 
REMARK   13  A    between atoms: C_25  and  C_26 
REMARK   14  A    between atoms: C_26  and  C_27 
ROOT
ATOM      1  C   UNL d   1      28.191 -16.625  -0.746  0.00  0.00     0.080 A 
ATOM      2  C   UNL d   1      27.971 -16.015  -1.989  0.00  0.00     0.027 A 
ATOM      3  C   UNL d   1      28.836 -16.280  -3.081  0.00  0.00     0.031 A 
ATOM      4  C   UNL d   1      29.961 -17.105  -2.918  0.00  0.00     0.034 A 
ATOM      5  C   UNL d   1      30.128 -17.712  -1.667  0.00  0.00     0.031 A 
ATOM      6  C   UNL d   1      29.269 -17.483  -0.594  0.00  0.00     0.027 A 
ENDROOT
BRANCH   4   7
ATOM      7  N   UNL d   1      30.905 -17.290  -3.981  0.00  0.00    -0.327 N 
ATOM      8  C   UNL d   1      30.883 -18.374  -4.856  0.00  0.00     0.222 C 
ATOM      9  O   UNL d   1      30.030 -19.260  -4.844  0.00  0.00    -0.273 OA
ATOM     10  H   UNL d   1      31.677 -16.635  -4.037  0.00  0.00     0.169 HD
BRANCH   8  11
ATOM     11  C   UNL d   1      32.006 -18.476  -5.887  0.00  0.00     0.103 C 
BRANCH  11  12
ATOM     12  C   UNL d   1      32.097 -17.122  -6.630  0.00  0.00     0.019 C 
BRANCH  12  13
ATOM     13  C   UNL d   1      30.821 -16.675  -7.340  0.00  0.00     0.111 C 
BRANCH  13  14
ATOM     14  C   UNL d   1      30.005 -15.768  -6.430  0.00  0.00     0.258 C 
ATOM     15  O   UNL d   1      28.800 -15.572  -6.535  0.00  0.00    -0.265 OA
BRANCH  14  16
ATOM     16  O   UNL d   1      30.786 -15.190  -5.473  0.00  0.00    -0.321 OA
BRANCH  16  17
ATOM     17  C   UNL d   1      30.752 -13.750  -5.505  0.00  0.00     0.179 C 
BRANCH  17  18
ATOM     18  C   UNL d   1      29.851 -13.260  -4.386  0.00  0.00     0.031 C 
BRANCH  18  19
ATOM     19  C   UNL d   1      28.511 -12.729  -4.900  0.00  0.00     0.041 C 
BRANCH  19  20
ATOM     20  C   UNL d   1      27.304 -13.400  -4.279  0.00  0.00    -0.058 A 
ATOM     21  C   UNL d   1      26.795 -14.621  -4.745  0.00  0.00     0.007 A 
ATOM     22  C   UNL d   1      25.565 -15.097  -4.302  0.00  0.00     0.001 A 
ATOM     23  C   UNL d   1      24.878 -14.415  -3.304  0.00  0.00     0.000 A 
ATOM     24  C   UNL d   1      25.407 -13.240  -2.773  0.00  0.00     0.001 A 
ATOM     25  C   UNL d   1      26.612 -12.731  -3.261  0.00  0.00     0.007 A 
ENDBRANCH  19  20
ENDBRANCH  18  19
ENDBRANCH  17  18
ENDBRANCH  16  17
ENDBRANCH  14  16
ENDBRANCH  13  14
ENDBRANCH  12  13
ENDBRANCH  11  12
ENDBRANCH   8  11
ENDBRANCH   4   7
BRANCH   1  26
ATOM     26  S   UNL d   1      26.941 -16.639   0.524  0.00  0.00     0.263 S 
ATOM     27  O   UNL d   1      27.395 -15.697   1.537  0.00  0.00    -0.200 OA
ATOM     28  O   UNL d   1      26.691 -18.017   0.866  0.00  0.00    -0.200 OA
BRANCH  26  29
ATOM     29  N   UNL d   1      25.535 -16.014  -0.177  0.00  0.00    -0.281 N 
ATOM     30  H   UNL d   1      25.386 -15.009  -0.157  0.00  0.00     0.179 HD
BRANCH  29  31
ATOM     31  C   UNL d   1      24.416 -16.888  -0.434  0.00  0.00     0.042 A 
ATOM     32  C   UNL d   1      23.143 -16.350  -0.661  0.00  0.00     0.033 A 
ATOM     33  C   UNL d   1      22.038 -17.196  -0.892  0.00  0.00     0.039 A 
ATOM     34  C   UNL d   1      22.202 -18.582  -0.975  0.00  0.00     0.068 A 
ATOM     35  C   UNL d   1      23.470 -19.113  -0.788  0.00  0.00     0.039 A 
ATOM     36  C   UNL d   1      24.558 -18.275  -0.528  0.00  0.00     0.033 A 
BRANCH  34  37
ATOM     37  O   UNL d   1      21.105 -19.313  -1.341  0.00  0.00    -0.356 OA
ATOM     38  C   UNL d   1      20.217 -19.690  -0.290  0.00  0.00     0.210 C 
ENDBRANCH  34  37
ENDBRANCH  29  31
ENDBRANCH  26  29
ENDBRANCH   1  26
TORSDOF 14
ENDMDL
MODEL 9
REMARK VINA RESULT:    -6.686      6.282      9.309
REMARK INTER + INTRA:         -15.148
REMARK INTER:                 -10.862
REMARK INTRA:                  -4.285
REMARK CONF_INDEPENDENT:        4.176
REMARK UNBOUND:                -4.285
REMARK  14 active torsions:
REMARK  status: ('A' for Active; 'I' for Inactive)
REMARK    1  A    between atoms: O_2  and  C_3 
REMARK    2  A    between atoms: C_6  and  N_7 
REMARK    3  A    between atoms: N_7  and  S_8 
REMARK    4  A    between atoms: S_8  and  C_11 
REMARK    5  A    between atoms: C_14  and  N_15 
REMARK       I    between atoms: N_15  and  C_16 
REMARK    6  A    between atoms: C_16  and  C_18 
REMARK    7  A    between atoms: C_18  and  C_19 
REMARK    8  A    between atoms: C_19  and  C_20 
REMARK    9  A    between atoms: C_20  and  C_21 
REMARK   10  A    between atoms: C_21  and  O_23 
REMARK   11  A    between atoms: O_23  and  C_24 
REMARK   12  A    between atoms: C_24  and  C_25 
REMARK   13  A    between atoms: C_25  and  C_26 
REMARK   14  A    between atoms: C_26  and  C_27 
ROOT
ATOM      1  C   UNL d   1      26.112 -14.452  -1.880  0.00  0.00     0.080 A 
ATOM      2  C   UNL d   1      25.239 -14.382  -2.974  0.00  0.00     0.027 A 
ATOM      3  C   UNL d   1      25.061 -13.160  -3.671  0.00  0.00     0.031 A 
ATOM      4  C   UNL d   1      25.704 -11.989  -3.238  0.00  0.00     0.034 A 
ATOM      5  C   UNL d   1      26.587 -12.112  -2.157  0.00  0.00     0.031 A 
ATOM      6  C   UNL d   1      26.792 -13.312  -1.481  0.00  0.00     0.027 A 
ENDROOT
BRANCH   4   7
ATOM      7  N   UNL d   1      25.445 -10.725  -3.864  0.00  0.00    -0.327 N 
ATOM      8  C   UNL d   1      25.977  -9.517  -3.417  0.00  0.00     0.222 C 
ATOM      9  O   UNL d   1      26.760  -9.408  -2.474  0.00  0.00    -0.273 OA
ATOM     10  H   UNL d   1      24.770 -10.710  -4.620  0.00  0.00     0.169 HD
BRANCH   8  11
ATOM     11  C   UNL d   1      25.543  -8.242  -4.139  0.00  0.00     0.103 C 
BRANCH  11  12
ATOM     12  C   UNL d   1      24.903  -8.650  -5.487  0.00  0.00     0.019 C 
BRANCH  12  13
ATOM     13  C   UNL d   1      25.886  -8.997  -6.603  0.00  0.00     0.111 C 
BRANCH  13  14
ATOM     14  C   UNL d   1      26.064 -10.505  -6.694  0.00  0.00     0.258 C 
ATOM     15  O   UNL d   1      25.154 -11.324  -6.633  0.00  0.00    -0.265 OA
BRANCH  14  16
ATOM     16  O   UNL d   1      27.376 -10.842  -6.852  0.00  0.00    -0.321 OA
BRANCH  16  17
ATOM     17  C   UNL d   1      28.278  -9.948  -6.170  0.00  0.00     0.179 C 
BRANCH  17  18
ATOM     18  C   UNL d   1      28.752 -10.617  -4.893  0.00  0.00     0.031 C 
BRANCH  18  19
ATOM     19  C   UNL d   1      29.740 -11.756  -5.156  0.00  0.00     0.041 C 
BRANCH  19  20
ATOM     20  C   UNL d   1      29.119 -13.135  -5.103  0.00  0.00    -0.058 A 
ATOM     21  C   UNL d   1      28.106 -13.542  -5.984  0.00  0.00     0.007 A 
ATOM     22  C   UNL d   1      27.407 -14.725  -5.770  0.00  0.00     0.001 A 
ATOM     23  C   UNL d   1      27.784 -15.575  -4.735  0.00  0.00     0.000 A 
ATOM     24  C   UNL d   1      28.840 -15.223  -3.897  0.00  0.00     0.001 A 
ATOM     25  C   UNL d   1      29.502 -14.007  -4.075  0.00  0.00     0.007 A 
ENDBRANCH  19  20
ENDBRANCH  18  19
ENDBRANCH  17  18
ENDBRANCH  16  17
ENDBRANCH  14  16
ENDBRANCH  13  14
ENDBRANCH  12  13
ENDBRANCH  11  12
ENDBRANCH   8  11
ENDBRANCH   4   7
BRANCH   1  26
ATOM     26  S   UNL d   1      26.665 -16.013  -1.223  0.00  0.00     0.263 S 
ATOM     27  O   UNL d   1      27.972 -15.756  -0.635  0.00  0.00    -0.200 OA
ATOM     28  O   UNL d   1      26.514 -16.997  -2.266  0.00  0.00    -0.200 OA
BRANCH  26  29
ATOM     29  N   UNL d   1      25.601 -16.414   0.028  0.00  0.00    -0.281 N 
ATOM     30  H   UNL d   1      25.931 -16.351   0.988  0.00  0.00     0.179 HD
BRANCH  29  31
ATOM     31  C   UNL d   1      24.417 -17.187  -0.260  0.00  0.00     0.042 A 
ATOM     32  C   UNL d   1      23.232 -16.542  -0.632  0.00  0.00     0.033 A 
ATOM     33  C   UNL d   1      22.063 -17.286  -0.895  0.00  0.00     0.039 A 
ATOM     34  C   UNL d   1      22.082 -18.684  -0.865  0.00  0.00     0.068 A 
ATOM     35  C   UNL d   1      23.266 -19.324  -0.534  0.00  0.00     0.039 A 
ATOM     36  C   UNL d   1      24.415 -18.584  -0.243  0.00  0.00     0.033 A 
BRANCH  34  37
ATOM     37  O   UNL d   1      20.943 -19.326  -1.269  0.00  0.00    -0.356 OA
ATOM     38  C   UNL d   1      19.996 -19.638  -0.249  0.00  0.00     0.210 C 
ENDBRANCH  34  37
ENDBRANCH  29  31
ENDBRANCH  26  29
ENDBRANCH   1  26
TORSDOF 14
ENDMDL
