MODEL 1
REMARK VINA RESULT:    -8.028      0.000      0.000
REMARK INTER + INTRA:         -14.325
REMARK INTER:                 -11.011
REMARK INTRA:                  -3.314
REMARK CONF_INDEPENDENT:        2.983
REMARK UNBOUND:                -3.314
REMARK  10 active torsions:
REMARK  status: ('A' for Active; 'I' for Inactive)
REMARK    1  A    between atoms: C_5  and  N_6 
REMARK       I    between atoms: N_6  and  C_7 
REMARK    2  A    between atoms: C_7  and  C_9 
REMARK    3  A    between atoms: C_9  and  C_10 
REMARK    4  A    between atoms: C_10  and  C_11 
REMARK       I    between atoms: C_11  and  N_13 
REMARK    5  A    between atoms: N_13  and  N_14 
REMARK    6  A    between atoms: N_14  and  C_15 
REMARK    7  A    between atoms: C_15  and  N_17 
REMARK       I    between atoms: N_17  and  C_18 
REMARK    8  A    between atoms: C_18  and  C_20 
REMARK    9  A    between atoms: C_20  and  O_21 
REMARK   10  A    between atoms: O_21  and  C_22 
ROOT
ATOM      1  C   UNL d   1      26.384 -10.728  -3.175  0.00  0.00     0.236 C 
ATOM      2  O   UNL d   1      26.624 -11.027  -2.002  0.00  0.00    -0.272 OA
ATOM      3  N   UNL d   1      25.818  -9.507  -3.516  0.00  0.00    -0.268 N 
ATOM      4  H   UNL d   1      25.612  -9.239  -4.482  0.00  0.00     0.190 HD
ENDROOT
BRANCH   3   5
ATOM      5  N   UNL d   1      25.472  -8.502  -2.501  0.00  0.00    -0.273 N 
ATOM      6  H   UNL d   1      24.526  -8.134  -2.591  0.00  0.00     0.189 HD
BRANCH   5   7
ATOM      7  C   UNL d   1      26.432  -8.143  -1.531  0.00  0.00     0.193 C 
ATOM      8  S   UNL d   1      27.535  -6.916  -1.899  0.00  0.00    -0.039 SA
BRANCH   7   9
ATOM      9  N   UNL d   1      26.387  -8.863  -0.300  0.00  0.00    -0.301 N 
ATOM     10  C   UNL d   1      25.746  -8.435   0.898  0.00  0.00     0.248 C 
ATOM     11  O   UNL d   1      25.157  -7.356   0.981  0.00  0.00    -0.271 OA
ATOM     12  H   UNL d   1      26.848  -9.762  -0.277  0.00  0.00     0.171 HD
BRANCH  10  13
ATOM     13  C   UNL d   1      25.784  -9.344   2.171  0.00  0.00     0.278 C 
BRANCH  13  14
ATOM     14  O   UNL d   1      26.649 -10.475   1.886  0.00  0.00    -0.342 OA
BRANCH  14  15
ATOM     15  C   UNL d   1      27.126 -11.247   2.910  0.00  0.00     0.070 A 
ATOM     16  C   UNL d   1      27.469 -10.582   4.094  0.00  0.00     0.038 A 
ATOM     17  C   UNL d   1      27.993 -11.286   5.187  0.00  0.00     0.022 A 
ATOM     18  C   UNL d   1      28.208 -12.663   5.099  0.00  0.00     0.017 A 
ATOM     19 BR   UNL d   1      28.898 -13.531   6.645  0.00  0.00    -0.051 Br
ATOM     20  C   UNL d   1      27.917 -13.341   3.907  0.00  0.00    -0.042 A 
ATOM     21  C   UNL d   1      28.135 -14.817   3.717  0.00  0.00     0.049 C 
ATOM     22  C   UNL d   1      27.384 -12.613   2.814  0.00  0.00     0.044 A 
ENDBRANCH  14  15
ENDBRANCH  13  14
ENDBRANCH  10  13
ENDBRANCH   7   9
ENDBRANCH   5   7
ENDBRANCH   3   5
BRANCH   1  23
ATOM     23  C   UNL d   1      26.693 -11.676  -4.342  0.00  0.00     0.114 C 
BRANCH  23  24
ATOM     24  C   UNL d   1      25.509 -12.622  -4.710  0.00  0.00     0.112 C 
BRANCH  24  25
ATOM     25  C   UNL d   1      25.624 -13.938  -3.950  0.00  0.00     0.222 C 
ATOM     26  N   UNL d   1      25.841 -13.870  -2.571  0.00  0.00    -0.327 N 
ATOM     27  H   UNL d   1      25.901 -12.960  -2.127  0.00  0.00     0.169 HD
ATOM     28  O   UNL d   1      25.516 -14.984  -4.599  0.00  0.00    -0.273 OA
BRANCH  26  29
ATOM     29  C   UNL d   1      25.959 -15.013  -1.707  0.00  0.00     0.035 A 
ATOM     30  C   UNL d   1      27.109 -15.237  -0.949  0.00  0.00     0.030 A 
ATOM     31  C   UNL d   1      27.264 -16.355  -0.139  0.00  0.00     0.009 A 
ATOM     32  C   UNL d   1      26.255 -17.305  -0.035  0.00  0.00    -0.056 A 
ATOM     33  C   UNL d   1      26.497 -18.500   0.844  0.00  0.00     0.049 C 
ATOM     34  C   UNL d   1      25.059 -17.102  -0.752  0.00  0.00    -0.054 A 
ATOM     35  C   UNL d   1      24.922 -15.958  -1.591  0.00  0.00     0.037 A 
ATOM     36  C   UNL d   1      23.936 -18.099  -0.616  0.00  0.00     0.049 C 
ENDBRANCH  26  29
ENDBRANCH  24  25
ENDBRANCH  23  24
ENDBRANCH   1  23
TORSDOF 10
ENDMDL
MODEL 2
REMARK VINA RESULT:    -7.555      3.644      4.651
REMARK INTER + INTRA:         -14.791
REMARK INTER:                 -10.538
REMARK INTRA:                  -4.253
REMARK CONF_INDEPENDENT:        2.983
REMARK UNBOUND:                -4.253
REMARK  10 active torsions:
REMARK  status: ('A' for Active; 'I' for Inactive)
REMARK    1  A    between atoms: C_5  and  N_6 
REMARK       I    between atoms: N_6  and  C_7 
REMARK    2  A    between atoms: C_7  and  C_9 
REMARK    3  A    between atoms: C_9  and  C_10 
REMARK    4  A    between atoms: C_10  and  C_11 
REMARK       I    between atoms: C_11  and  N_13 
REMARK    5  A    between atoms: N_13  and  N_14 
REMARK    6  A    between atoms: N_14  and  C_15 
REMARK    7  A    between atoms: C_15  and  N_17 
REMARK       I    between atoms: N_17  and  C_18 
REMARK    8  A    between atoms: C_18  and  C_20 
REMARK    9  A    between atoms: C_20  and  O_21 
REMARK   10  A    between atoms: O_21  and  C_22 
ROOT
ATOM      1  C   UNL d   1      28.800 -15.092  -4.177  0.00  0.00     0.236 C 
ATOM      2  O   UNL d   1      28.810 -16.177  -4.764  0.00  0.00    -0.272 OA
ATOM      3  N   UNL d   1      29.075 -14.991  -2.820  0.00  0.00    -0.268 N 
ATOM      4  H   UNL d   1      29.072 -14.101  -2.316  0.00  0.00     0.190 HD
ENDROOT
BRANCH   3   5
ATOM      5  N   UNL d   1      29.393 -16.172  -2.004  0.00  0.00    -0.273 N 
ATOM      6  H   UNL d   1      29.150 -17.057  -2.447  0.00  0.00     0.189 HD
BRANCH   5   7
ATOM      7  C   UNL d   1      29.976 -15.993  -0.732  0.00  0.00     0.193 C 
ATOM      8  S   UNL d   1      31.602 -16.404  -0.521  0.00  0.00    -0.039 SA
BRANCH   7   9
ATOM      9  N   UNL d   1      29.124 -15.471   0.286  0.00  0.00    -0.301 N 
ATOM     10  C   UNL d   1      28.288 -14.322   0.172  0.00  0.00     0.248 C 
ATOM     11  O   UNL d   1      28.234 -13.646  -0.857  0.00  0.00    -0.271 OA
ATOM     12  H   UNL d   1      29.107 -15.963   1.168  0.00  0.00     0.171 HD
BRANCH  10  13
ATOM     13  C   UNL d   1      27.406 -13.874   1.384  0.00  0.00     0.278 C 
BRANCH  13  14
ATOM     14  O   UNL d   1      27.677 -14.776   2.490  0.00  0.00    -0.342 OA
BRANCH  14  15
ATOM     15  C   UNL d   1      27.962 -14.272   3.729  0.00  0.00     0.070 A 
ATOM     16  C   UNL d   1      28.253 -15.200   4.737  0.00  0.00     0.038 A 
ATOM     17  C   UNL d   1      28.529 -14.778   6.045  0.00  0.00     0.022 A 
ATOM     18  C   UNL d   1      28.489 -13.421   6.368  0.00  0.00     0.017 A 
ATOM     19 BR   UNL d   1      28.905 -12.947   8.164  0.00  0.00    -0.051 Br
ATOM     20  C   UNL d   1      28.154 -12.477   5.387  0.00  0.00    -0.042 A 
ATOM     21  C   UNL d   1      28.070 -10.999   5.651  0.00  0.00     0.049 C 
ATOM     22  C   UNL d   1      27.882 -12.923   4.069  0.00  0.00     0.044 A 
ENDBRANCH  14  15
ENDBRANCH  13  14
ENDBRANCH  10  13
ENDBRANCH   7   9
ENDBRANCH   5   7
ENDBRANCH   3   5
BRANCH   1  23
ATOM     23  C   UNL d   1      28.486 -13.774  -4.900  0.00  0.00     0.114 C 
BRANCH  23  24
ATOM     24  C   UNL d   1      26.985 -13.355  -4.815  0.00  0.00     0.112 C 
BRANCH  24  25
ATOM     25  C   UNL d   1      26.158 -14.468  -4.182  0.00  0.00     0.222 C 
ATOM     26  N   UNL d   1      26.185 -14.581  -2.789  0.00  0.00    -0.327 N 
ATOM     27  H   UNL d   1      26.736 -13.919  -2.254  0.00  0.00     0.169 HD
ATOM     28  O   UNL d   1      25.513 -15.201  -4.940  0.00  0.00    -0.273 OA
BRANCH  26  29
ATOM     29  C   UNL d   1      25.454 -15.563  -2.037  0.00  0.00     0.035 A 
ATOM     30  C   UNL d   1      24.059 -15.576  -2.020  0.00  0.00     0.030 A 
ATOM     31  C   UNL d   1      23.329 -16.489  -1.268  0.00  0.00     0.009 A 
ATOM     32  C   UNL d   1      23.970 -17.455  -0.502  0.00  0.00    -0.056 A 
ATOM     33  C   UNL d   1      23.120 -18.398   0.303  0.00  0.00     0.049 C 
ATOM     34  C   UNL d   1      25.378 -17.505  -0.518  0.00  0.00    -0.054 A 
ATOM     35  C   UNL d   1      26.112 -16.552  -1.281  0.00  0.00     0.037 A 
ATOM     36  C   UNL d   1      26.090 -18.575   0.271  0.00  0.00     0.049 C 
ENDBRANCH  26  29
ENDBRANCH  24  25
ENDBRANCH  23  24
ENDBRANCH   1  23
TORSDOF 10
ENDMDL
MODEL 3
REMARK VINA RESULT:    -7.546      3.771      6.027
REMARK INTER + INTRA:         -14.385
REMARK INTER:                 -10.529
REMARK INTRA:                  -3.856
REMARK CONF_INDEPENDENT:        2.983
REMARK UNBOUND:                -3.856
REMARK  10 active torsions:
REMARK  status: ('A' for Active; 'I' for Inactive)
REMARK    1  A    between atoms: C_5  and  N_6 
REMARK       I    between atoms: N_6  and  C_7 
REMARK    2  A    between atoms: C_7  and  C_9 
REMARK    3  A    between atoms: C_9  and  C_10 
REMARK    4  A    between atoms: C_10  and  C_11 
REMARK       I    between atoms: C_11  and  N_13 
REMARK    5  A    between atoms: N_13  and  N_14 
REMARK    6  A    between atoms: N_14  and  C_15 
REMARK    7  A    between atoms: C_15  and  N_17 
REMARK       I    between atoms: N_17  and  C_18 
REMARK    8  A    between atoms: C_18  and  C_20 
REMARK    9  A    between atoms: C_20  and  O_21 
REMARK   10  A    between atoms: O_21  and  C_22 
ROOT
ATOM      1  C   UNL d   1      26.088 -18.336   0.453  0.00  0.00     0.236 C 
ATOM      2  O   UNL d   1      26.492 -18.575   1.594  0.00  0.00    -0.272 OA
ATOM      3  N   UNL d   1      26.945 -17.903  -0.550  0.00  0.00    -0.268 N 
ATOM      4  H   UNL d   1      26.629 -17.700  -1.502  0.00  0.00     0.190 HD
ENDROOT
BRANCH   3   5
ATOM      5  N   UNL d   1      28.381 -17.704  -0.310  0.00  0.00    -0.273 N 
ATOM      6  H   UNL d   1      28.891 -18.566  -0.122  0.00  0.00     0.189 HD
BRANCH   5   7
ATOM      7  C   UNL d   1      28.913 -16.397  -0.354  0.00  0.00     0.193 C 
ATOM      8  S   UNL d   1      29.740 -15.905  -1.744  0.00  0.00    -0.039 SA
BRANCH   7   9
ATOM      9  N   UNL d   1      28.701 -15.591   0.803  0.00  0.00    -0.301 N 
ATOM     10  C   UNL d   1      27.636 -14.664   0.996  0.00  0.00     0.248 C 
ATOM     11  O   UNL d   1      26.773 -14.465   0.139  0.00  0.00    -0.271 OA
ATOM     12  H   UNL d   1      29.365 -15.688   1.559  0.00  0.00     0.171 HD
BRANCH  10  13
ATOM     13  C   UNL d   1      27.540 -13.851   2.329  0.00  0.00     0.278 C 
BRANCH  13  14
ATOM     14  O   UNL d   1      28.690 -14.197   3.147  0.00  0.00    -0.342 OA
BRANCH  14  15
ATOM     15  C   UNL d   1      28.754 -13.781   4.448  0.00  0.00     0.070 A 
ATOM     16  C   UNL d   1      28.861 -14.778   5.425  0.00  0.00     0.038 A 
ATOM     17  C   UNL d   1      28.905 -14.449   6.787  0.00  0.00     0.022 A 
ATOM     18  C   UNL d   1      28.812 -13.116   7.191  0.00  0.00     0.017 A 
ATOM     19 BR   UNL d   1      28.907 -12.769   9.059  0.00  0.00    -0.051 Br
ATOM     20  C   UNL d   1      28.656 -12.104   6.232  0.00  0.00    -0.042 A 
ATOM     21  C   UNL d   1      28.530 -10.646   6.578  0.00  0.00     0.049 C 
ATOM     22  C   UNL d   1      28.619 -12.457   4.860  0.00  0.00     0.044 A 
ENDBRANCH  14  15
ENDBRANCH  13  14
ENDBRANCH  10  13
ENDBRANCH   7   9
ENDBRANCH   5   7
ENDBRANCH   3   5
BRANCH   1  23
ATOM     23  C   UNL d   1      24.614 -18.499   0.056  0.00  0.00     0.114 C 
BRANCH  23  24
ATOM     24  C   UNL d   1      23.943 -17.174  -0.419  0.00  0.00     0.112 C 
BRANCH  24  25
ATOM     25  C   UNL d   1      24.624 -16.655  -1.680  0.00  0.00     0.222 C 
ATOM     26  N   UNL d   1      25.026 -15.316  -1.693  0.00  0.00    -0.327 N 
ATOM     27  H   UNL d   1      24.864 -14.747  -0.869  0.00  0.00     0.169 HD
ATOM     28  O   UNL d   1      24.781 -17.450  -2.613  0.00  0.00    -0.273 OA
BRANCH  26  29
ATOM     29  C   UNL d   1      25.691 -14.675  -2.793  0.00  0.00     0.035 A 
ATOM     30  C   UNL d   1      25.311 -13.408  -3.236  0.00  0.00     0.030 A 
ATOM     31  C   UNL d   1      25.910 -12.784  -4.324  0.00  0.00     0.009 A 
ATOM     32  C   UNL d   1      26.944 -13.402  -5.018  0.00  0.00    -0.056 A 
ATOM     33  C   UNL d   1      27.533 -12.680  -6.198  0.00  0.00     0.049 C 
ATOM     34  C   UNL d   1      27.388 -14.667  -4.584  0.00  0.00    -0.054 A 
ATOM     35  C   UNL d   1      26.752 -15.299  -3.477  0.00  0.00     0.037 A 
ATOM     36  C   UNL d   1      28.538 -15.332  -5.297  0.00  0.00     0.049 C 
ENDBRANCH  26  29
ENDBRANCH  24  25
ENDBRANCH  23  24
ENDBRANCH   1  23
TORSDOF 10
ENDMDL
MODEL 4
REMARK VINA RESULT:    -7.067      3.793      5.098
REMARK INTER + INTRA:         -14.508
REMARK INTER:                 -10.050
REMARK INTRA:                  -4.458
REMARK CONF_INDEPENDENT:        2.983
REMARK UNBOUND:                -4.458
REMARK  10 active torsions:
REMARK  status: ('A' for Active; 'I' for Inactive)
REMARK    1  A    between atoms: C_5  and  N_6 
REMARK       I    between atoms: N_6  and  C_7 
REMARK    2  A    between atoms: C_7  and  C_9 
REMARK    3  A    between atoms: C_9  and  C_10 
REMARK    4  A    between atoms: C_10  and  C_11 
REMARK       I    between atoms: C_11  and  N_13 
REMARK    5  A    between atoms: N_13  and  N_14 
REMARK    6  A    between atoms: N_14  and  C_15 
REMARK    7  A    between atoms: C_15  and  N_17 
REMARK       I    between atoms: N_17  and  C_18 
REMARK    8  A    between atoms: C_18  and  C_20 
REMARK    9  A    between atoms: C_20  and  O_21 
REMARK   10  A    between atoms: O_21  and  C_22 
ROOT
ATOM      1  C   UNL d   1      27.754 -14.355  -5.757  0.00  0.00     0.236 C 
ATOM      2  O   UNL d   1      27.019 -15.306  -6.036  0.00  0.00    -0.272 OA
ATOM      3  N   UNL d   1      29.078 -14.539  -5.382  0.00  0.00    -0.268 N 
ATOM      4  H   UNL d   1      29.702 -13.763  -5.147  0.00  0.00     0.190 HD
ENDROOT
BRANCH   3   5
ATOM      5  N   UNL d   1      29.680 -15.877  -5.295  0.00  0.00    -0.273 N 
ATOM      6  H   UNL d   1      29.799 -16.334  -6.198  0.00  0.00     0.189 HD
BRANCH   5   7
ATOM      7  C   UNL d   1      30.024 -16.397  -4.029  0.00  0.00     0.193 C 
ATOM      8  S   UNL d   1      30.644 -17.967  -3.939  0.00  0.00    -0.039 SA
BRANCH   7   9
ATOM      9  N   UNL d   1      29.813 -15.533  -2.914  0.00  0.00    -0.301 N 
ATOM     10  C   UNL d   1      30.392 -14.243  -2.730  0.00  0.00     0.248 C 
ATOM     11  O   UNL d   1      31.164 -13.745  -3.551  0.00  0.00    -0.271 OA
ATOM     12  H   UNL d   1      29.193 -15.864  -2.188  0.00  0.00     0.171 HD
BRANCH  10  13
ATOM     13  C   UNL d   1      30.059 -13.414  -1.446  0.00  0.00     0.278 C 
BRANCH  13  14
ATOM     14  O   UNL d   1      28.800 -13.903  -0.912  0.00  0.00    -0.342 OA
BRANCH  14  15
ATOM     15  C   UNL d   1      28.608 -13.963   0.441  0.00  0.00     0.070 A 
ATOM     16  C   UNL d   1      27.316 -13.691   0.908  0.00  0.00     0.038 A 
ATOM     17  C   UNL d   1      27.031 -13.701   2.280  0.00  0.00     0.022 A 
ATOM     18  C   UNL d   1      28.044 -13.957   3.207  0.00  0.00     0.017 A 
ATOM     19 BR   UNL d   1      27.551 -13.975   5.044  0.00  0.00    -0.051 Br
ATOM     20  C   UNL d   1      29.355 -14.185   2.764  0.00  0.00    -0.042 A 
ATOM     21  C   UNL d   1      30.509 -14.450   3.691  0.00  0.00     0.049 C 
ATOM     22  C   UNL d   1      29.622 -14.175   1.372  0.00  0.00     0.044 A 
ENDBRANCH  14  15
ENDBRANCH  13  14
ENDBRANCH  10  13
ENDBRANCH   7   9
ENDBRANCH   5   7
ENDBRANCH   3   5
BRANCH   1  23
ATOM     23  C   UNL d   1      27.263 -12.901  -5.804  0.00  0.00     0.114 C 
BRANCH  23  24
ATOM     24  C   UNL d   1      26.485 -12.460  -4.526  0.00  0.00     0.112 C 
BRANCH  24  25
ATOM     25  C   UNL d   1      25.781 -13.655  -3.893  0.00  0.00     0.222 C 
ATOM     26  N   UNL d   1      26.340 -14.192  -2.730  0.00  0.00    -0.327 N 
ATOM     27  H   UNL d   1      27.175 -13.766  -2.344  0.00  0.00     0.169 HD
ATOM     28  O   UNL d   1      24.760 -14.075  -4.448  0.00  0.00    -0.273 OA
BRANCH  26  29
ATOM     29  C   UNL d   1      25.795 -15.307  -2.004  0.00  0.00     0.035 A 
ATOM     30  C   UNL d   1      24.426 -15.575  -2.001  0.00  0.00     0.030 A 
ATOM     31  C   UNL d   1      23.870 -16.621  -1.275  0.00  0.00     0.009 A 
ATOM     32  C   UNL d   1      24.672 -17.470  -0.521  0.00  0.00    -0.056 A 
ATOM     33  C   UNL d   1      24.003 -18.568   0.257  0.00  0.00     0.049 C 
ATOM     34  C   UNL d   1      26.066 -17.262  -0.524  0.00  0.00    -0.054 A 
ATOM     35  C   UNL d   1      26.618 -16.175  -1.261  0.00  0.00     0.037 A 
ATOM     36  C   UNL d   1      26.956 -18.200   0.251  0.00  0.00     0.049 C 
ENDBRANCH  26  29
ENDBRANCH  24  25
ENDBRANCH  23  24
ENDBRANCH   1  23
TORSDOF 10
ENDMDL
MODEL 5
REMARK VINA RESULT:    -7.007      2.272      3.154
REMARK INTER + INTRA:         -14.184
REMARK INTER:                  -9.990
REMARK INTRA:                  -4.194
REMARK CONF_INDEPENDENT:        2.983
REMARK UNBOUND:                -4.194
REMARK  10 active torsions:
REMARK  status: ('A' for Active; 'I' for Inactive)
REMARK    1  A    between atoms: C_5  and  N_6 
REMARK       I    between atoms: N_6  and  C_7 
REMARK    2  A    between atoms: C_7  and  C_9 
REMARK    3  A    between atoms: C_9  and  C_10 
REMARK    4  A    between atoms: C_10  and  C_11 
REMARK       I    between atoms: C_11  and  N_13 
REMARK    5  A    between atoms: N_13  and  N_14 
REMARK    6  A    between atoms: N_14  and  C_15 
REMARK    7  A    between atoms: C_15  and  N_17 
REMARK       I    between atoms: N_17  and  C_18 
REMARK    8  A    between atoms: C_18  and  C_20 
REMARK    9  A    between atoms: C_20  and  O_21 
REMARK   10  A    between atoms: O_21  and  C_22 
ROOT
ATOM      1  C   UNL d   1      27.640 -12.223  -5.771  0.00  0.00     0.236 C 
ATOM      2  O   UNL d   1      28.042 -11.057  -5.796  0.00  0.00    -0.272 OA
ATOM      3  N   UNL d   1      26.514 -12.593  -5.050  0.00  0.00    -0.268 N 
ATOM      4  H   UNL d   1      26.164 -13.555  -5.017  0.00  0.00     0.190 HD
ENDROOT
BRANCH   3   5
ATOM      5  N   UNL d   1      25.735 -11.617  -4.273  0.00  0.00    -0.273 N 
ATOM      6  H   UNL d   1      24.783 -11.485  -4.612  0.00  0.00     0.189 HD
BRANCH   5   7
ATOM      7  C   UNL d   1      26.342 -10.969  -3.176  0.00  0.00     0.193 C 
ATOM      8  S   UNL d   1      26.629  -9.306  -3.275  0.00  0.00    -0.039 SA
BRANCH   7   9
ATOM      9  N   UNL d   1      26.666 -11.793  -2.057  0.00  0.00    -0.301 N 
ATOM     10  C   UNL d   1      27.813 -12.630  -1.937  0.00  0.00     0.248 C 
ATOM     11  O   UNL d   1      28.656 -12.724  -2.830  0.00  0.00    -0.271 OA
ATOM     12  H   UNL d   1      26.025 -11.779  -1.275  0.00  0.00     0.171 HD
BRANCH  10  13
ATOM     13  C   UNL d   1      28.029 -13.476  -0.639  0.00  0.00     0.278 C 
BRANCH  13  14
ATOM     14  O   UNL d   1      26.950 -13.165   0.282  0.00  0.00    -0.342 OA
BRANCH  14  15
ATOM     15  C   UNL d   1      27.200 -13.074   1.624  0.00  0.00     0.070 A 
ATOM     16  C   UNL d   1      27.204 -11.788   2.179  0.00  0.00     0.038 A 
ATOM     17  C   UNL d   1      27.479 -11.594   3.540  0.00  0.00     0.022 A 
ATOM     18  C   UNL d   1      27.782 -12.684   4.358  0.00  0.00     0.017 A 
ATOM     19 BR   UNL d   1      28.114 -12.321   6.196  0.00  0.00    -0.051 Br
ATOM     20  C   UNL d   1      27.830 -13.976   3.813  0.00  0.00    -0.042 A 
ATOM     21  C   UNL d   1      28.166 -15.203   4.616  0.00  0.00     0.049 C 
ATOM     22  C   UNL d   1      27.545 -14.152   2.436  0.00  0.00     0.044 A 
ENDBRANCH  14  15
ENDBRANCH  13  14
ENDBRANCH  10  13
ENDBRANCH   7   9
ENDBRANCH   5   7
ENDBRANCH   3   5
BRANCH   1  23
ATOM     23  C   UNL d   1      28.351 -13.350  -6.535  0.00  0.00     0.114 C 
BRANCH  23  24
ATOM     24  C   UNL d   1      28.850 -14.509  -5.618  0.00  0.00     0.112 C 
BRANCH  24  25
ATOM     25  C   UNL d   1      27.678 -15.149  -4.883  0.00  0.00     0.222 C 
ATOM     26  N   UNL d   1      27.770 -15.257  -3.492  0.00  0.00    -0.327 N 
ATOM     27  H   UNL d   1      28.596 -14.899  -3.025  0.00  0.00     0.169 HD
ATOM     28  O   UNL d   1      26.719 -15.531  -5.561  0.00  0.00    -0.273 OA
BRANCH  26  29
ATOM     29  C   UNL d   1      26.751 -15.820  -2.650  0.00  0.00     0.035 A 
ATOM     30  C   UNL d   1      25.401 -15.521  -2.841  0.00  0.00     0.030 A 
ATOM     31  C   UNL d   1      24.401 -16.019  -2.015  0.00  0.00     0.009 A 
ATOM     32  C   UNL d   1      24.707 -16.867  -0.957  0.00  0.00    -0.056 A 
ATOM     33  C   UNL d   1      23.578 -17.353  -0.091  0.00  0.00     0.049 C 
ATOM     34  C   UNL d   1      26.053 -17.228  -0.748  0.00  0.00    -0.054 A 
ATOM     35  C   UNL d   1      27.068 -16.696  -1.594  0.00  0.00     0.037 A 
ATOM     36  C   UNL d   1      26.399 -18.183   0.367  0.00  0.00     0.049 C 
ENDBRANCH  26  29
ENDBRANCH  24  25
ENDBRANCH  23  24
ENDBRANCH   1  23
TORSDOF 10
ENDMDL
MODEL 6
REMARK VINA RESULT:    -6.756      4.552      6.822
REMARK INTER + INTRA:         -14.512
REMARK INTER:                  -9.739
REMARK INTRA:                  -4.772
REMARK CONF_INDEPENDENT:        2.983
REMARK UNBOUND:                -4.772
REMARK  10 active torsions:
REMARK  status: ('A' for Active; 'I' for Inactive)
REMARK    1  A    between atoms: C_5  and  N_6 
REMARK       I    between atoms: N_6  and  C_7 
REMARK    2  A    between atoms: C_7  and  C_9 
REMARK    3  A    between atoms: C_9  and  C_10 
REMARK    4  A    between atoms: C_10  and  C_11 
REMARK       I    between atoms: C_11  and  N_13 
REMARK    5  A    between atoms: N_13  and  N_14 
REMARK    6  A    between atoms: N_14  and  C_15 
REMARK    7  A    between atoms: C_15  and  N_17 
REMARK       I    between atoms: N_17  and  C_18 
REMARK    8  A    between atoms: C_18  and  C_20 
REMARK    9  A    between atoms: C_20  and  O_21 
REMARK   10  A    between atoms: O_21  and  C_22 
ROOT
ATOM      1  C   UNL d   1      31.938 -15.609   2.032  0.00  0.00     0.236 C 
ATOM      2  O   UNL d   1      33.045 -15.152   2.327  0.00  0.00    -0.272 OA
ATOM      3  N   UNL d   1      30.781 -15.196   2.678  0.00  0.00    -0.268 N 
ATOM      4  H   UNL d   1      29.854 -15.563   2.448  0.00  0.00     0.190 HD
ENDROOT
BRANCH   3   5
ATOM      5  N   UNL d   1      30.808 -14.191   3.751  0.00  0.00    -0.273 N 
ATOM      6  H   UNL d   1      31.746 -13.961   4.076  0.00  0.00     0.189 HD
BRANCH   5   7
ATOM      7  C   UNL d   1      29.591 -13.655   4.224  0.00  0.00     0.193 C 
ATOM      8  S   UNL d   1      29.288 -13.677   5.887  0.00  0.00    -0.039 SA
BRANCH   7   9
ATOM      9  N   UNL d   1      28.706 -13.132   3.235  0.00  0.00    -0.301 N 
ATOM     10  C   UNL d   1      27.846 -13.893   2.392  0.00  0.00     0.248 C 
ATOM     11  O   UNL d   1      27.796 -15.123   2.441  0.00  0.00    -0.271 OA
ATOM     12  H   UNL d   1      28.683 -12.127   3.125  0.00  0.00     0.171 HD
BRANCH  10  13
ATOM     13  C   UNL d   1      26.929 -13.168   1.352  0.00  0.00     0.278 C 
BRANCH  13  14
ATOM     14  O   UNL d   1      27.777 -12.656   0.290  0.00  0.00    -0.342 OA
BRANCH  14  15
ATOM     15  C   UNL d   1      27.645 -13.139  -0.983  0.00  0.00     0.070 A 
ATOM     16  C   UNL d   1      28.793 -13.681  -1.575  0.00  0.00     0.038 A 
ATOM     17  C   UNL d   1      28.761 -14.174  -2.887  0.00  0.00     0.022 A 
ATOM     18  C   UNL d   1      27.584 -14.105  -3.635  0.00  0.00     0.017 A 
ATOM     19 BR   UNL d   1      27.634 -14.825  -5.395  0.00  0.00    -0.051 Br
ATOM     20  C   UNL d   1      26.435 -13.523  -3.079  0.00  0.00    -0.042 A 
ATOM     21  C   UNL d   1      25.132 -13.390  -3.818  0.00  0.00     0.049 C 
ATOM     22  C   UNL d   1      26.487 -13.034  -1.750  0.00  0.00     0.044 A 
ENDBRANCH  14  15
ENDBRANCH  13  14
ENDBRANCH  10  13
ENDBRANCH   7   9
ENDBRANCH   5   7
ENDBRANCH   3   5
BRANCH   1  23
ATOM     23  C   UNL d   1      31.755 -16.664   0.932  0.00  0.00     0.114 C 
BRANCH  23  24
ATOM     24  C   UNL d   1      31.295 -16.070  -0.435  0.00  0.00     0.112 C 
BRANCH  24  25
ATOM     25  C   UNL d   1      29.897 -16.565  -0.787  0.00  0.00     0.222 C 
ATOM     26  N   UNL d   1      28.925 -16.519   0.217  0.00  0.00    -0.327 N 
ATOM     27  H   UNL d   1      29.176 -16.151   1.128  0.00  0.00     0.169 HD
ATOM     28  O   UNL d   1      29.709 -16.975  -1.937  0.00  0.00    -0.273 OA
BRANCH  26  29
ATOM     29  C   UNL d   1      27.560 -16.934   0.048  0.00  0.00     0.035 A 
ATOM     30  C   UNL d   1      27.025 -17.994   0.781  0.00  0.00     0.030 A 
ATOM     31  C   UNL d   1      25.720 -18.441   0.606  0.00  0.00     0.009 A 
ATOM     32  C   UNL d   1      24.874 -17.829  -0.310  0.00  0.00    -0.056 A 
ATOM     33  C   UNL d   1      23.483 -18.377  -0.463  0.00  0.00     0.049 C 
ATOM     34  C   UNL d   1      25.358 -16.729  -1.048  0.00  0.00    -0.054 A 
ATOM     35  C   UNL d   1      26.703 -16.294  -0.868  0.00  0.00     0.037 A 
ATOM     36  C   UNL d   1      24.440 -16.024  -2.013  0.00  0.00     0.049 C 
ENDBRANCH  26  29
ENDBRANCH  24  25
ENDBRANCH  23  24
ENDBRANCH   1  23
TORSDOF 10
ENDMDL
MODEL 7
REMARK VINA RESULT:    -6.537      4.032      7.162
REMARK INTER + INTRA:         -14.382
REMARK INTER:                  -9.520
REMARK INTRA:                  -4.861
REMARK CONF_INDEPENDENT:        2.983
REMARK UNBOUND:                -4.861
REMARK  10 active torsions:
REMARK  status: ('A' for Active; 'I' for Inactive)
REMARK    1  A    between atoms: C_5  and  N_6 
REMARK       I    between atoms: N_6  and  C_7 
REMARK    2  A    between atoms: C_7  and  C_9 
REMARK    3  A    between atoms: C_9  and  C_10 
REMARK    4  A    between atoms: C_10  and  C_11 
REMARK       I    between atoms: C_11  and  N_13 
REMARK    5  A    between atoms: N_13  and  N_14 
REMARK    6  A    between atoms: N_14  and  C_15 
REMARK    7  A    between atoms: C_15  and  N_17 
REMARK       I    between atoms: N_17  and  C_18 
REMARK    8  A    between atoms: C_18  and  C_20 
REMARK    9  A    between atoms: C_20  and  O_21 
REMARK   10  A    between atoms: O_21  and  C_22 
ROOT
ATOM      1  C   UNL d   1      27.395 -14.823  -4.802  0.00  0.00     0.236 C 
ATOM      2  O   UNL d   1      26.802 -15.303  -5.771  0.00  0.00    -0.272 OA
ATOM      3  N   UNL d   1      28.627 -15.309  -4.385  0.00  0.00    -0.268 N 
ATOM      4  H   UNL d   1      29.135 -14.925  -3.584  0.00  0.00     0.190 HD
ENDROOT
BRANCH   3   5
ATOM      5  N   UNL d   1      29.295 -16.422  -5.074  0.00  0.00    -0.273 N 
ATOM      6  H   UNL d   1      29.162 -16.421  -6.085  0.00  0.00     0.189 HD
BRANCH   5   7
ATOM      7  C   UNL d   1      30.027 -17.362  -4.317  0.00  0.00     0.193 C 
ATOM      8  S   UNL d   1      31.086 -18.404  -5.124  0.00  0.00    -0.039 SA
BRANCH   7   9
ATOM      9  N   UNL d   1      29.803 -17.349  -2.908  0.00  0.00    -0.301 N 
ATOM     10  C   UNL d   1      30.062 -16.259  -2.028  0.00  0.00     0.248 C 
ATOM     11  O   UNL d   1      30.530 -15.190  -2.423  0.00  0.00    -0.271 OA
ATOM     12  H   UNL d   1      29.420 -18.189  -2.496  0.00  0.00     0.171 HD
BRANCH  10  13
ATOM     13  C   UNL d   1      29.760 -16.401  -0.499  0.00  0.00     0.278 C 
BRANCH  13  14
ATOM     14  O   UNL d   1      28.902 -17.559  -0.319  0.00  0.00    -0.342 OA
BRANCH  14  15
ATOM     15  C   UNL d   1      27.544 -17.424  -0.408  0.00  0.00     0.070 A 
ATOM     16  C   UNL d   1      26.770 -18.340   0.317  0.00  0.00     0.038 A 
ATOM     17  C   UNL d   1      25.370 -18.298   0.265  0.00  0.00     0.022 A 
ATOM     18  C   UNL d   1      24.725 -17.354  -0.537  0.00  0.00     0.017 A 
ATOM     19 BR   UNL d   1      22.823 -17.360  -0.519  0.00  0.00    -0.051 Br
ATOM     20  C   UNL d   1      25.480 -16.458  -1.307  0.00  0.00    -0.042 A 
ATOM     21  C   UNL d   1      24.869 -15.422  -2.211  0.00  0.00     0.049 C 
ATOM     22  C   UNL d   1      26.894 -16.514  -1.238  0.00  0.00     0.044 A 
ENDBRANCH  14  15
ENDBRANCH  13  14
ENDBRANCH  10  13
ENDBRANCH   7   9
ENDBRANCH   5   7
ENDBRANCH   3   5
BRANCH   1  23
ATOM     23  C   UNL d   1      26.820 -13.657  -3.986  0.00  0.00     0.114 C 
BRANCH  23  24
ATOM     24  C   UNL d   1      27.902 -12.840  -3.213  0.00  0.00     0.112 C 
BRANCH  24  25
ATOM     25  C   UNL d   1      27.557 -12.771  -1.730  0.00  0.00     0.222 C 
ATOM     26  N   UNL d   1      28.276 -13.597  -0.861  0.00  0.00    -0.327 N 
ATOM     27  H   UNL d   1      29.001 -14.195  -1.240  0.00  0.00     0.169 HD
ATOM     28  O   UNL d   1      26.664 -11.988  -1.388  0.00  0.00    -0.273 OA
BRANCH  26  29
ATOM     29  C   UNL d   1      28.084 -13.644   0.562  0.00  0.00     0.035 A 
ATOM     30  C   UNL d   1      26.856 -13.326   1.143  0.00  0.00     0.030 A 
ATOM     31  C   UNL d   1      26.657 -13.324   2.518  0.00  0.00     0.009 A 
ATOM     32  C   UNL d   1      27.687 -13.661   3.388  0.00  0.00    -0.056 A 
ATOM     33  C   UNL d   1      27.409 -13.618   4.864  0.00  0.00     0.049 C 
ATOM     34  C   UNL d   1      28.936 -14.027   2.846  0.00  0.00    -0.054 A 
ATOM     35  C   UNL d   1      29.128 -14.008   1.435  0.00  0.00     0.037 A 
ATOM     36  C   UNL d   1      30.052 -14.439   3.772  0.00  0.00     0.049 C 
ENDBRANCH  26  29
ENDBRANCH  24  25
ENDBRANCH  23  24
ENDBRANCH   1  23
TORSDOF 10
ENDMDL
MODEL 8
REMARK VINA RESULT:    -6.339      3.548      5.344
REMARK INTER + INTRA:         -14.200
REMARK INTER:                  -9.322
REMARK INTRA:                  -4.878
REMARK CONF_INDEPENDENT:        2.983
REMARK UNBOUND:                -4.878
REMARK  10 active torsions:
REMARK  status: ('A' for Active; 'I' for Inactive)
REMARK    1  A    between atoms: C_5  and  N_6 
REMARK       I    between atoms: N_6  and  C_7 
REMARK    2  A    between atoms: C_7  and  C_9 
REMARK    3  A    between atoms: C_9  and  C_10 
REMARK    4  A    between atoms: C_10  and  C_11 
REMARK       I    between atoms: C_11  and  N_13 
REMARK    5  A    between atoms: N_13  and  N_14 
REMARK    6  A    between atoms: N_14  and  C_15 
REMARK    7  A    between atoms: C_15  and  N_17 
REMARK       I    between atoms: N_17  and  C_18 
REMARK    8  A    between atoms: C_18  and  C_20 
REMARK    9  A    between atoms: C_20  and  O_21 
REMARK   10  A    between atoms: O_21  and  C_22 
ROOT
ATOM      1  C   UNL d   1      26.442 -11.706  -4.195  0.00  0.00     0.236 C 
ATOM      2  O   UNL d   1      27.586 -12.062  -3.902  0.00  0.00    -0.272 OA
ATOM      3  N   UNL d   1      25.903 -10.516  -3.725  0.00  0.00    -0.268 N 
ATOM      4  H   UNL d   1      24.957 -10.203  -3.957  0.00  0.00     0.190 HD
ENDROOT
BRANCH   3   5
ATOM      5  N   UNL d   1      26.665  -9.612  -2.850  0.00  0.00    -0.273 N 
ATOM      6  H   UNL d   1      26.920  -8.730  -3.291  0.00  0.00     0.189 HD
BRANCH   5   7
ATOM      7  C   UNL d   1      26.970 -10.022  -1.535  0.00  0.00     0.193 C 
ATOM      8  S   UNL d   1      27.080  -8.847  -0.325  0.00  0.00    -0.039 SA
BRANCH   7   9
ATOM      9  N   UNL d   1      27.164 -11.422  -1.339  0.00  0.00    -0.301 N 
ATOM     10  C   UNL d   1      28.006 -12.023  -0.360  0.00  0.00     0.248 C 
ATOM     11  O   UNL d   1      28.675 -11.357   0.432  0.00  0.00    -0.271 OA
ATOM     12  H   UNL d   1      26.653 -12.046  -1.949  0.00  0.00     0.171 HD
BRANCH  10  13
ATOM     13  C   UNL d   1      28.112 -13.582  -0.271  0.00  0.00     0.278 C 
BRANCH  13  14
ATOM     14  O   UNL d   1      27.327 -14.145  -1.356  0.00  0.00    -0.342 OA
BRANCH  14  15
ATOM     15  C   UNL d   1      26.549 -15.248  -1.137  0.00  0.00     0.070 A 
ATOM     16  C   UNL d   1      25.249 -15.217  -1.657  0.00  0.00     0.038 A 
ATOM     17  C   UNL d   1      24.369 -16.290  -1.458  0.00  0.00     0.022 A 
ATOM     18  C   UNL d   1      24.771 -17.398  -0.710  0.00  0.00     0.017 A 
ATOM     19 BR   UNL d   1      23.514 -18.814  -0.520  0.00  0.00    -0.051 Br
ATOM     20  C   UNL d   1      26.051 -17.430  -0.140  0.00  0.00    -0.042 A 
ATOM     21  C   UNL d   1      26.560 -18.574   0.694  0.00  0.00     0.049 C 
ATOM     22  C   UNL d   1      26.928 -16.338  -0.356  0.00  0.00     0.044 A 
ENDBRANCH  14  15
ENDBRANCH  13  14
ENDBRANCH  10  13
ENDBRANCH   7   9
ENDBRANCH   5   7
ENDBRANCH   3   5
BRANCH   1  23
ATOM     23  C   UNL d   1      25.530 -12.546  -5.100  0.00  0.00     0.114 C 
BRANCH  23  24
ATOM     24  C   UNL d   1      25.202 -13.958  -4.522  0.00  0.00     0.112 C 
BRANCH  24  25
ATOM     25  C   UNL d   1      26.324 -14.938  -4.843  0.00  0.00     0.222 C 
ATOM     26  N   UNL d   1      27.500 -14.842  -4.093  0.00  0.00    -0.327 N 
ATOM     27  H   UNL d   1      27.560 -14.142  -3.362  0.00  0.00     0.169 HD
ATOM     28  O   UNL d   1      26.124 -15.758  -5.746  0.00  0.00    -0.273 OA
BRANCH  26  29
ATOM     29  C   UNL d   1      28.644 -15.695  -4.260  0.00  0.00     0.035 A 
ATOM     30  C   UNL d   1      29.206 -16.379  -3.181  0.00  0.00     0.030 A 
ATOM     31  C   UNL d   1      30.336 -17.177  -3.308  0.00  0.00     0.009 A 
ATOM     32  C   UNL d   1      30.955 -17.344  -4.541  0.00  0.00    -0.056 A 
ATOM     33  C   UNL d   1      32.186 -18.204  -4.603  0.00  0.00     0.049 C 
ATOM     34  C   UNL d   1      30.401 -16.704  -5.668  0.00  0.00    -0.054 A 
ATOM     35  C   UNL d   1      29.251 -15.876  -5.517  0.00  0.00     0.037 A 
ATOM     36  C   UNL d   1      31.033 -16.910  -7.021  0.00  0.00     0.049 C 
ENDBRANCH  26  29
ENDBRANCH  24  25
ENDBRANCH  23  24
ENDBRANCH   1  23
TORSDOF 10
ENDMDL
MODEL 9
REMARK VINA RESULT:    -6.288      3.425      5.716
REMARK INTER + INTRA:         -14.214
REMARK INTER:                  -9.271
REMARK INTRA:                  -4.943
REMARK CONF_INDEPENDENT:        2.983
REMARK UNBOUND:                -4.943
REMARK  10 active torsions:
REMARK  status: ('A' for Active; 'I' for Inactive)
REMARK    1  A    between atoms: C_5  and  N_6 
REMARK       I    between atoms: N_6  and  C_7 
REMARK    2  A    between atoms: C_7  and  C_9 
REMARK    3  A    between atoms: C_9  and  C_10 
REMARK    4  A    between atoms: C_10  and  C_11 
REMARK       I    between atoms: C_11  and  N_13 
REMARK    5  A    between atoms: N_13  and  N_14 
REMARK    6  A    between atoms: N_14  and  C_15 
REMARK    7  A    between atoms: C_15  and  N_17 
REMARK       I    between atoms: N_17  and  C_18 
REMARK    8  A    between atoms: C_18  and  C_20 
REMARK    9  A    between atoms: C_20  and  O_21 
REMARK   10  A    between atoms: O_21  and  C_22 
ROOT
ATOM      1  C   UNL d   1      26.766 -17.395   0.489  0.00  0.00     0.236 C 
ATOM      2  O   UNL d   1      26.867 -16.238   0.905  0.00  0.00    -0.272 OA
ATOM      3  N   UNL d   1      27.830 -18.050  -0.116  0.00  0.00    -0.268 N 
ATOM      4  H   UNL d   1      27.766 -19.009  -0.467  0.00  0.00     0.190 HD
ENDROOT
BRANCH   3   5
ATOM      5  N   UNL d   1      29.137 -17.402  -0.297  0.00  0.00    -0.273 N 
ATOM      6  H   UNL d   1      29.892 -17.845   0.225  0.00  0.00     0.189 HD
BRANCH   5   7
ATOM      7  C   UNL d   1      29.236 -16.271  -1.135  0.00  0.00     0.193 C 
ATOM      8  S   UNL d   1      30.155 -16.388  -2.549  0.00  0.00    -0.039 SA
BRANCH   7   9
ATOM      9  N   UNL d   1      28.537 -15.104  -0.705  0.00  0.00    -0.301 N 
ATOM     10  C   UNL d   1      28.724 -13.783  -1.204  0.00  0.00     0.248 C 
ATOM     11  O   UNL d   1      29.547 -13.521  -2.084  0.00  0.00    -0.271 OA
ATOM     12  H   UNL d   1      27.842 -15.226   0.019  0.00  0.00     0.171 HD
BRANCH  10  13
ATOM     13  C   UNL d   1      27.875 -12.602  -0.627  0.00  0.00     0.278 C 
BRANCH  13  14
ATOM     14  O   UNL d   1      26.954 -13.152   0.352  0.00  0.00    -0.342 OA
BRANCH  14  15
ATOM     15  C   UNL d   1      27.213 -13.015   1.688  0.00  0.00     0.070 A 
ATOM     16  C   UNL d   1      27.229 -11.710   2.197  0.00  0.00     0.038 A 
ATOM     17  C   UNL d   1      27.514 -11.469   3.549  0.00  0.00     0.022 A 
ATOM     18  C   UNL d   1      27.814 -12.532   4.404  0.00  0.00     0.017 A 
ATOM     19 BR   UNL d   1      28.159 -12.105   6.225  0.00  0.00    -0.051 Br
ATOM     20  C   UNL d   1      27.849 -13.842   3.905  0.00  0.00    -0.042 A 
ATOM     21  C   UNL d   1      28.181 -15.042   4.749  0.00  0.00     0.049 C 
ATOM     22  C   UNL d   1      27.555 -14.065   2.537  0.00  0.00     0.044 A 
ENDBRANCH  14  15
ENDBRANCH  13  14
ENDBRANCH  10  13
ENDBRANCH   7   9
ENDBRANCH   5   7
ENDBRANCH   3   5
BRANCH   1  23
ATOM     23  C   UNL d   1      25.462 -18.197   0.609  0.00  0.00     0.114 C 
BRANCH  23  24
ATOM     24  C   UNL d   1      24.242 -17.516  -0.085  0.00  0.00     0.112 C 
BRANCH  24  25
ATOM     25  C   UNL d   1      24.665 -16.890  -1.409  0.00  0.00     0.222 C 
ATOM     26  N   UNL d   1      25.317 -15.654  -1.359  0.00  0.00    -0.327 N 
ATOM     27  H   UNL d   1      25.496 -15.230  -0.456  0.00  0.00     0.169 HD
ATOM     28  O   UNL d   1      24.406 -17.513  -2.443  0.00  0.00    -0.273 OA
BRANCH  26  29
ATOM     29  C   UNL d   1      25.791 -14.937  -2.510  0.00  0.00     0.035 A 
ATOM     30  C   UNL d   1      26.530 -15.571  -3.510  0.00  0.00     0.030 A 
ATOM     31  C   UNL d   1      27.035 -14.891  -4.611  0.00  0.00     0.009 A 
ATOM     32  C   UNL d   1      26.805 -13.530  -4.776  0.00  0.00    -0.056 A 
ATOM     33  C   UNL d   1      27.398 -12.853  -5.980  0.00  0.00     0.049 C 
ATOM     34  C   UNL d   1      26.030 -12.854  -3.811  0.00  0.00    -0.054 A 
ATOM     35  C   UNL d   1      25.534 -13.563  -2.679  0.00  0.00     0.037 A 
ATOM     36  C   UNL d   1      25.732 -11.388  -3.996  0.00  0.00     0.049 C 
ENDBRANCH  26  29
ENDBRANCH  24  25
ENDBRANCH  23  24
ENDBRANCH   1  23
TORSDOF 10
ENDMDL
