MODEL 1
REMARK VINA RESULT:    -9.124      0.000      0.000
REMARK INTER + INTRA:         -13.134
REMARK INTER:                 -10.913
REMARK INTRA:                  -2.221
REMARK CONF_INDEPENDENT:        1.790
REMARK UNBOUND:                -2.221
REMARK  6 active torsions:
REMARK  status: ('A' for Active; 'I' for Inactive)
REMARK    1  A    between atoms: O_2  and  C_3 
REMARK    2  A    between atoms: C_6  and  N_7 
REMARK       I    between atoms: N_7  and  C_8 
REMARK    3  A    between atoms: C_12  and  N_13 
REMARK       I    between atoms: N_13  and  C_14 
REMARK    4  A    between atoms: C_14  and  C_16 
REMARK    5  A    between atoms: C_16  and  N_17 
REMARK    6  A    between atoms: C_21  and  C_23 
ROOT
ATOM      1  N   UNL d   1      24.982 -15.420  -1.462  0.00  0.00    -0.323 N 
ATOM      2  C   UNL d   1      26.255 -15.408  -2.009  0.00  0.00     0.240 C 
ATOM      3  O   UNL d   1      26.816 -16.430  -2.395  0.00  0.00    -0.271 OA
ATOM      4  H   UNL d   1      24.359 -14.643  -1.653  0.00  0.00     0.169 HD
ENDROOT
BRANCH   2   5
ATOM      5  C   UNL d   1      26.962 -14.056  -2.063  0.00  0.00     0.240 C 
BRANCH   5   6
ATOM      6  N   UNL d   1      26.363 -13.191  -3.088  0.00  0.00    -0.259 N 
ATOM      7  C   UNL d   1      25.183 -13.398  -3.753  0.00  0.00     0.326 C 
ATOM      8  O   UNL d   1      24.189 -13.959  -3.360  0.00  0.00    -0.247 OA
ATOM      9  N   UNL d   1      25.313 -12.824  -5.013  0.00  0.00    -0.321 N 
ATOM     10  C   UNL d   1      26.369 -11.838  -5.037  0.00  0.00     0.141 C 
ATOM     11  H   UNL d   1      24.669 -13.016  -5.770  0.00  0.00     0.165 HD
ATOM     12  C   UNL d   1      25.714 -10.447  -4.974  0.00  0.00     0.055 C 
ATOM     13  C   UNL d   1      27.057 -12.179  -3.702  0.00  0.00     0.261 C 
ATOM     14  O   UNL d   1      28.088 -11.657  -3.300  0.00  0.00    -0.270 OA
BRANCH  10  15
ATOM     15  C   UNL d   1      27.342 -11.991  -6.204  0.00  0.00    -0.004 A 
ATOM     16  C   UNL d   1      27.629 -10.859  -7.006  0.00  0.00     0.011 A 
ATOM     17  C   UNL d   1      28.465 -10.920  -8.114  0.00  0.00     0.001 A 
ATOM     18  C   UNL d   1      29.132 -12.096  -8.396  0.00  0.00     0.001 A 
ATOM     19  C   UNL d   1      28.919 -13.219  -7.601  0.00  0.00     0.020 A 
ATOM     20  C   UNL d   1      28.028 -13.181  -6.522  0.00  0.00     0.020 A 
ATOM     21 BR   UNL d   1      27.877 -14.825  -5.576  0.00  0.00    -0.050 Br
ENDBRANCH  10  15
ENDBRANCH   5   6
ENDBRANCH   2   5
BRANCH   1  22
ATOM     22  C   UNL d   1      24.418 -16.586  -0.864  0.00  0.00     0.070 C 
ATOM     23  C   UNL d   1      23.124 -16.930  -1.270  0.00  0.00     0.062 C 
ATOM     24  C   UNL d   1      22.376 -17.976  -0.722  0.00  0.00     0.037 C 
ATOM     25  C   UNL d   1      23.059 -18.866   0.105  0.00  0.00     0.032 C 
ATOM     26  C   UNL d   1      24.376 -18.575   0.499  0.00  0.00     0.041 C 
ATOM     27  C   UNL d   1      25.035 -17.405   0.080  0.00  0.00     0.095 C 
BRANCH  24  28
ATOM     28  N   UNL d   1      20.993 -18.171  -0.955  0.00  0.00    -0.327 N 
ATOM     29  C   UNL d   1      20.107 -19.122  -0.519  0.00  0.00     0.218 C 
ATOM     30  C   UNL d   1      20.477 -20.215   0.451  0.00  0.00     0.117 C 
ATOM     31  O   UNL d   1      18.945 -19.081  -0.942  0.00  0.00    -0.274 OA
ATOM     32  H   UNL d   1      20.558 -17.578  -1.659  0.00  0.00     0.169 HD
ENDBRANCH  24  28
BRANCH  27  33
ATOM     33  O   UNL d   1      26.287 -17.248   0.600  0.00  0.00    -0.354 OA
ATOM     34  C   UNL d   1      27.278 -18.201   0.230  0.00  0.00     0.210 C 
ENDBRANCH  27  33
ENDBRANCH   1  22
TORSDOF 6
ENDMDL
MODEL 2
REMARK VINA RESULT:    -8.773      1.787      2.688
REMARK INTER + INTRA:         -13.120
REMARK INTER:                 -10.563
REMARK INTRA:                  -2.557
REMARK CONF_INDEPENDENT:        1.790
REMARK UNBOUND:                -2.557
REMARK  6 active torsions:
REMARK  status: ('A' for Active; 'I' for Inactive)
REMARK    1  A    between atoms: O_2  and  C_3 
REMARK    2  A    between atoms: C_6  and  N_7 
REMARK       I    between atoms: N_7  and  C_8 
REMARK    3  A    between atoms: C_12  and  N_13 
REMARK       I    between atoms: N_13  and  C_14 
REMARK    4  A    between atoms: C_14  and  C_16 
REMARK    5  A    between atoms: C_16  and  N_17 
REMARK    6  A    between atoms: C_21  and  C_23 
ROOT
ATOM      1  N   UNL d   1      25.718 -15.286  -2.225  0.00  0.00    -0.323 N 
ATOM      2  C   UNL d   1      24.851 -14.541  -3.007  0.00  0.00     0.240 C 
ATOM      3  O   UNL d   1      23.649 -14.465  -2.770  0.00  0.00    -0.271 OA
ATOM      4  H   UNL d   1      26.660 -14.942  -2.072  0.00  0.00     0.169 HD
ENDROOT
BRANCH   2   5
ATOM      5  C   UNL d   1      25.456 -13.851  -4.228  0.00  0.00     0.240 C 
BRANCH   5   6
ATOM      6  N   UNL d   1      26.921 -13.969  -4.225  0.00  0.00    -0.259 N 
ATOM      7  C   UNL d   1      27.795 -13.349  -3.372  0.00  0.00     0.326 C 
ATOM      8  O   UNL d   1      27.619 -13.025  -2.223  0.00  0.00    -0.247 OA
ATOM      9  N   UNL d   1      28.981 -13.149  -4.070  0.00  0.00    -0.321 N 
ATOM     10  C   UNL d   1      29.078 -14.033  -5.209  0.00  0.00     0.141 C 
ATOM     11  H   UNL d   1      29.711 -12.529  -3.742  0.00  0.00     0.165 HD
ATOM     12  C   UNL d   1      30.031 -15.181  -4.831  0.00  0.00     0.055 C 
ATOM     13  C   UNL d   1      27.621 -14.527  -5.265  0.00  0.00     0.261 C 
ATOM     14  O   UNL d   1      27.169 -15.255  -6.137  0.00  0.00    -0.270 OA
BRANCH  10  15
ATOM     15  C   UNL d   1      29.466 -13.336  -6.512  0.00  0.00    -0.004 A 
ATOM     16  C   UNL d   1      30.577 -13.825  -7.243  0.00  0.00     0.011 A 
ATOM     17  C   UNL d   1      31.027 -13.223  -8.412  0.00  0.00     0.001 A 
ATOM     18  C   UNL d   1      30.311 -12.172  -8.951  0.00  0.00     0.001 A 
ATOM     19  C   UNL d   1      29.182 -11.695  -8.292  0.00  0.00     0.020 A 
ATOM     20  C   UNL d   1      28.762 -12.256  -7.080  0.00  0.00     0.020 A 
ATOM     21 BR   UNL d   1      27.205 -11.446  -6.343  0.00  0.00    -0.050 Br
ENDBRANCH  10  15
ENDBRANCH   5   6
ENDBRANCH   2   5
BRANCH   1  22
ATOM     22  C   UNL d   1      25.273 -16.373  -1.415  0.00  0.00     0.070 C 
ATOM     23  C   UNL d   1      24.198 -17.120  -1.912  0.00  0.00     0.062 C 
ATOM     24  C   UNL d   1      23.565 -18.153  -1.215  0.00  0.00     0.037 C 
ATOM     25  C   UNL d   1      24.202 -18.611  -0.063  0.00  0.00     0.032 C 
ATOM     26  C   UNL d   1      25.311 -17.911   0.442  0.00  0.00     0.041 C 
ATOM     27  C   UNL d   1      25.805 -16.753  -0.184  0.00  0.00     0.095 C 
BRANCH  24  28
ATOM     28  N   UNL d   1      22.338 -18.739  -1.607  0.00  0.00    -0.327 N 
ATOM     29  C   UNL d   1      21.241 -19.152  -0.895  0.00  0.00     0.218 C 
ATOM     30  C   UNL d   1      21.104 -18.969   0.595  0.00  0.00     0.117 C 
ATOM     31  O   UNL d   1      20.316 -19.701  -1.506  0.00  0.00    -0.274 OA
ATOM     32  H   UNL d   1      22.256 -19.026  -2.581  0.00  0.00     0.169 HD
ENDBRANCH  24  28
BRANCH  27  33
ATOM     33  O   UNL d   1      26.849 -16.163   0.468  0.00  0.00    -0.354 OA
ATOM     34  C   UNL d   1      28.149 -16.328  -0.088  0.00  0.00     0.210 C 
ENDBRANCH  27  33
ENDBRANCH   1  22
TORSDOF 6
ENDMDL
MODEL 3
REMARK VINA RESULT:    -8.474      2.026      2.602
REMARK INTER + INTRA:         -12.230
REMARK INTER:                 -10.263
REMARK INTRA:                  -1.966
REMARK CONF_INDEPENDENT:        1.790
REMARK UNBOUND:                -1.966
REMARK  6 active torsions:
REMARK  status: ('A' for Active; 'I' for Inactive)
REMARK    1  A    between atoms: O_2  and  C_3 
REMARK    2  A    between atoms: C_6  and  N_7 
REMARK       I    between atoms: N_7  and  C_8 
REMARK    3  A    between atoms: C_12  and  N_13 
REMARK       I    between atoms: N_13  and  C_14 
REMARK    4  A    between atoms: C_14  and  C_16 
REMARK    5  A    between atoms: C_16  and  N_17 
REMARK    6  A    between atoms: C_21  and  C_23 
ROOT
ATOM      1  N   UNL d   1      25.554 -15.535  -2.027  0.00  0.00    -0.323 N 
ATOM      2  C   UNL d   1      26.377 -14.547  -1.511  0.00  0.00     0.240 C 
ATOM      3  O   UNL d   1      26.956 -14.666  -0.435  0.00  0.00    -0.271 OA
ATOM      4  H   UNL d   1      25.538 -15.686  -3.030  0.00  0.00     0.169 HD
ENDROOT
BRANCH   2   5
ATOM      5  C   UNL d   1      26.490 -13.260  -2.326  0.00  0.00     0.240 C 
BRANCH   5   6
ATOM      6  N   UNL d   1      26.742 -13.556  -3.743  0.00  0.00    -0.259 N 
ATOM      7  C   UNL d   1      25.976 -14.333  -4.571  0.00  0.00     0.326 C 
ATOM      8  O   UNL d   1      24.782 -14.512  -4.540  0.00  0.00    -0.247 OA
ATOM      9  N   UNL d   1      26.829 -14.908  -5.506  0.00  0.00    -0.321 N 
ATOM     10  C   UNL d   1      28.068 -14.171  -5.612  0.00  0.00     0.141 C 
ATOM     11  H   UNL d   1      26.552 -15.682  -6.096  0.00  0.00     0.165 HD
ATOM     12  C   UNL d   1      27.994 -13.312  -6.887  0.00  0.00     0.055 C 
ATOM     13  C   UNL d   1      27.943 -13.293  -4.352  0.00  0.00     0.261 C 
ATOM     14  O   UNL d   1      28.812 -12.533  -3.949  0.00  0.00    -0.270 OA
BRANCH  10  15
ATOM     15  C   UNL d   1      29.322 -15.041  -5.546  0.00  0.00    -0.004 A 
ATOM     16  C   UNL d   1      30.272 -14.948  -6.594  0.00  0.00     0.011 A 
ATOM     17  C   UNL d   1      31.415 -15.736  -6.637  0.00  0.00     0.001 A 
ATOM     18  C   UNL d   1      31.705 -16.569  -5.574  0.00  0.00     0.001 A 
ATOM     19  C   UNL d   1      30.824 -16.650  -4.499  0.00  0.00     0.020 A 
ATOM     20  C   UNL d   1      29.638 -15.907  -4.481  0.00  0.00     0.020 A 
ATOM     21 BR   UNL d   1      28.574 -16.175  -2.926  0.00  0.00    -0.050 Br
ENDBRANCH  10  15
ENDBRANCH   5   6
ENDBRANCH   2   5
BRANCH   1  22
ATOM     22  C   UNL d   1      24.932 -16.518  -1.201  0.00  0.00     0.070 C 
ATOM     23  C   UNL d   1      23.601 -16.831  -1.501  0.00  0.00     0.062 C 
ATOM     24  C   UNL d   1      22.801 -17.691  -0.743  0.00  0.00     0.037 C 
ATOM     25  C   UNL d   1      23.450 -18.457   0.224  0.00  0.00     0.032 C 
ATOM     26  C   UNL d   1      24.800 -18.200   0.522  0.00  0.00     0.041 C 
ATOM     27  C   UNL d   1      25.524 -17.187  -0.131  0.00  0.00     0.095 C 
BRANCH  24  28
ATOM     28  N   UNL d   1      21.400 -17.818  -0.900  0.00  0.00    -0.327 N 
ATOM     29  C   UNL d   1      20.520 -18.819  -0.577  0.00  0.00     0.218 C 
ATOM     30  C   UNL d   1      20.927 -20.076   0.149  0.00  0.00     0.117 C 
ATOM     31  O   UNL d   1      19.333 -18.683  -0.896  0.00  0.00    -0.274 OA
ATOM     32  H   UNL d   1      20.933 -17.100  -1.451  0.00  0.00     0.169 HD
ENDBRANCH  24  28
BRANCH  27  33
ATOM     33  O   UNL d   1      26.803 -17.031   0.318  0.00  0.00    -0.354 OA
ATOM     34  C   UNL d   1      27.779 -17.961  -0.140  0.00  0.00     0.210 C 
ENDBRANCH  27  33
ENDBRANCH   1  22
TORSDOF 6
ENDMDL
MODEL 4
REMARK VINA RESULT:    -8.383      2.390      3.388
REMARK INTER + INTRA:         -12.366
REMARK INTER:                 -10.173
REMARK INTRA:                  -2.193
REMARK CONF_INDEPENDENT:        1.790
REMARK UNBOUND:                -2.193
REMARK  6 active torsions:
REMARK  status: ('A' for Active; 'I' for Inactive)
REMARK    1  A    between atoms: O_2  and  C_3 
REMARK    2  A    between atoms: C_6  and  N_7 
REMARK       I    between atoms: N_7  and  C_8 
REMARK    3  A    between atoms: C_12  and  N_13 
REMARK       I    between atoms: N_13  and  C_14 
REMARK    4  A    between atoms: C_14  and  C_16 
REMARK    5  A    between atoms: C_16  and  N_17 
REMARK    6  A    between atoms: C_21  and  C_23 
ROOT
ATOM      1  N   UNL d   1      26.197 -15.117  -2.140  0.00  0.00    -0.323 N 
ATOM      2  C   UNL d   1      25.635 -14.561  -3.278  0.00  0.00     0.240 C 
ATOM      3  O   UNL d   1      24.435 -14.639  -3.526  0.00  0.00    -0.271 OA
ATOM      4  H   UNL d   1      26.963 -14.633  -1.684  0.00  0.00     0.169 HD
ENDROOT
BRANCH   2   5
ATOM      5  C   UNL d   1      26.596 -13.882  -4.251  0.00  0.00     0.240 C 
BRANCH   5   6
ATOM      6  N   UNL d   1      27.897 -14.565  -4.266  0.00  0.00    -0.259 N 
ATOM      7  C   UNL d   1      28.893 -14.460  -3.331  0.00  0.00     0.326 C 
ATOM      8  O   UNL d   1      28.790 -14.250  -2.146  0.00  0.00    -0.247 OA
ATOM      9  N   UNL d   1      30.102 -14.648  -3.991  0.00  0.00    -0.321 N 
ATOM     10  C   UNL d   1      29.914 -15.338  -5.247  0.00  0.00     0.141 C 
ATOM     11  H   UNL d   1      30.995 -14.415  -3.575  0.00  0.00     0.165 HD
ATOM     12  C   UNL d   1      30.323 -16.807  -5.041  0.00  0.00     0.055 C 
ATOM     13  C   UNL d   1      28.385 -15.208  -5.375  0.00  0.00     0.261 C 
ATOM     14  O   UNL d   1      27.737 -15.575  -6.345  0.00  0.00    -0.270 OA
BRANCH  10  15
ATOM     15  C   UNL d   1      30.617 -14.680  -6.433  0.00  0.00    -0.004 A 
ATOM     16  C   UNL d   1      31.527 -15.450  -7.199  0.00  0.00     0.011 A 
ATOM     17  C   UNL d   1      32.244 -14.918  -8.264  0.00  0.00     0.001 A 
ATOM     18  C   UNL d   1      31.992 -13.623  -8.671  0.00  0.00     0.001 A 
ATOM     19  C   UNL d   1      31.066 -12.848  -7.978  0.00  0.00     0.020 A 
ATOM     20  C   UNL d   1      30.388 -13.358  -6.864  0.00  0.00     0.020 A 
ATOM     21 BR   UNL d   1      29.178 -12.131  -6.059  0.00  0.00    -0.050 Br
ENDBRANCH  10  15
ENDBRANCH   5   6
ENDBRANCH   2   5
BRANCH   1  22
ATOM     22  C   UNL d   1      25.583 -16.195  -1.434  0.00  0.00     0.070 C 
ATOM     23  C   UNL d   1      24.209 -16.367  -1.634  0.00  0.00     0.062 C 
ATOM     24  C   UNL d   1      23.422 -17.301  -0.954  0.00  0.00     0.037 C 
ATOM     25  C   UNL d   1      24.101 -18.268  -0.214  0.00  0.00     0.032 C 
ATOM     26  C   UNL d   1      25.489 -18.151  -0.027  0.00  0.00     0.041 C 
ATOM     27  C   UNL d   1      26.223 -17.082  -0.570  0.00  0.00     0.095 C 
BRANCH  24  28
ATOM     28  N   UNL d   1      22.007 -17.312  -0.973  0.00  0.00    -0.327 N 
ATOM     29  C   UNL d   1      21.087 -18.303  -0.742  0.00  0.00     0.218 C 
ATOM     30  C   UNL d   1      21.463 -19.697  -0.309  0.00  0.00     0.117 C 
ATOM     31  O   UNL d   1      19.888 -18.038  -0.896  0.00  0.00    -0.274 OA
ATOM     32  H   UNL d   1      21.546 -16.476  -1.327  0.00  0.00     0.169 HD
ENDBRANCH  24  28
BRANCH  27  33
ATOM     33  O   UNL d   1      27.549 -17.087  -0.246  0.00  0.00    -0.354 OA
ATOM     34  C   UNL d   1      28.033 -16.021   0.564  0.00  0.00     0.210 C 
ENDBRANCH  27  33
ENDBRANCH   1  22
TORSDOF 6
ENDMDL
MODEL 5
REMARK VINA RESULT:    -8.355      2.368      3.421
REMARK INTER + INTRA:         -12.368
REMARK INTER:                 -10.145
REMARK INTRA:                  -2.223
REMARK CONF_INDEPENDENT:        1.790
REMARK UNBOUND:                -2.223
REMARK  6 active torsions:
REMARK  status: ('A' for Active; 'I' for Inactive)
REMARK    1  A    between atoms: O_2  and  C_3 
REMARK    2  A    between atoms: C_6  and  N_7 
REMARK       I    between atoms: N_7  and  C_8 
REMARK    3  A    between atoms: C_12  and  N_13 
REMARK       I    between atoms: N_13  and  C_14 
REMARK    4  A    between atoms: C_14  and  C_16 
REMARK    5  A    between atoms: C_16  and  N_17 
REMARK    6  A    between atoms: C_21  and  C_23 
ROOT
ATOM      1  N   UNL d   1      25.845 -15.516  -2.351  0.00  0.00    -0.323 N 
ATOM      2  C   UNL d   1      24.993 -14.704  -3.082  0.00  0.00     0.240 C 
ATOM      3  O   UNL d   1      23.817 -14.535  -2.772  0.00  0.00    -0.271 OA
ATOM      4  H   UNL d   1      26.819 -15.247  -2.257  0.00  0.00     0.169 HD
ENDROOT
BRANCH   2   5
ATOM      5  C   UNL d   1      25.574 -14.062  -4.339  0.00  0.00     0.240 C 
BRANCH   5   6
ATOM      6  N   UNL d   1      26.348 -12.859  -4.004  0.00  0.00    -0.259 N 
ATOM      7  C   UNL d   1      26.713 -12.437  -2.753  0.00  0.00     0.326 C 
ATOM      8  O   UNL d   1      26.948 -13.104  -1.774  0.00  0.00    -0.247 OA
ATOM      9  N   UNL d   1      26.781 -11.049  -2.789  0.00  0.00    -0.321 N 
ATOM     10  C   UNL d   1      26.927 -10.563  -4.142  0.00  0.00     0.141 C 
ATOM     11  H   UNL d   1      26.823 -10.481  -1.951  0.00  0.00     0.165 HD
ATOM     12  C   UNL d   1      28.404 -10.182  -4.345  0.00  0.00     0.055 C 
ATOM     13  C   UNL d   1      26.583 -11.854  -4.907  0.00  0.00     0.261 C 
ATOM     14  O   UNL d   1      26.487 -11.933  -6.124  0.00  0.00    -0.270 OA
BRANCH  10  15
ATOM     15  C   UNL d   1      25.962  -9.438  -4.511  0.00  0.00    -0.004 A 
ATOM     16  C   UNL d   1      25.218  -9.545  -5.713  0.00  0.00     0.011 A 
ATOM     17  C   UNL d   1      24.353  -8.548  -6.147  0.00  0.00     0.001 A 
ATOM     18  C   UNL d   1      24.119  -7.454  -5.338  0.00  0.00     0.001 A 
ATOM     19  C   UNL d   1      24.789  -7.336  -4.124  0.00  0.00     0.020 A 
ATOM     20  C   UNL d   1      25.711  -8.306  -3.711  0.00  0.00     0.020 A 
ATOM     21 BR   UNL d   1      26.521  -7.945  -2.028  0.00  0.00    -0.050 Br
ENDBRANCH  10  15
ENDBRANCH   5   6
ENDBRANCH   2   5
BRANCH   1  22
ATOM     22  C   UNL d   1      25.367 -16.566  -1.511  0.00  0.00     0.070 C 
ATOM     23  C   UNL d   1      24.263 -17.286  -1.983  0.00  0.00     0.062 C 
ATOM     24  C   UNL d   1      23.598 -18.278  -1.257  0.00  0.00     0.037 C 
ATOM     25  C   UNL d   1      24.226 -18.730  -0.098  0.00  0.00     0.032 C 
ATOM     26  C   UNL d   1      25.363 -18.058   0.383  0.00  0.00     0.041 C 
ATOM     27  C   UNL d   1      25.894 -16.935  -0.275  0.00  0.00     0.095 C 
BRANCH  24  28
ATOM     28  N   UNL d   1      22.348 -18.829  -1.627  0.00  0.00    -0.327 N 
ATOM     29  C   UNL d   1      21.240 -19.181  -0.899  0.00  0.00     0.218 C 
ATOM     30  C   UNL d   1      21.119 -18.951   0.586  0.00  0.00     0.117 C 
ATOM     31  O   UNL d   1      20.292 -19.712  -1.490  0.00  0.00    -0.274 OA
ATOM     32  H   UNL d   1      22.250 -19.140  -2.592  0.00  0.00     0.169 HD
ENDBRANCH  24  28
BRANCH  27  33
ATOM     33  O   UNL d   1      26.963 -16.367   0.356  0.00  0.00    -0.354 OA
ATOM     34  C   UNL d   1      28.206 -16.357  -0.338  0.00  0.00     0.210 C 
ENDBRANCH  27  33
ENDBRANCH   1  22
TORSDOF 6
ENDMDL
MODEL 6
REMARK VINA RESULT:    -8.345      2.941      3.941
REMARK INTER + INTRA:         -12.493
REMARK INTER:                 -10.134
REMARK INTRA:                  -2.359
REMARK CONF_INDEPENDENT:        1.790
REMARK UNBOUND:                -2.359
REMARK  6 active torsions:
REMARK  status: ('A' for Active; 'I' for Inactive)
REMARK    1  A    between atoms: O_2  and  C_3 
REMARK    2  A    between atoms: C_6  and  N_7 
REMARK       I    between atoms: N_7  and  C_8 
REMARK    3  A    between atoms: C_12  and  N_13 
REMARK       I    between atoms: N_13  and  C_14 
REMARK    4  A    between atoms: C_14  and  C_16 
REMARK    5  A    between atoms: C_16  and  N_17 
REMARK    6  A    between atoms: C_21  and  C_23 
ROOT
ATOM      1  N   UNL d   1      26.510 -15.941  -3.103  0.00  0.00    -0.323 N 
ATOM      2  C   UNL d   1      25.830 -15.113  -3.982  0.00  0.00     0.240 C 
ATOM      3  O   UNL d   1      24.844 -14.463  -3.646  0.00  0.00    -0.271 OA
ATOM      4  H   UNL d   1      27.518 -16.018  -3.181  0.00  0.00     0.169 HD
ENDROOT
BRANCH   2   5
ATOM      5  C   UNL d   1      26.337 -15.086  -5.422  0.00  0.00     0.240 C 
BRANCH   5   6
ATOM      6  N   UNL d   1      27.708 -14.562  -5.486  0.00  0.00    -0.259 N 
ATOM      7  C   UNL d   1      28.131 -13.439  -6.148  0.00  0.00     0.326 C 
ATOM      8  O   UNL d   1      27.519 -12.421  -6.366  0.00  0.00    -0.247 OA
ATOM      9  N   UNL d   1      29.445 -13.663  -6.542  0.00  0.00    -0.321 N 
ATOM     10  C   UNL d   1      30.060 -14.710  -5.760  0.00  0.00     0.141 C 
ATOM     11  H   UNL d   1      29.918 -13.081  -7.223  0.00  0.00     0.165 HD
ATOM     12  C   UNL d   1      30.971 -14.042  -4.715  0.00  0.00     0.055 C 
ATOM     13  C   UNL d   1      28.800 -15.295  -5.094  0.00  0.00     0.261 C 
ATOM     14  O   UNL d   1      28.791 -16.287  -4.380  0.00  0.00    -0.270 OA
BRANCH  10  15
ATOM     15  C   UNL d   1      30.778 -15.773  -6.590  0.00  0.00    -0.004 A 
ATOM     16  C   UNL d   1      30.420 -17.133  -6.414  0.00  0.00     0.011 A 
ATOM     17  C   UNL d   1      31.054 -18.166  -7.094  0.00  0.00     0.001 A 
ATOM     18  C   UNL d   1      31.997 -17.865  -8.057  0.00  0.00     0.001 A 
ATOM     19  C   UNL d   1      32.339 -16.538  -8.299  0.00  0.00     0.020 A 
ATOM     20  C   UNL d   1      31.751 -15.496  -7.571  0.00  0.00     0.020 A 
ATOM     21 BR   UNL d   1      32.370 -13.763  -8.051  0.00  0.00    -0.050 Br
ENDBRANCH  10  15
ENDBRANCH   5   6
ENDBRANCH   2   5
BRANCH   1  22
ATOM     22  C   UNL d   1      25.894 -16.484  -1.935  0.00  0.00     0.070 C 
ATOM     23  C   UNL d   1      24.523 -16.749  -2.021  0.00  0.00     0.062 C 
ATOM     24  C   UNL d   1      23.734 -17.186  -0.952  0.00  0.00     0.037 C 
ATOM     25  C   UNL d   1      24.411 -17.604   0.192  0.00  0.00     0.032 C 
ATOM     26  C   UNL d   1      25.796 -17.393   0.296  0.00  0.00     0.041 C 
ATOM     27  C   UNL d   1      26.530 -16.770  -0.729  0.00  0.00     0.095 C 
BRANCH  24  28
ATOM     28  N   UNL d   1      22.319 -17.219  -0.971  0.00  0.00    -0.327 N 
ATOM     29  C   UNL d   1      21.415 -18.225  -0.744  0.00  0.00     0.218 C 
ATOM     30  C   UNL d   1      21.813 -19.616  -0.318  0.00  0.00     0.117 C 
ATOM     31  O   UNL d   1      20.213 -17.979  -0.895  0.00  0.00    -0.274 OA
ATOM     32  H   UNL d   1      21.845 -16.389  -1.320  0.00  0.00     0.169 HD
ENDBRANCH  24  28
BRANCH  27  33
ATOM     33  O   UNL d   1      27.853 -16.590  -0.443  0.00  0.00    -0.354 OA
ATOM     34  C   UNL d   1      28.704 -17.728  -0.523  0.00  0.00     0.210 C 
ENDBRANCH  27  33
ENDBRANCH   1  22
TORSDOF 6
ENDMDL
MODEL 7
REMARK VINA RESULT:    -8.061      2.533      4.293
REMARK INTER + INTRA:         -12.703
REMARK INTER:                  -9.851
REMARK INTRA:                  -2.852
REMARK CONF_INDEPENDENT:        1.790
REMARK UNBOUND:                -2.852
REMARK  6 active torsions:
REMARK  status: ('A' for Active; 'I' for Inactive)
REMARK    1  A    between atoms: O_2  and  C_3 
REMARK    2  A    between atoms: C_6  and  N_7 
REMARK       I    between atoms: N_7  and  C_8 
REMARK    3  A    between atoms: C_12  and  N_13 
REMARK       I    between atoms: N_13  and  C_14 
REMARK    4  A    between atoms: C_14  and  C_16 
REMARK    5  A    between atoms: C_16  and  N_17 
REMARK    6  A    between atoms: C_21  and  C_23 
ROOT
ATOM      1  N   UNL d   1      26.047 -14.954  -1.844  0.00  0.00    -0.323 N 
ATOM      2  C   UNL d   1      25.236 -14.317  -2.770  0.00  0.00     0.240 C 
ATOM      3  O   UNL d   1      24.016 -14.457  -2.786  0.00  0.00    -0.271 OA
ATOM      4  H   UNL d   1      26.864 -14.469  -1.491  0.00  0.00     0.169 HD
ENDROOT
BRANCH   2   5
ATOM      5  C   UNL d   1      25.942 -13.461  -3.820  0.00  0.00     0.240 C 
BRANCH   5   6
ATOM      6  N   UNL d   1      27.227 -14.060  -4.207  0.00  0.00    -0.259 N 
ATOM      7  C   UNL d   1      27.430 -15.038  -5.146  0.00  0.00     0.326 C 
ATOM      8  O   UNL d   1      26.796 -15.257  -6.151  0.00  0.00    -0.247 OA
ATOM      9  N   UNL d   1      28.540 -15.771  -4.745  0.00  0.00    -0.321 N 
ATOM     10  C   UNL d   1      29.359 -15.024  -3.817  0.00  0.00     0.141 C 
ATOM     11  H   UNL d   1      28.775 -16.671  -5.146  0.00  0.00     0.165 HD
ATOM     12  C   UNL d   1      30.571 -14.481  -4.595  0.00  0.00     0.055 C 
ATOM     13  C   UNL d   1      28.374 -13.890  -3.476  0.00  0.00     0.261 C 
ATOM     14  O   UNL d   1      28.582 -13.021  -2.641  0.00  0.00    -0.270 OA
BRANCH  10  15
ATOM     15  C   UNL d   1      29.751 -15.801  -2.562  0.00  0.00    -0.004 A 
ATOM     16  C   UNL d   1      29.567 -15.189  -1.297  0.00  0.00     0.011 A 
ATOM     17  C   UNL d   1      29.938 -15.805  -0.108  0.00  0.00     0.001 A 
ATOM     18  C   UNL d   1      30.409 -17.104  -0.135  0.00  0.00     0.001 A 
ATOM     19  C   UNL d   1      30.555 -17.760  -1.354  0.00  0.00     0.020 A 
ATOM     20  C   UNL d   1      30.243 -17.121  -2.560  0.00  0.00     0.020 A 
ATOM     21 BR   UNL d   1      30.527 -18.192  -4.107  0.00  0.00    -0.050 Br
ENDBRANCH  10  15
ENDBRANCH   5   6
ENDBRANCH   2   5
BRANCH   1  22
ATOM     22  C   UNL d   1      25.646 -16.149  -1.174  0.00  0.00     0.070 C 
ATOM     23  C   UNL d   1      24.590 -16.862  -1.751  0.00  0.00     0.062 C 
ATOM     24  C   UNL d   1      23.998 -17.994  -1.184  0.00  0.00     0.037 C 
ATOM     25  C   UNL d   1      24.664 -18.572  -0.104  0.00  0.00     0.032 C 
ATOM     26  C   UNL d   1      25.757 -17.905   0.475  0.00  0.00     0.041 C 
ATOM     27  C   UNL d   1      26.207 -16.662  -0.005  0.00  0.00     0.095 C 
BRANCH  24  28
ATOM     28  N   UNL d   1      22.785 -18.568  -1.636  0.00  0.00    -0.327 N 
ATOM     29  C   UNL d   1      21.676 -19.026  -0.972  0.00  0.00     0.218 C 
ATOM     30  C   UNL d   1      21.504 -18.926   0.522  0.00  0.00     0.117 C 
ATOM     31  O   UNL d   1      20.770 -19.547  -1.634  0.00  0.00    -0.274 OA
ATOM     32  H   UNL d   1      22.728 -18.801  -2.625  0.00  0.00     0.169 HD
ENDBRANCH  24  28
BRANCH  27  33
ATOM     33  O   UNL d   1      27.240 -16.124   0.706  0.00  0.00    -0.354 OA
ATOM     34  C   UNL d   1      27.118 -14.767   1.119  0.00  0.00     0.210 C 
ENDBRANCH  27  33
ENDBRANCH   1  22
TORSDOF 6
ENDMDL
MODEL 8
REMARK VINA RESULT:    -7.703      2.596      4.412
REMARK INTER + INTRA:         -12.971
REMARK INTER:                  -9.493
REMARK INTRA:                  -3.478
REMARK CONF_INDEPENDENT:        1.790
REMARK UNBOUND:                -3.478
REMARK  6 active torsions:
REMARK  status: ('A' for Active; 'I' for Inactive)
REMARK    1  A    between atoms: O_2  and  C_3 
REMARK    2  A    between atoms: C_6  and  N_7 
REMARK       I    between atoms: N_7  and  C_8 
REMARK    3  A    between atoms: C_12  and  N_13 
REMARK       I    between atoms: N_13  and  C_14 
REMARK    4  A    between atoms: C_14  and  C_16 
REMARK    5  A    between atoms: C_16  and  N_17 
REMARK    6  A    between atoms: C_21  and  C_23 
ROOT
ATOM      1  N   UNL d   1      26.117 -14.846  -2.283  0.00  0.00    -0.323 N 
ATOM      2  C   UNL d   1      25.269 -14.306  -3.237  0.00  0.00     0.240 C 
ATOM      3  O   UNL d   1      24.050 -14.450  -3.192  0.00  0.00    -0.271 OA
ATOM      4  H   UNL d   1      26.944 -14.325  -2.011  0.00  0.00     0.169 HD
ENDROOT
BRANCH   2   5
ATOM      5  C   UNL d   1      25.930 -13.560  -4.394  0.00  0.00     0.240 C 
BRANCH   5   6
ATOM      6  N   UNL d   1      27.332 -13.972  -4.550  0.00  0.00    -0.259 N 
ATOM      7  C   UNL d   1      27.823 -14.903  -5.426  0.00  0.00     0.326 C 
ATOM      8  O   UNL d   1      27.405 -15.200  -6.520  0.00  0.00    -0.247 OA
ATOM      9  N   UNL d   1      28.941 -15.479  -4.833  0.00  0.00    -0.321 N 
ATOM     10  C   UNL d   1      29.480 -14.633  -3.793  0.00  0.00     0.141 C 
ATOM     11  H   UNL d   1      29.363 -16.334  -5.175  0.00  0.00     0.165 HD
ATOM     12  C   UNL d   1      30.719 -13.920  -4.364  0.00  0.00     0.055 C 
ATOM     13  C   UNL d   1      28.305 -13.650  -3.639  0.00  0.00     0.261 C 
ATOM     14  O   UNL d   1      28.247 -12.767  -2.795  0.00  0.00    -0.270 OA
BRANCH  10  15
ATOM     15  C   UNL d   1      29.758 -15.358  -2.478  0.00  0.00    -0.004 A 
ATOM     16  C   UNL d   1      29.413 -16.728  -2.368  0.00  0.00     0.011 A 
ATOM     17  C   UNL d   1      29.588 -17.451  -1.194  0.00  0.00     0.001 A 
ATOM     18  C   UNL d   1      30.218 -16.856  -0.119  0.00  0.00     0.001 A 
ATOM     19  C   UNL d   1      30.622 -15.526  -0.204  0.00  0.00     0.020 A 
ATOM     20  C   UNL d   1      30.389 -14.773  -1.361  0.00  0.00     0.020 A 
ATOM     21 BR   UNL d   1      31.008 -12.977  -1.261  0.00  0.00    -0.050 Br
ENDBRANCH  10  15
ENDBRANCH   5   6
ENDBRANCH   2   5
BRANCH   1  22
ATOM     22  C   UNL d   1      25.749 -15.967  -1.480  0.00  0.00     0.070 C 
ATOM     23  C   UNL d   1      24.727 -16.781  -1.981  0.00  0.00     0.062 C 
ATOM     24  C   UNL d   1      24.167 -17.860  -1.291  0.00  0.00     0.037 C 
ATOM     25  C   UNL d   1      24.837 -18.283  -0.143  0.00  0.00     0.032 C 
ATOM     26  C   UNL d   1      25.897 -17.512   0.365  0.00  0.00     0.041 C 
ATOM     27  C   UNL d   1      26.309 -16.319  -0.254  0.00  0.00     0.095 C 
BRANCH  24  28
ATOM     28  N   UNL d   1      22.982 -18.526  -1.684  0.00  0.00    -0.327 N 
ATOM     29  C   UNL d   1      21.882 -18.950  -0.983  0.00  0.00     0.218 C 
ATOM     30  C   UNL d   1      21.689 -18.689   0.489  0.00  0.00     0.117 C 
ATOM     31  O   UNL d   1      21.004 -19.576  -1.589  0.00  0.00    -0.274 OA
ATOM     32  H   UNL d   1      22.946 -18.872  -2.642  0.00  0.00     0.169 HD
ENDBRANCH  24  28
BRANCH  27  33
ATOM     33  O   UNL d   1      27.312 -15.664   0.400  0.00  0.00    -0.354 OA
ATOM     34  C   UNL d   1      27.176 -14.257   0.573  0.00  0.00     0.210 C 
ENDBRANCH  27  33
ENDBRANCH   1  22
TORSDOF 6
ENDMDL
MODEL 9
REMARK VINA RESULT:    -7.574      2.891      5.016
REMARK INTER + INTRA:         -12.337
REMARK INTER:                  -9.364
REMARK INTRA:                  -2.974
REMARK CONF_INDEPENDENT:        1.790
REMARK UNBOUND:                -2.974
REMARK  6 active torsions:
REMARK  status: ('A' for Active; 'I' for Inactive)
REMARK    1  A    between atoms: O_2  and  C_3 
REMARK    2  A    between atoms: C_6  and  N_7 
REMARK       I    between atoms: N_7  and  C_8 
REMARK    3  A    between atoms: C_12  and  N_13 
REMARK       I    between atoms: N_13  and  C_14 
REMARK    4  A    between atoms: C_14  and  C_16 
REMARK    5  A    between atoms: C_16  and  N_17 
REMARK    6  A    between atoms: C_21  and  C_23 
ROOT
ATOM      1  N   UNL d   1      25.580 -15.038  -2.010  0.00  0.00    -0.323 N 
ATOM      2  C   UNL d   1      25.893 -15.027  -3.360  0.00  0.00     0.240 C 
ATOM      3  O   UNL d   1      25.520 -15.908  -4.130  0.00  0.00    -0.271 OA
ATOM      4  H   UNL d   1      25.400 -14.156  -1.542  0.00  0.00     0.169 HD
ENDROOT
BRANCH   2   5
ATOM      5  C   UNL d   1      26.781 -13.884  -3.846  0.00  0.00     0.240 C 
BRANCH   5   6
ATOM      6  N   UNL d   1      27.931 -13.697  -2.950  0.00  0.00    -0.259 N 
ATOM      7  C   UNL d   1      28.996 -14.544  -2.788  0.00  0.00     0.326 C 
ATOM      8  O   UNL d   1      29.494 -15.286  -3.600  0.00  0.00    -0.247 OA
ATOM      9  N   UNL d   1      29.441 -14.403  -1.479  0.00  0.00    -0.321 N 
ATOM     10  C   UNL d   1      29.002 -13.151  -0.905  0.00  0.00     0.141 C 
ATOM     11  H   UNL d   1      30.075 -15.061  -1.043  0.00  0.00     0.165 HD
ATOM     12  C   UNL d   1      30.196 -12.180  -0.930  0.00  0.00     0.055 C 
ATOM     13  C   UNL d   1      27.949 -12.752  -1.956  0.00  0.00     0.261 C 
ATOM     14  O   UNL d   1      27.219 -11.775  -1.868  0.00  0.00    -0.270 OA
BRANCH  10  15
ATOM     15  C   UNL d   1      28.366 -13.285   0.477  0.00  0.00    -0.004 A 
ATOM     16  C   UNL d   1      27.011 -12.906   0.645  0.00  0.00     0.011 A 
ATOM     17  C   UNL d   1      26.369 -12.952   1.876  0.00  0.00     0.001 A 
ATOM     18  C   UNL d   1      27.030 -13.483   2.966  0.00  0.00     0.001 A 
ATOM     19  C   UNL d   1      28.346 -13.917   2.832  0.00  0.00     0.020 A 
ATOM     20  C   UNL d   1      29.019 -13.813   1.609  0.00  0.00     0.020 A 
ATOM     21 BR   UNL d   1      30.811 -14.451   1.649  0.00  0.00    -0.050 Br
ENDBRANCH  10  15
ENDBRANCH   5   6
ENDBRANCH   2   5
BRANCH   1  22
ATOM     22  C   UNL d   1      25.243 -16.236  -1.313  0.00  0.00     0.070 C 
ATOM     23  C   UNL d   1      24.171 -16.975  -1.828  0.00  0.00     0.062 C 
ATOM     24  C   UNL d   1      23.637 -18.117  -1.225  0.00  0.00     0.037 C 
ATOM     25  C   UNL d   1      24.374 -18.675  -0.181  0.00  0.00     0.032 C 
ATOM     26  C   UNL d   1      25.483 -17.982   0.333  0.00  0.00     0.041 C 
ATOM     27  C   UNL d   1      25.878 -16.732  -0.176  0.00  0.00     0.095 C 
BRANCH  24  28
ATOM     28  N   UNL d   1      22.413 -18.718  -1.606  0.00  0.00    -0.327 N 
ATOM     29  C   UNL d   1      21.326 -19.140  -0.885  0.00  0.00     0.218 C 
ATOM     30  C   UNL d   1      21.198 -18.953   0.606  0.00  0.00     0.117 C 
ATOM     31  O   UNL d   1      20.402 -19.700  -1.487  0.00  0.00    -0.274 OA
ATOM     32  H   UNL d   1      22.328 -19.009  -2.578  0.00  0.00     0.169 HD
ENDBRANCH  24  28
BRANCH  27  33
ATOM     33  O   UNL d   1      26.937 -16.169   0.475  0.00  0.00    -0.354 OA
ATOM     34  C   UNL d   1      28.227 -16.719   0.230  0.00  0.00     0.210 C 
ENDBRANCH  27  33
ENDBRANCH   1  22
TORSDOF 6
ENDMDL
