MODEL 1
REMARK VINA RESULT:    -7.986      0.000      0.000
REMARK INTER + INTRA:         -11.007
REMARK INTER:                  -9.775
REMARK INTRA:                  -1.231
REMARK CONF_INDEPENDENT:        1.790
REMARK UNBOUND:                -1.231
REMARK  6 active torsions:
REMARK  status: ('A' for Active; 'I' for Inactive)
REMARK    1  A    between atoms: C_2  and  C_16 
REMARK    2  A    between atoms: N_3  and  N_4 
REMARK       I    between atoms: N_4  and  C_5 
REMARK    3  A    between atoms: C_5  and  C_7 
REMARK    4  A    between atoms: C_7  and  O_8 
REMARK    5  A    between atoms: O_8  and  C_9 
REMARK    6  A    between atoms: C_19  and  O_20 
ROOT
ATOM      1  N   UNL d   1      23.298 -16.612  -0.524  0.00  0.00    -0.245 N 
ATOM      2  C   UNL d   1      24.576 -17.069  -0.179  0.00  0.00     0.261 C 
ATOM      3  O   UNL d   1      24.774 -18.097   0.477  0.00  0.00    -0.269 OA
ATOM      4  H   UNL d   1      23.192 -15.783  -1.092  0.00  0.00     0.192 HD
ENDROOT
BRANCH   1   5
ATOM      5  N   UNL d   1      22.183 -17.337  -0.136  0.00  0.00    -0.176 NA
ATOM      6  C   UNL d   1      21.959 -18.545  -0.576  0.00  0.00     0.061 C 
ATOM      7  C   UNL d   1      22.830 -19.282  -1.575  0.00  0.00     0.073 C 
BRANCH   6   8
ATOM      8  C   UNL d   1      20.745 -19.301  -0.068  0.00  0.00    -0.010 A 
ATOM      9  C   UNL d   1      19.705 -19.666  -0.941  0.00  0.00     0.016 A 
ATOM     10  C   UNL d   1      18.620 -20.441  -0.495  0.00  0.00     0.037 A 
ATOM     11  C   UNL d   1      18.562 -20.837   0.836  0.00  0.00     0.065 A 
ATOM     12  C   UNL d   1      19.559 -20.448   1.724  0.00  0.00     0.037 A 
ATOM     13  C   UNL d   1      20.653 -19.687   1.276  0.00  0.00     0.016 A 
BRANCH  11  14
ATOM     14  O   UNL d   1      17.551 -21.616   1.317  0.00  0.00    -0.361 OA
ATOM     15  H   UNL d   1      17.576 -22.488   0.892  0.00  0.00     0.217 HD
ENDBRANCH  11  14
ENDBRANCH   6   8
ENDBRANCH   1   5
BRANCH   2  16
ATOM     16  C   UNL d   1      25.742 -16.178  -0.670  0.00  0.00     0.280 C 
BRANCH  16  17
ATOM     17  O   UNL d   1      25.264 -15.199  -1.609  0.00  0.00    -0.342 OA
BRANCH  17  18
ATOM     18  C   UNL d   1      25.995 -15.055  -2.756  0.00  0.00     0.069 A 
ATOM     19  C   UNL d   1      25.546 -14.337  -3.863  0.00  0.00     0.038 A 
ATOM     20  C   UNL d   1      26.338 -14.252  -5.014  0.00  0.00     0.026 A 
ATOM     21  C   UNL d   1      27.592 -14.860  -5.044  0.00  0.00     0.034 A 
ATOM     22 CL   UNL d   1      28.531 -14.806  -6.485  0.00  0.00    -0.084 Cl
ATOM     23  C   UNL d   1      28.082 -15.511  -3.915  0.00  0.00     0.026 A 
ATOM     24  C   UNL d   1      27.286 -15.594  -2.765  0.00  0.00     0.038 A 
ENDBRANCH  17  18
ENDBRANCH  16  17
ENDBRANCH   2  16
TORSDOF 6
ENDMDL
MODEL 2
REMARK VINA RESULT:    -7.371      0.708      1.579
REMARK INTER + INTRA:         -10.389
REMARK INTER:                  -9.161
REMARK INTRA:                  -1.228
REMARK CONF_INDEPENDENT:        1.790
REMARK UNBOUND:                -1.228
REMARK  6 active torsions:
REMARK  status: ('A' for Active; 'I' for Inactive)
REMARK    1  A    between atoms: C_2  and  C_16 
REMARK    2  A    between atoms: N_3  and  N_4 
REMARK       I    between atoms: N_4  and  C_5 
REMARK    3  A    between atoms: C_5  and  C_7 
REMARK    4  A    between atoms: C_7  and  O_8 
REMARK    5  A    between atoms: O_8  and  C_9 
REMARK    6  A    between atoms: C_19  and  O_20 
ROOT
ATOM      1  N   UNL d   1      23.200 -16.285  -0.877  0.00  0.00    -0.245 N 
ATOM      2  C   UNL d   1      24.519 -16.591  -0.522  0.00  0.00     0.261 C 
ATOM      3  O   UNL d   1      24.820 -17.526   0.228  0.00  0.00    -0.269 OA
ATOM      4  H   UNL d   1      23.010 -15.531  -1.522  0.00  0.00     0.192 HD
ENDROOT
BRANCH   1   5
ATOM      5  N   UNL d   1      22.161 -17.062  -0.391  0.00  0.00    -0.176 NA
ATOM      6  C   UNL d   1      22.019 -18.314  -0.730  0.00  0.00     0.061 C 
ATOM      7  C   UNL d   1      22.910 -19.057  -1.707  0.00  0.00     0.073 C 
BRANCH   6   8
ATOM      8  C   UNL d   1      20.888 -19.120  -0.117  0.00  0.00    -0.010 A 
ATOM      9  C   UNL d   1      20.818 -19.325   1.272  0.00  0.00     0.016 A 
ATOM     10  C   UNL d   1      19.729 -19.997   1.854  0.00  0.00     0.037 A 
ATOM     11  C   UNL d   1      18.713 -20.484   1.041  0.00  0.00     0.065 A 
ATOM     12  C   UNL d   1      18.786 -20.330  -0.338  0.00  0.00     0.037 A 
ATOM     13  C   UNL d   1      19.866 -19.645  -0.920  0.00  0.00     0.016 A 
BRANCH  11  14
ATOM     14  O   UNL d   1      17.616 -21.115   1.553  0.00  0.00    -0.361 OA
ATOM     15  H   UNL d   1      17.876 -21.671   2.305  0.00  0.00     0.217 HD
ENDBRANCH  11  14
ENDBRANCH   6   8
ENDBRANCH   1   5
BRANCH   2  16
ATOM     16  C   UNL d   1      25.592 -15.656  -1.129  0.00  0.00     0.280 C 
BRANCH  16  17
ATOM     17  O   UNL d   1      25.009 -14.813  -2.138  0.00  0.00    -0.342 OA
BRANCH  17  18
ATOM     18  C   UNL d   1      25.792 -14.547  -3.228  0.00  0.00     0.069 A 
ATOM     19  C   UNL d   1      26.737 -15.442  -3.726  0.00  0.00     0.038 A 
ATOM     20  C   UNL d   1      27.521 -15.093  -4.832  0.00  0.00     0.026 A 
ATOM     21  C   UNL d   1      27.337 -13.861  -5.457  0.00  0.00     0.034 A 
ATOM     22 CL   UNL d   1      28.349 -13.414  -6.774  0.00  0.00    -0.084 Cl
ATOM     23  C   UNL d   1      26.341 -12.994  -5.015  0.00  0.00     0.026 A 
ATOM     24  C   UNL d   1      25.558 -13.347  -3.909  0.00  0.00     0.038 A 
ENDBRANCH  17  18
ENDBRANCH  16  17
ENDBRANCH   2  16
TORSDOF 6
ENDMDL
MODEL 3
REMARK VINA RESULT:    -7.361      1.755      1.971
REMARK INTER + INTRA:         -10.595
REMARK INTER:                  -9.151
REMARK INTRA:                  -1.444
REMARK CONF_INDEPENDENT:        1.790
REMARK UNBOUND:                -1.444
REMARK  6 active torsions:
REMARK  status: ('A' for Active; 'I' for Inactive)
REMARK    1  A    between atoms: C_2  and  C_16 
REMARK    2  A    between atoms: N_3  and  N_4 
REMARK       I    between atoms: N_4  and  C_5 
REMARK    3  A    between atoms: C_5  and  C_7 
REMARK    4  A    between atoms: C_7  and  O_8 
REMARK    5  A    between atoms: O_8  and  C_9 
REMARK    6  A    between atoms: C_19  and  O_20 
ROOT
ATOM      1  N   UNL d   1      24.507 -18.247  -0.711  0.00  0.00    -0.245 N 
ATOM      2  C   UNL d   1      25.575 -18.128   0.187  0.00  0.00     0.261 C 
ATOM      3  O   UNL d   1      25.524 -18.520   1.357  0.00  0.00    -0.269 OA
ATOM      4  H   UNL d   1      24.612 -17.941  -1.668  0.00  0.00     0.192 HD
ENDROOT
BRANCH   1   5
ATOM      5  N   UNL d   1      23.328 -18.845  -0.297  0.00  0.00    -0.176 NA
ATOM      6  C   UNL d   1      22.177 -18.236  -0.386  0.00  0.00     0.061 C 
ATOM      7  C   UNL d   1      21.980 -16.820  -0.892  0.00  0.00     0.073 C 
BRANCH   6   8
ATOM      8  C   UNL d   1      20.919 -18.971   0.038  0.00  0.00    -0.010 A 
ATOM      9  C   UNL d   1      19.951 -19.350  -0.909  0.00  0.00     0.016 A 
ATOM     10  C   UNL d   1      18.826 -20.105  -0.535  0.00  0.00     0.037 A 
ATOM     11  C   UNL d   1      18.656 -20.469   0.795  0.00  0.00     0.065 A 
ATOM     12  C   UNL d   1      19.580 -20.067   1.753  0.00  0.00     0.037 A 
ATOM     13  C   UNL d   1      20.714 -19.325   1.378  0.00  0.00     0.016 A 
BRANCH  11  14
ATOM     14  O   UNL d   1      17.601 -21.229   1.209  0.00  0.00    -0.361 OA
ATOM     15  H   UNL d   1      17.322 -21.825   0.495  0.00  0.00     0.217 HD
ENDBRANCH  11  14
ENDBRANCH   6   8
ENDBRANCH   1   5
BRANCH   2  16
ATOM     16  C   UNL d   1      26.840 -17.447  -0.391  0.00  0.00     0.280 C 
BRANCH  16  17
ATOM     17  O   UNL d   1      26.712 -17.279  -1.813  0.00  0.00    -0.342 OA
BRANCH  17  18
ATOM     18  C   UNL d   1      26.394 -16.021  -2.245  0.00  0.00     0.069 A 
ATOM     19  C   UNL d   1      25.782 -15.766  -3.472  0.00  0.00     0.038 A 
ATOM     20  C   UNL d   1      25.506 -14.450  -3.860  0.00  0.00     0.026 A 
ATOM     21  C   UNL d   1      25.815 -13.392  -3.008  0.00  0.00     0.034 A 
ATOM     22 CL   UNL d   1      25.533 -11.774  -3.521  0.00  0.00    -0.084 Cl
ATOM     23  C   UNL d   1      26.354 -13.642  -1.748  0.00  0.00     0.026 A 
ATOM     24  C   UNL d   1      26.628 -14.960  -1.363  0.00  0.00     0.038 A 
ENDBRANCH  17  18
ENDBRANCH  16  17
ENDBRANCH   2  16
TORSDOF 6
ENDMDL
MODEL 4
REMARK VINA RESULT:    -7.346      6.523      9.476
REMARK INTER + INTRA:         -10.319
REMARK INTER:                  -9.135
REMARK INTRA:                  -1.184
REMARK CONF_INDEPENDENT:        1.790
REMARK UNBOUND:                -1.184
REMARK  6 active torsions:
REMARK  status: ('A' for Active; 'I' for Inactive)
REMARK    1  A    between atoms: C_2  and  C_16 
REMARK    2  A    between atoms: N_3  and  N_4 
REMARK       I    between atoms: N_4  and  C_5 
REMARK    3  A    between atoms: C_5  and  C_7 
REMARK    4  A    between atoms: C_7  and  O_8 
REMARK    5  A    between atoms: O_8  and  C_9 
REMARK    6  A    between atoms: C_19  and  O_20 
ROOT
ATOM      1  N   UNL d   1      27.817 -14.826   2.486  0.00  0.00    -0.245 N 
ATOM      2  C   UNL d   1      27.415 -13.996   1.432  0.00  0.00     0.261 C 
ATOM      3  O   UNL d   1      27.010 -12.841   1.594  0.00  0.00    -0.269 OA
ATOM      4  H   UNL d   1      28.172 -15.752   2.296  0.00  0.00     0.192 HD
ENDROOT
BRANCH   1   5
ATOM      5  N   UNL d   1      27.784 -14.346   3.785  0.00  0.00    -0.176 NA
ATOM      6  C   UNL d   1      28.873 -14.149   4.475  0.00  0.00     0.061 C 
ATOM      7  C   UNL d   1      30.278 -14.451   3.989  0.00  0.00     0.073 C 
BRANCH   6   8
ATOM      8  C   UNL d   1      28.765 -13.572   5.875  0.00  0.00    -0.010 A 
ATOM      9  C   UNL d   1      29.278 -14.268   6.984  0.00  0.00     0.016 A 
ATOM     10  C   UNL d   1      29.258 -13.701   8.270  0.00  0.00     0.037 A 
ATOM     11  C   UNL d   1      28.706 -12.439   8.454  0.00  0.00     0.065 A 
ATOM     12  C   UNL d   1      28.156 -11.754   7.377  0.00  0.00     0.037 A 
ATOM     13  C   UNL d   1      28.189 -12.313   6.088  0.00  0.00     0.016 A 
BRANCH  11  14
ATOM     14  O   UNL d   1      28.690 -11.826   9.673  0.00  0.00    -0.361 OA
ATOM     15  H   UNL d   1      28.237 -10.970   9.606  0.00  0.00     0.217 HD
ENDBRANCH  11  14
ENDBRANCH   6   8
ENDBRANCH   1   5
BRANCH   2  16
ATOM     16  C   UNL d   1      27.499 -14.640   0.027  0.00  0.00     0.280 C 
BRANCH  16  17
ATOM     17  O   UNL d   1      27.412 -16.073   0.126  0.00  0.00    -0.342 OA
BRANCH  17  18
ATOM     18  C   UNL d   1      26.194 -16.624  -0.163  0.00  0.00     0.069 A 
ATOM     19  C   UNL d   1      25.257 -16.013  -0.997  0.00  0.00     0.038 A 
ATOM     20  C   UNL d   1      24.020 -16.624  -1.230  0.00  0.00     0.026 A 
ATOM     21  C   UNL d   1      23.732 -17.859  -0.653  0.00  0.00     0.034 A 
ATOM     22 CL   UNL d   1      22.184 -18.571  -0.893  0.00  0.00    -0.084 Cl
ATOM     23  C   UNL d   1      24.691 -18.513   0.115  0.00  0.00     0.026 A 
ATOM     24  C   UNL d   1      25.928 -17.899   0.347  0.00  0.00     0.038 A 
ENDBRANCH  17  18
ENDBRANCH  16  17
ENDBRANCH   2  16
TORSDOF 6
ENDMDL
MODEL 5
REMARK VINA RESULT:    -7.184      3.608      5.406
REMARK INTER + INTRA:         -10.346
REMARK INTER:                  -8.974
REMARK INTRA:                  -1.372
REMARK CONF_INDEPENDENT:        1.790
REMARK UNBOUND:                -1.372
REMARK  6 active torsions:
REMARK  status: ('A' for Active; 'I' for Inactive)
REMARK    1  A    between atoms: C_2  and  C_16 
REMARK    2  A    between atoms: N_3  and  N_4 
REMARK       I    between atoms: N_4  and  C_5 
REMARK    3  A    between atoms: C_5  and  C_7 
REMARK    4  A    between atoms: C_7  and  O_8 
REMARK    5  A    between atoms: O_8  and  C_9 
REMARK    6  A    between atoms: C_19  and  O_20 
ROOT
ATOM      1  N   UNL d   1      25.849 -14.146  -3.610  0.00  0.00    -0.245 N 
ATOM      2  C   UNL d   1      26.483 -14.453  -4.821  0.00  0.00     0.261 C 
ATOM      3  O   UNL d   1      26.370 -15.544  -5.388  0.00  0.00    -0.269 OA
ATOM      4  H   UNL d   1      25.947 -13.227  -3.205  0.00  0.00     0.192 HD
ENDROOT
BRANCH   1   5
ATOM      5  N   UNL d   1      25.035 -15.090  -3.005  0.00  0.00    -0.176 NA
ATOM      6  C   UNL d   1      25.380 -15.691  -1.900  0.00  0.00     0.061 C 
ATOM      7  C   UNL d   1      26.695 -15.485  -1.171  0.00  0.00     0.073 C 
BRANCH   6   8
ATOM      8  C   UNL d   1      24.416 -16.676  -1.264  0.00  0.00    -0.010 A 
ATOM      9  C   UNL d   1      23.072 -16.328  -1.039  0.00  0.00     0.016 A 
ATOM     10  C   UNL d   1      22.155 -17.263  -0.531  0.00  0.00     0.037 A 
ATOM     11  C   UNL d   1      22.585 -18.549  -0.226  0.00  0.00     0.065 A 
ATOM     12  C   UNL d   1      23.919 -18.899  -0.400  0.00  0.00     0.037 A 
ATOM     13  C   UNL d   1      24.835 -17.969  -0.923  0.00  0.00     0.016 A 
BRANCH  11  14
ATOM     14  O   UNL d   1      21.733 -19.507   0.240  0.00  0.00    -0.361 OA
ATOM     15  H   UNL d   1      22.233 -20.297   0.500  0.00  0.00     0.217 HD
ENDBRANCH  11  14
ENDBRANCH   6   8
ENDBRANCH   1   5
BRANCH   2  16
ATOM     16  C   UNL d   1      27.363 -13.320  -5.402  0.00  0.00     0.280 C 
BRANCH  16  17
ATOM     17  O   UNL d   1      27.482 -12.243  -4.455  0.00  0.00    -0.342 OA
BRANCH  17  18
ATOM     18  C   UNL d   1      26.629 -11.188  -4.632  0.00  0.00     0.069 A 
ATOM     19  C   UNL d   1      26.328 -10.272  -3.625  0.00  0.00     0.038 A 
ATOM     20  C   UNL d   1      25.427  -9.230  -3.870  0.00  0.00     0.026 A 
ATOM     21  C   UNL d   1      24.850  -9.087  -5.131  0.00  0.00     0.034 A 
ATOM     22 CL   UNL d   1      23.694  -7.843  -5.404  0.00  0.00    -0.084 Cl
ATOM     23  C   UNL d   1      25.206  -9.950  -6.164  0.00  0.00     0.026 A 
ATOM     24  C   UNL d   1      26.109 -10.992  -5.916  0.00  0.00     0.038 A 
ENDBRANCH  17  18
ENDBRANCH  16  17
ENDBRANCH   2  16
TORSDOF 6
ENDMDL
MODEL 6
REMARK VINA RESULT:    -7.120      3.161      5.005
REMARK INTER + INTRA:         -10.029
REMARK INTER:                  -8.910
REMARK INTRA:                  -1.119
REMARK CONF_INDEPENDENT:        1.790
REMARK UNBOUND:                -1.119
REMARK  6 active torsions:
REMARK  status: ('A' for Active; 'I' for Inactive)
REMARK    1  A    between atoms: C_2  and  C_16 
REMARK    2  A    between atoms: N_3  and  N_4 
REMARK       I    between atoms: N_4  and  C_5 
REMARK    3  A    between atoms: C_5  and  C_7 
REMARK    4  A    between atoms: C_7  and  O_8 
REMARK    5  A    between atoms: O_8  and  C_9 
REMARK    6  A    between atoms: C_19  and  O_20 
ROOT
ATOM      1  N   UNL d   1      26.607 -14.895  -3.665  0.00  0.00    -0.245 N 
ATOM      2  C   UNL d   1      26.693 -14.937  -5.062  0.00  0.00     0.261 C 
ATOM      3  O   UNL d   1      25.908 -15.576  -5.770  0.00  0.00    -0.269 OA
ATOM      4  H   UNL d   1      27.254 -14.329  -3.133  0.00  0.00     0.192 HD
ENDROOT
BRANCH   1   5
ATOM      5  N   UNL d   1      25.593 -15.583  -3.020  0.00  0.00    -0.176 NA
ATOM      6  C   UNL d   1      25.808 -16.266  -1.929  0.00  0.00     0.061 C 
ATOM      7  C   UNL d   1      27.159 -16.438  -1.263  0.00  0.00     0.073 C 
BRANCH   6   8
ATOM      8  C   UNL d   1      24.638 -16.952  -1.246  0.00  0.00    -0.010 A 
ATOM      9  C   UNL d   1      23.382 -16.326  -1.164  0.00  0.00     0.016 A 
ATOM     10  C   UNL d   1      22.274 -16.991  -0.610  0.00  0.00     0.037 A 
ATOM     11  C   UNL d   1      22.426 -18.281  -0.117  0.00  0.00     0.065 A 
ATOM     12  C   UNL d   1      23.670 -18.900  -0.149  0.00  0.00     0.037 A 
ATOM     13  C   UNL d   1      24.776 -18.243  -0.717  0.00  0.00     0.016 A 
BRANCH  11  14
ATOM     14  O   UNL d   1      21.379 -18.986   0.402  0.00  0.00    -0.361 OA
ATOM     15  H   UNL d   1      21.710 -19.688   0.984  0.00  0.00     0.217 HD
ENDBRANCH  11  14
ENDBRANCH   6   8
ENDBRANCH   1   5
BRANCH   2  16
ATOM     16  C   UNL d   1      27.865 -14.127  -5.668  0.00  0.00     0.280 C 
BRANCH  16  17
ATOM     17  O   UNL d   1      29.100 -14.470  -5.017  0.00  0.00    -0.342 OA
BRANCH  17  18
ATOM     18  C   UNL d   1      29.568 -15.736  -5.240  0.00  0.00     0.069 A 
ATOM     19  C   UNL d   1      30.031 -16.172  -6.480  0.00  0.00     0.038 A 
ATOM     20  C   UNL d   1      30.473 -17.490  -6.642  0.00  0.00     0.026 A 
ATOM     21  C   UNL d   1      30.481 -18.362  -5.555  0.00  0.00     0.034 A 
ATOM     22 CL   UNL d   1      30.965 -19.997  -5.778  0.00  0.00    -0.084 Cl
ATOM     23  C   UNL d   1      30.096 -17.912  -4.294  0.00  0.00     0.026 A 
ATOM     24  C   UNL d   1      29.654 -16.592  -4.136  0.00  0.00     0.038 A 
ENDBRANCH  17  18
ENDBRANCH  16  17
ENDBRANCH   2  16
TORSDOF 6
ENDMDL
MODEL 7
REMARK VINA RESULT:    -6.826      3.935      9.160
REMARK INTER + INTRA:          -9.877
REMARK INTER:                  -8.615
REMARK INTRA:                  -1.262
REMARK CONF_INDEPENDENT:        1.790
REMARK UNBOUND:                -1.262
REMARK  6 active torsions:
REMARK  status: ('A' for Active; 'I' for Inactive)
REMARK    1  A    between atoms: C_2  and  C_16 
REMARK    2  A    between atoms: N_3  and  N_4 
REMARK       I    between atoms: N_4  and  C_5 
REMARK    3  A    between atoms: C_5  and  C_7 
REMARK    4  A    between atoms: C_7  and  O_8 
REMARK    5  A    between atoms: O_8  and  C_9 
REMARK    6  A    between atoms: C_19  and  O_20 
ROOT
ATOM      1  N   UNL d   1      26.893 -16.265  -2.246  0.00  0.00    -0.245 N 
ATOM      2  C   UNL d   1      27.651 -16.930  -1.274  0.00  0.00     0.261 C 
ATOM      3  O   UNL d   1      28.863 -17.140  -1.386  0.00  0.00    -0.269 OA
ATOM      4  H   UNL d   1      25.911 -16.088  -2.090  0.00  0.00     0.192 HD
ENDROOT
BRANCH   1   5
ATOM      5  N   UNL d   1      27.510 -15.796  -3.393  0.00  0.00    -0.176 NA
ATOM      6  C   UNL d   1      26.940 -14.920  -4.174  0.00  0.00     0.061 C 
ATOM      7  C   UNL d   1      25.552 -14.346  -3.971  0.00  0.00     0.073 C 
BRANCH   6   8
ATOM      8  C   UNL d   1      27.697 -14.411  -5.388  0.00  0.00    -0.010 A 
ATOM      9  C   UNL d   1      27.420 -13.144  -5.932  0.00  0.00     0.016 A 
ATOM     10  C   UNL d   1      28.175 -12.632  -7.001  0.00  0.00     0.037 A 
ATOM     11  C   UNL d   1      29.202 -13.396  -7.543  0.00  0.00     0.065 A 
ATOM     12  C   UNL d   1      29.463 -14.668  -7.047  0.00  0.00     0.037 A 
ATOM     13  C   UNL d   1      28.719 -15.176  -5.967  0.00  0.00     0.016 A 
BRANCH  11  14
ATOM     14  O   UNL d   1      29.988 -12.937  -8.559  0.00  0.00    -0.361 OA
ATOM     15  H   UNL d   1      29.672 -13.289  -9.407  0.00  0.00     0.217 HD
ENDBRANCH  11  14
ENDBRANCH   6   8
ENDBRANCH   1   5
BRANCH   2  16
ATOM     16  C   UNL d   1      26.852 -17.404  -0.035  0.00  0.00     0.280 C 
BRANCH  16  17
ATOM     17  O   UNL d   1      25.680 -16.590   0.147  0.00  0.00    -0.342 OA
BRANCH  17  18
ATOM     18  C   UNL d   1      24.484 -17.179  -0.161  0.00  0.00     0.069 A 
ATOM     19  C   UNL d   1      23.342 -16.456  -0.501  0.00  0.00     0.038 A 
ATOM     20  C   UNL d   1      22.145 -17.123  -0.781  0.00  0.00     0.026 A 
ATOM     21  C   UNL d   1      22.099 -18.516  -0.752  0.00  0.00     0.034 A 
ATOM     22 CL   UNL d   1      20.608 -19.327  -1.034  0.00  0.00    -0.084 Cl
ATOM     23  C   UNL d   1      23.255 -19.248  -0.492  0.00  0.00     0.026 A 
ATOM     24  C   UNL d   1      24.451 -18.576  -0.212  0.00  0.00     0.038 A 
ENDBRANCH  17  18
ENDBRANCH  16  17
ENDBRANCH   2  16
TORSDOF 6
ENDMDL
MODEL 8
REMARK VINA RESULT:    -6.755      5.159      6.720
REMARK INTER + INTRA:          -9.844
REMARK INTER:                  -8.545
REMARK INTRA:                  -1.300
REMARK CONF_INDEPENDENT:        1.790
REMARK UNBOUND:                -1.300
REMARK  6 active torsions:
REMARK  status: ('A' for Active; 'I' for Inactive)
REMARK    1  A    between atoms: C_2  and  C_16 
REMARK    2  A    between atoms: N_3  and  N_4 
REMARK       I    between atoms: N_4  and  C_5 
REMARK    3  A    between atoms: C_5  and  C_7 
REMARK    4  A    between atoms: C_7  and  O_8 
REMARK    5  A    between atoms: O_8  and  C_9 
REMARK    6  A    between atoms: C_19  and  O_20 
ROOT
ATOM      1  N   UNL d   1      27.545 -15.417   0.757  0.00  0.00    -0.245 N 
ATOM      2  C   UNL d   1      28.197 -14.343   0.141  0.00  0.00     0.261 C 
ATOM      3  O   UNL d   1      27.703 -13.689  -0.783  0.00  0.00    -0.269 OA
ATOM      4  H   UNL d   1      27.979 -15.897   1.533  0.00  0.00     0.192 HD
ENDROOT
BRANCH   1   5
ATOM      5  N   UNL d   1      26.274 -15.777   0.341  0.00  0.00    -0.176 NA
ATOM      6  C   UNL d   1      25.951 -17.020   0.107  0.00  0.00     0.061 C 
ATOM      7  C   UNL d   1      26.898 -18.199   0.209  0.00  0.00     0.073 C 
BRANCH   6   8
ATOM      8  C   UNL d   1      24.524 -17.347  -0.296  0.00  0.00    -0.010 A 
ATOM      9  C   UNL d   1      24.076 -18.679  -0.345  0.00  0.00     0.016 A 
ATOM     10  C   UNL d   1      22.734 -18.984  -0.633  0.00  0.00     0.037 A 
ATOM     11  C   UNL d   1      21.839 -17.954  -0.895  0.00  0.00     0.065 A 
ATOM     12  C   UNL d   1      22.273 -16.634  -0.895  0.00  0.00     0.037 A 
ATOM     13  C   UNL d   1      23.611 -16.326  -0.591  0.00  0.00     0.016 A 
BRANCH  11  14
ATOM     14  O   UNL d   1      20.519 -18.189  -1.149  0.00  0.00    -0.361 OA
ATOM     15  H   UNL d   1      20.253 -17.731  -1.963  0.00  0.00     0.217 HD
ENDBRANCH  11  14
ENDBRANCH   6   8
ENDBRANCH   1   5
BRANCH   2  16
ATOM     16  C   UNL d   1      29.609 -14.033   0.694  0.00  0.00     0.280 C 
BRANCH  16  17
ATOM     17  O   UNL d   1      29.881 -14.838   1.855  0.00  0.00    -0.342 OA
BRANCH  17  18
ATOM     18  C   UNL d   1      29.423 -14.350   3.047  0.00  0.00     0.069 A 
ATOM     19  C   UNL d   1      28.129 -13.863   3.228  0.00  0.00     0.038 A 
ATOM     20  C   UNL d   1      27.736 -13.356   4.471  0.00  0.00     0.026 A 
ATOM     21  C   UNL d   1      28.628 -13.364   5.542  0.00  0.00     0.034 A 
ATOM     22 CL   UNL d   1      28.158 -12.679   7.048  0.00  0.00    -0.084 Cl
ATOM     23  C   UNL d   1      29.896 -13.921   5.392  0.00  0.00     0.026 A 
ATOM     24  C   UNL d   1      30.286 -14.428   4.146  0.00  0.00     0.038 A 
ENDBRANCH  17  18
ENDBRANCH  16  17
ENDBRANCH   2  16
TORSDOF 6
ENDMDL
MODEL 9
REMARK VINA RESULT:    -6.700      3.139      4.140
REMARK INTER + INTRA:          -9.817
REMARK INTER:                  -8.490
REMARK INTRA:                  -1.327
REMARK CONF_INDEPENDENT:        1.790
REMARK UNBOUND:                -1.327
REMARK  6 active torsions:
REMARK  status: ('A' for Active; 'I' for Inactive)
REMARK    1  A    between atoms: C_2  and  C_16 
REMARK    2  A    between atoms: N_3  and  N_4 
REMARK       I    between atoms: N_4  and  C_5 
REMARK    3  A    between atoms: C_5  and  C_7 
REMARK    4  A    between atoms: C_7  and  O_8 
REMARK    5  A    between atoms: O_8  and  C_9 
REMARK    6  A    between atoms: C_19  and  O_20 
ROOT
ATOM      1  N   UNL d   1      25.022 -17.816   0.041  0.00  0.00    -0.245 N 
ATOM      2  C   UNL d   1      25.454 -17.302  -1.188  0.00  0.00     0.261 C 
ATOM      3  O   UNL d   1      24.826 -17.445  -2.242  0.00  0.00    -0.269 OA
ATOM      4  H   UNL d   1      25.555 -17.641   0.881  0.00  0.00     0.192 HD
ENDROOT
BRANCH   1   5
ATOM      5  N   UNL d   1      23.825 -18.511   0.110  0.00  0.00    -0.176 NA
ATOM      6  C   UNL d   1      22.682 -17.943  -0.158  0.00  0.00     0.061 C 
ATOM      7  C   UNL d   1      22.500 -16.482  -0.524  0.00  0.00     0.073 C 
BRANCH   6   8
ATOM      8  C   UNL d   1      21.415 -18.778  -0.114  0.00  0.00    -0.010 A 
ATOM      9  C   UNL d   1      20.954 -19.326   1.096  0.00  0.00     0.016 A 
ATOM     10  C   UNL d   1      19.737 -20.027   1.159  0.00  0.00     0.037 A 
ATOM     11  C   UNL d   1      18.985 -20.199   0.003  0.00  0.00     0.065 A 
ATOM     12  C   UNL d   1      19.446 -19.702  -1.211  0.00  0.00     0.037 A 
ATOM     13  C   UNL d   1      20.654 -18.987  -1.273  0.00  0.00     0.016 A 
BRANCH  11  14
ATOM     14  O   UNL d   1      17.782 -20.842   0.011  0.00  0.00    -0.361 OA
ATOM     15  H   UNL d   1      17.920 -21.803   0.022  0.00  0.00     0.217 HD
ENDBRANCH  11  14
ENDBRANCH   6   8
ENDBRANCH   1   5
BRANCH   2  16
ATOM     16  C   UNL d   1      26.802 -16.542  -1.139  0.00  0.00     0.280 C 
BRANCH  16  17
ATOM     17  O   UNL d   1      27.299 -16.490   0.210  0.00  0.00    -0.342 OA
BRANCH  17  18
ATOM     18  C   UNL d   1      27.326 -15.254   0.795  0.00  0.00     0.069 A 
ATOM     19  C   UNL d   1      28.125 -14.947   1.896  0.00  0.00     0.038 A 
ATOM     20  C   UNL d   1      28.084 -13.667   2.459  0.00  0.00     0.026 A 
ATOM     21  C   UNL d   1      27.266 -12.686   1.902  0.00  0.00     0.034 A 
ATOM     22 CL   UNL d   1      27.173 -11.134   2.639  0.00  0.00    -0.084 Cl
ATOM     23  C   UNL d   1      26.526 -12.960   0.754  0.00  0.00     0.026 A 
ATOM     24  C   UNL d   1      26.570 -14.243   0.194  0.00  0.00     0.038 A 
ENDBRANCH  17  18
ENDBRANCH  16  17
ENDBRANCH   2  16
TORSDOF 6
ENDMDL
