MODEL 1
REMARK VINA RESULT:   -31.677      0.000      0.000
REMARK INTER + INTRA:         -36.739
REMARK INTER:                 -34.361
REMARK INTRA:                  -2.377
REMARK CONF_INDEPENDENT:        2.685
REMARK UNBOUND:                -2.377
REMARK  9 active torsions:
REMARK  status: ('A' for Active; 'I' for Inactive)
REMARK    1  A    between atoms: C_2  and  C_3 
REMARK       I    between atoms: C_2  and  N_30 
REMARK    2  A    between atoms: C_3  and  S_4 
REMARK    3  A    between atoms: S_4  and  C_5 
REMARK    4  A    between atoms: N_15  and  N_16 
REMARK       I    between atoms: N_16  and  C_17 
REMARK    5  A    between atoms: C_17  and  C_19 
REMARK    6  A    between atoms: C_19  and  C_20 
REMARK    7  A    between atoms: C_20  and  C_21 
REMARK    8  A    between atoms: N_30  and  C_31 
REMARK    9  A    between atoms: C_31  and  C_32 
ROOT
ATOM      1  C   UNL d   1      28.337 -15.718  -2.437  0.00  0.00     0.192 C 
ATOM      2  N   UNL d   1      29.277 -15.354  -3.260  0.00  0.00    -0.222 NA
ATOM      3  C   UNL d   1      28.976 -14.775  -4.493  0.00  0.00     0.075 A 
ATOM      4  C   UNL d   1      30.035 -14.179  -5.219  0.00  0.00     0.032 A 
ATOM      5  C   UNL d   1      29.795 -13.364  -6.330  0.00  0.00     0.002 A 
ATOM      6  C   UNL d   1      28.483 -13.203  -6.770  0.00  0.00     0.001 A 
ATOM      7  C   UNL d   1      27.423 -13.850  -6.086  0.00  0.00     0.019 A 
ATOM      8  C   UNL d   1      27.663 -14.619  -4.917  0.00  0.00     0.063 A 
ATOM      9  C   UNL d   1      26.582 -15.214  -4.022  0.00  0.00     0.281 C 
ATOM     10  O   UNL d   1      25.409 -15.160  -4.386  0.00  0.00    -0.265 OA
ATOM     11  N   UNL d   1      26.973 -15.770  -2.762  0.00  0.00    -0.192 N 
ENDROOT
BRANCH  11  12
ATOM     12  N   UNL d   1      25.708 -16.261  -1.821  0.00  0.00    -0.258 N 
ATOM     13  C   UNL d   1      25.710 -17.314  -0.859  0.00  0.00     0.236 C 
ATOM     14  O   UNL d   1      26.732 -17.871  -0.546  0.00  0.00    -0.272 OA
ATOM     15  H   UNL d   1      24.846 -15.931  -2.250  0.00  0.00     0.190 HD
BRANCH  13  16
ATOM     16  C   UNL d   1      24.370 -17.896  -0.087  0.00  0.00     0.106 C 
BRANCH  16  17
ATOM     17  C   UNL d   1      23.169 -18.238  -1.230  0.00  0.00     0.027 C 
BRANCH  17  18
ATOM     18  C   UNL d   1      21.746 -19.335  -1.070  0.00  0.00     0.020 C 
ATOM     19  C   UNL d   1      21.013 -18.201  -0.599  0.00  0.00     0.093 C 
ATOM     20  N   UNL d   1      19.808 -18.576  -1.093  0.00  0.00    -0.285 NA
ATOM     21  C   UNL d   1      19.556 -19.306   0.025  0.00  0.00     0.015 C 
ATOM     22  H   UNL d   1      19.780 -19.005  -2.014  0.00  0.00     0.128 HD
ATOM     23  C   UNL d   1      18.894 -18.955   1.207  0.00  0.00     0.024 C 
ATOM     24  C   UNL d   1      20.647 -20.211  -0.016  0.00  0.00    -0.025 C 
ATOM     25  C   UNL d   1      18.581 -19.930   2.109  0.00  0.00     0.002 C 
ATOM     26  C   UNL d   1      18.927 -21.192   1.668  0.00  0.00     0.001 C 
ATOM     27  C   UNL d   1      19.941 -21.383   0.561  0.00  0.00     0.010 C 
ENDBRANCH  17  18
ENDBRANCH  16  17
ENDBRANCH  13  16
ENDBRANCH  11  12
BRANCH   1  28
ATOM     28  S   UNL d   1      28.972 -15.955  -0.840  0.00  0.00    -0.081 SA
BRANCH  28  29
ATOM     29  C   UNL d   1      28.584 -14.329  -0.114  0.00  0.00     0.185 C 
BRANCH  29  30
ATOM     30  C   UNL d   1      27.403 -14.453   0.856  0.00  0.00     0.227 C 
ATOM     31  O   UNL d   1      26.316 -14.976   0.606  0.00  0.00    -0.273 OA
ATOM     32  N   UNL d   1      27.545 -13.942   2.115  0.00  0.00    -0.358 N 
ATOM     33  H   UNL d   1      26.717 -14.103   2.679  0.00  0.00     0.162 HD
BRANCH  32  34
ATOM     34  C   UNL d   1      28.696 -13.270   2.675  0.00  0.00     0.154 C 
BRANCH  34  35
ATOM     35  C   UNL d   1      28.699 -13.259   4.205  0.00  0.00     0.139 C 
ATOM     36  C   UNL d   1      29.993 -13.794   4.802  0.00  0.00     0.035 C 
ATOM     37  C   UNL d   1      29.532 -14.408   6.096  0.00  0.00     0.029 C 
ATOM     38  C   UNL d   1      28.153 -14.924   5.748  0.00  0.00     0.168 C 
ATOM     39  O   UNL d   1      27.641 -14.104   4.690  0.00  0.00    -0.384 OA
ENDBRANCH  34  35
ENDBRANCH  32  34
ENDBRANCH  29  30
ENDBRANCH  28  29
ENDBRANCH   1  28
TORSDOF 9
ENDMDL
MODEL 2
REMARK VINA RESULT:   -31.614      1.280      1.409
REMARK INTER + INTRA:         -36.604
REMARK INTER:                 -34.298
REMARK INTRA:                  -2.306
REMARK CONF_INDEPENDENT:        2.685
REMARK UNBOUND:                -2.306
REMARK  9 active torsions:
REMARK  status: ('A' for Active; 'I' for Inactive)
REMARK    1  A    between atoms: C_2  and  C_3 
REMARK       I    between atoms: C_2  and  N_30 
REMARK    2  A    between atoms: C_3  and  S_4 
REMARK    3  A    between atoms: S_4  and  C_5 
REMARK    4  A    between atoms: N_15  and  N_16 
REMARK       I    between atoms: N_16  and  C_17 
REMARK    5  A    between atoms: C_17  and  C_19 
REMARK    6  A    between atoms: C_19  and  C_20 
REMARK    7  A    between atoms: C_20  and  C_21 
REMARK    8  A    between atoms: N_30  and  C_31 
REMARK    9  A    between atoms: C_31  and  C_32 
ROOT
ATOM      1  C   UNL d   1      27.678 -14.759  -2.389  0.00  0.00     0.192 C 
ATOM      2  N   UNL d   1      28.398 -14.004  -3.165  0.00  0.00    -0.222 NA
ATOM      3  C   UNL d   1      27.813 -13.221  -4.160  0.00  0.00     0.075 A 
ATOM      4  C   UNL d   1      28.620 -12.245  -4.793  0.00  0.00     0.032 A 
ATOM      5  C   UNL d   1      28.066 -11.256  -5.612  0.00  0.00     0.002 A 
ATOM      6  C   UNL d   1      26.697 -11.287  -5.868  0.00  0.00     0.001 A 
ATOM      7  C   UNL d   1      25.893 -12.301  -5.289  0.00  0.00     0.019 A 
ATOM      8  C   UNL d   1      26.446 -13.261  -4.401  0.00  0.00     0.063 A 
ATOM      9  C   UNL d   1      25.643 -14.282  -3.604  0.00  0.00     0.281 C 
ATOM     10  O   UNL d   1      24.440 -14.403  -3.828  0.00  0.00    -0.265 OA
ATOM     11  N   UNL d   1      26.315 -15.031  -2.585  0.00  0.00    -0.192 N 
ENDROOT
BRANCH  11  12
ATOM     12  N   UNL d   1      25.320 -16.007  -1.700  0.00  0.00    -0.258 N 
ATOM     13  C   UNL d   1      25.681 -17.201  -1.008  0.00  0.00     0.236 C 
ATOM     14  O   UNL d   1      26.834 -17.537  -0.903  0.00  0.00    -0.272 OA
ATOM     15  H   UNL d   1      24.360 -15.822  -1.982  0.00  0.00     0.190 HD
BRANCH  13  16
ATOM     16  C   UNL d   1      24.614 -18.247  -0.302  0.00  0.00     0.106 C 
BRANCH  16  17
ATOM     17  C   UNL d   1      23.147 -18.206  -1.146  0.00  0.00     0.027 C 
BRANCH  17  18
ATOM     18  C   UNL d   1      21.739 -19.325  -1.007  0.00  0.00     0.020 C 
ATOM     19  C   UNL d   1      20.977 -18.200  -0.565  0.00  0.00     0.093 C 
ATOM     20  N   UNL d   1      19.790 -18.601  -1.082  0.00  0.00    -0.285 NA
ATOM     21  C   UNL d   1      19.525 -19.325   0.036  0.00  0.00     0.015 C 
ATOM     22  H   UNL d   1      19.791 -19.039  -1.999  0.00  0.00     0.128 HD
ATOM     23  C   UNL d   1      18.830 -18.975   1.199  0.00  0.00     0.024 C 
ATOM     24  C   UNL d   1      20.632 -20.211   0.030  0.00  0.00    -0.025 C 
ATOM     25  C   UNL d   1      18.513 -19.947   2.104  0.00  0.00     0.002 C 
ATOM     26  C   UNL d   1      18.891 -21.206   1.684  0.00  0.00     0.001 C 
ATOM     27  C   UNL d   1      19.934 -21.389   0.603  0.00  0.00     0.010 C 
ENDBRANCH  17  18
ENDBRANCH  16  17
ENDBRANCH  13  16
ENDBRANCH  11  12
BRANCH   1  28
ATOM     28  S   UNL d   1      28.577 -15.235  -0.983  0.00  0.00    -0.081 SA
BRANCH  28  29
ATOM     29  C   UNL d   1      27.330 -14.900   0.304  0.00  0.00     0.185 C 
BRANCH  29  30
ATOM     30  C   UNL d   1      27.494 -13.473   0.840  0.00  0.00     0.227 C 
ATOM     31  O   UNL d   1      26.911 -12.473   0.419  0.00  0.00    -0.273 OA
ATOM     32  N   UNL d   1      28.361 -13.267   1.875  0.00  0.00    -0.358 N 
ATOM     33  H   UNL d   1      28.371 -12.296   2.167  0.00  0.00     0.162 HD
BRANCH  32  34
ATOM     34  C   UNL d   1      29.179 -14.247   2.554  0.00  0.00     0.154 C 
BRANCH  34  35
ATOM     35  C   UNL d   1      29.416 -13.913   4.028  0.00  0.00     0.139 C 
ATOM     36  C   UNL d   1      28.687 -14.855   4.976  0.00  0.00     0.035 C 
ATOM     37  C   UNL d   1      28.396 -13.974   6.161  0.00  0.00     0.029 C 
ATOM     38  C   UNL d   1      28.172 -12.621   5.523  0.00  0.00     0.168 C 
ATOM     39  O   UNL d   1      28.923 -12.591   4.303  0.00  0.00    -0.384 OA
ENDBRANCH  34  35
ENDBRANCH  32  34
ENDBRANCH  29  30
ENDBRANCH  28  29
ENDBRANCH   1  28
TORSDOF 9
ENDMDL
MODEL 3
REMARK VINA RESULT:   -31.461      3.181      5.466
REMARK INTER + INTRA:         -36.599
REMARK INTER:                 -34.146
REMARK INTRA:                  -2.453
REMARK CONF_INDEPENDENT:        2.685
REMARK UNBOUND:                -2.453
REMARK  9 active torsions:
REMARK  status: ('A' for Active; 'I' for Inactive)
REMARK    1  A    between atoms: C_2  and  C_3 
REMARK       I    between atoms: C_2  and  N_30 
REMARK    2  A    between atoms: C_3  and  S_4 
REMARK    3  A    between atoms: S_4  and  C_5 
REMARK    4  A    between atoms: N_15  and  N_16 
REMARK       I    between atoms: N_16  and  C_17 
REMARK    5  A    between atoms: C_17  and  C_19 
REMARK    6  A    between atoms: C_19  and  C_20 
REMARK    7  A    between atoms: C_20  and  C_21 
REMARK    8  A    between atoms: N_30  and  C_31 
REMARK    9  A    between atoms: C_31  and  C_32 
ROOT
ATOM      1  C   UNL d   1      28.420 -16.017  -2.458  0.00  0.00     0.192 C 
ATOM      2  N   UNL d   1      29.347 -15.657  -3.297  0.00  0.00    -0.222 NA
ATOM      3  C   UNL d   1      29.036 -14.966  -4.467  0.00  0.00     0.075 A 
ATOM      4  C   UNL d   1      30.103 -14.391  -5.199  0.00  0.00     0.032 A 
ATOM      5  C   UNL d   1      29.874 -13.479  -6.233  0.00  0.00     0.002 A 
ATOM      6  C   UNL d   1      28.559 -13.193  -6.596  0.00  0.00     0.001 A 
ATOM      7  C   UNL d   1      27.486 -13.815  -5.910  0.00  0.00     0.019 A 
ATOM      8  C   UNL d   1      27.721 -14.687  -4.814  0.00  0.00     0.063 A 
ATOM      9  C   UNL d   1      26.639 -15.271  -3.913  0.00  0.00     0.281 C 
ATOM     10  O   UNL d   1      25.458 -15.108  -4.214  0.00  0.00    -0.265 OA
ATOM     11  N   UNL d   1      27.042 -15.948  -2.718  0.00  0.00    -0.192 N 
ENDROOT
BRANCH  11  12
ATOM     12  N   UNL d   1      25.787 -16.421  -1.755  0.00  0.00    -0.258 N 
ATOM     13  C   UNL d   1      25.794 -17.467  -0.785  0.00  0.00     0.236 C 
ATOM     14  O   UNL d   1      26.815 -18.032  -0.484  0.00  0.00    -0.272 OA
ATOM     15  H   UNL d   1      24.922 -16.086  -2.174  0.00  0.00     0.190 HD
BRANCH  13  16
ATOM     16  C   UNL d   1      24.460 -18.031   0.011  0.00  0.00     0.106 C 
BRANCH  16  17
ATOM     17  C   UNL d   1      23.194 -18.237  -1.094  0.00  0.00     0.027 C 
BRANCH  17  18
ATOM     18  C   UNL d   1      21.766 -19.333  -0.974  0.00  0.00     0.020 C 
ATOM     19  C   UNL d   1      21.020 -18.199  -0.526  0.00  0.00     0.093 C 
ATOM     20  N   UNL d   1      19.830 -18.575  -1.055  0.00  0.00    -0.285 NA
ATOM     21  C   UNL d   1      19.545 -19.304   0.055  0.00  0.00     0.015 C 
ATOM     22  H   UNL d   1      19.829 -19.004  -1.976  0.00  0.00     0.128 HD
ATOM     23  C   UNL d   1      18.849 -18.953   1.217  0.00  0.00     0.024 C 
ATOM     24  C   UNL d   1      20.637 -20.209   0.047  0.00  0.00    -0.025 C 
ATOM     25  C   UNL d   1      18.510 -19.927   2.111  0.00  0.00     0.002 C 
ATOM     26  C   UNL d   1      18.868 -21.189   1.681  0.00  0.00     0.001 C 
ATOM     27  C   UNL d   1      19.915 -21.380   0.605  0.00  0.00     0.010 C 
ENDBRANCH  17  18
ENDBRANCH  16  17
ENDBRANCH  13  16
ENDBRANCH  11  12
BRANCH   1  28
ATOM     28  S   UNL d   1      29.105 -16.420  -0.916  0.00  0.00    -0.081 SA
BRANCH  28  29
ATOM     29  C   UNL d   1      30.188 -17.798  -1.414  0.00  0.00     0.185 C 
BRANCH  29  30
ATOM     30  C   UNL d   1      31.345 -17.276  -2.275  0.00  0.00     0.227 C 
ATOM     31  O   UNL d   1      32.072 -16.320  -2.002  0.00  0.00    -0.273 OA
ATOM     32  N   UNL d   1      31.609 -17.910  -3.456  0.00  0.00    -0.358 N 
ATOM     33  H   UNL d   1      32.409 -17.502  -3.928  0.00  0.00     0.162 HD
BRANCH  32  34
ATOM     34  C   UNL d   1      30.918 -19.044  -4.028  0.00  0.00     0.154 C 
BRANCH  34  35
ATOM     35  C   UNL d   1      30.405 -18.781  -5.444  0.00  0.00     0.139 C 
ATOM     36  C   UNL d   1      30.648 -19.948  -6.391  0.00  0.00     0.035 C 
ATOM     37  C   UNL d   1      30.824 -19.264  -7.721  0.00  0.00     0.029 C 
ATOM     38  C   UNL d   1      31.494 -17.962  -7.340  0.00  0.00     0.168 C 
ATOM     39  O   UNL d   1      31.095 -17.649  -6.000  0.00  0.00    -0.384 OA
ENDBRANCH  34  35
ENDBRANCH  32  34
ENDBRANCH  29  30
ENDBRANCH  28  29
ENDBRANCH   1  28
TORSDOF 9
ENDMDL
MODEL 4
REMARK VINA RESULT:   -31.115      2.729      4.746
REMARK INTER + INTRA:         -36.733
REMARK INTER:                 -33.799
REMARK INTRA:                  -2.933
REMARK CONF_INDEPENDENT:        2.685
REMARK UNBOUND:                -2.933
REMARK  9 active torsions:
REMARK  status: ('A' for Active; 'I' for Inactive)
REMARK    1  A    between atoms: C_2  and  C_3 
REMARK       I    between atoms: C_2  and  N_30 
REMARK    2  A    between atoms: C_3  and  S_4 
REMARK    3  A    between atoms: S_4  and  C_5 
REMARK    4  A    between atoms: N_15  and  N_16 
REMARK       I    between atoms: N_16  and  C_17 
REMARK    5  A    between atoms: C_17  and  C_19 
REMARK    6  A    between atoms: C_19  and  C_20 
REMARK    7  A    between atoms: C_20  and  C_21 
REMARK    8  A    between atoms: N_30  and  C_31 
REMARK    9  A    between atoms: C_31  and  C_32 
ROOT
ATOM      1  C   UNL d   1      27.501 -14.342  -1.449  0.00  0.00     0.192 C 
ATOM      2  N   UNL d   1      28.198 -13.420  -2.047  0.00  0.00    -0.222 NA
ATOM      3  C   UNL d   1      27.645 -12.637  -3.059  0.00  0.00     0.075 A 
ATOM      4  C   UNL d   1      28.371 -11.499  -3.486  0.00  0.00     0.032 A 
ATOM      5  C   UNL d   1      27.792 -10.525  -4.305  0.00  0.00     0.002 A 
ATOM      6  C   UNL d   1      26.494 -10.726  -4.770  0.00  0.00     0.001 A 
ATOM      7  C   UNL d   1      25.784 -11.896  -4.400  0.00  0.00     0.019 A 
ATOM      8  C   UNL d   1      26.349 -12.848  -3.511  0.00  0.00     0.063 A 
ATOM      9  C   UNL d   1      25.609 -14.046  -2.926  0.00  0.00     0.281 C 
ATOM     10  O   UNL d   1      24.484 -14.314  -3.341  0.00  0.00    -0.265 OA
ATOM     11  N   UNL d   1      26.238 -14.786  -1.874  0.00  0.00    -0.192 N 
ENDROOT
BRANCH  11  12
ATOM     12  N   UNL d   1      25.293 -15.974  -1.227  0.00  0.00    -0.258 N 
ATOM     13  C   UNL d   1      25.727 -17.226  -0.699  0.00  0.00     0.236 C 
ATOM     14  O   UNL d   1      26.899 -17.470  -0.555  0.00  0.00    -0.272 OA
ATOM     15  H   UNL d   1      24.339 -15.834  -1.553  0.00  0.00     0.190 HD
BRANCH  13  16
ATOM     16  C   UNL d   1      24.728 -18.462  -0.246  0.00  0.00     0.106 C 
BRANCH  16  17
ATOM     17  C   UNL d   1      23.241 -18.301  -1.039  0.00  0.00     0.027 C 
BRANCH  17  18
ATOM     18  C   UNL d   1      21.796 -19.376  -0.947  0.00  0.00     0.020 C 
ATOM     19  C   UNL d   1      21.058 -18.231  -0.514  0.00  0.00     0.093 C 
ATOM     20  N   UNL d   1      19.873 -18.590  -1.065  0.00  0.00    -0.285 NA
ATOM     21  C   UNL d   1      19.556 -19.314   0.040  0.00  0.00     0.015 C 
ATOM     22  H   UNL d   1      19.883 -19.020  -1.985  0.00  0.00     0.128 HD
ATOM     23  C   UNL d   1      18.843 -18.951   1.188  0.00  0.00     0.024 C 
ATOM     24  C   UNL d   1      20.635 -20.234   0.054  0.00  0.00    -0.025 C 
ATOM     25  C   UNL d   1      18.472 -19.920   2.076  0.00  0.00     0.002 C 
ATOM     26  C   UNL d   1      18.821 -21.187   1.654  0.00  0.00     0.001 C 
ATOM     27  C   UNL d   1      19.885 -21.395   0.598  0.00  0.00     0.010 C 
ENDBRANCH  17  18
ENDBRANCH  16  17
ENDBRANCH  13  16
ENDBRANCH  11  12
BRANCH   1  28
ATOM     28  S   UNL d   1      28.255 -14.818   0.039  0.00  0.00    -0.081 SA
BRANCH  28  29
ATOM     29  C   UNL d   1      29.864 -15.385  -0.602  0.00  0.00     0.185 C 
BRANCH  29  30
ATOM     30  C   UNL d   1      29.708 -16.745  -1.293  0.00  0.00     0.227 C 
ATOM     31  O   UNL d   1      29.516 -17.823  -0.727  0.00  0.00    -0.273 OA
ATOM     32  N   UNL d   1      29.789 -16.792  -2.655  0.00  0.00    -0.358 N 
ATOM     33  H   UNL d   1      29.644 -17.732  -3.006  0.00  0.00     0.162 HD
BRANCH  32  34
ATOM     34  C   UNL d   1      30.016 -15.694  -3.568  0.00  0.00     0.154 C 
BRANCH  34  35
ATOM     35  C   UNL d   1      29.308 -15.874  -4.911  0.00  0.00     0.139 C 
ATOM     36  C   UNL d   1      29.758 -14.868  -5.962  0.00  0.00     0.035 C 
ATOM     37  C   UNL d   1      28.521 -14.690  -6.802  0.00  0.00     0.029 C 
ATOM     38  C   UNL d   1      27.407 -14.841  -5.790  0.00  0.00     0.168 C 
ATOM     39  O   UNL d   1      27.894 -15.680  -4.735  0.00  0.00    -0.384 OA
ENDBRANCH  34  35
ENDBRANCH  32  34
ENDBRANCH  29  30
ENDBRANCH  28  29
ENDBRANCH   1  28
TORSDOF 9
ENDMDL
MODEL 5
REMARK VINA RESULT:   -30.970      2.874      3.409
REMARK INTER + INTRA:         -35.793
REMARK INTER:                 -33.655
REMARK INTRA:                  -2.138
REMARK CONF_INDEPENDENT:        2.685
REMARK UNBOUND:                -2.138
REMARK  9 active torsions:
REMARK  status: ('A' for Active; 'I' for Inactive)
REMARK    1  A    between atoms: C_2  and  C_3 
REMARK       I    between atoms: C_2  and  N_30 
REMARK    2  A    between atoms: C_3  and  S_4 
REMARK    3  A    between atoms: S_4  and  C_5 
REMARK    4  A    between atoms: N_15  and  N_16 
REMARK       I    between atoms: N_16  and  C_17 
REMARK    5  A    between atoms: C_17  and  C_19 
REMARK    6  A    between atoms: C_19  and  C_20 
REMARK    7  A    between atoms: C_20  and  C_21 
REMARK    8  A    between atoms: N_30  and  C_31 
REMARK    9  A    between atoms: C_31  and  C_32 
ROOT
ATOM      1  C   UNL d   1      27.148 -14.377  -0.870  0.00  0.00     0.192 C 
ATOM      2  N   UNL d   1      27.943 -13.488  -1.390  0.00  0.00    -0.222 NA
ATOM      3  C   UNL d   1      27.743 -13.006  -2.683  0.00  0.00     0.075 A 
ATOM      4  C   UNL d   1      28.486 -11.871  -3.087  0.00  0.00     0.032 A 
ATOM      5  C   UNL d   1      28.176 -11.170  -4.257  0.00  0.00     0.002 A 
ATOM      6  C   UNL d   1      27.159 -11.654  -5.078  0.00  0.00     0.001 A 
ATOM      7  C   UNL d   1      26.453 -12.828  -4.712  0.00  0.00     0.019 A 
ATOM      8  C   UNL d   1      26.723 -13.496  -3.488  0.00  0.00     0.063 A 
ATOM      9  C   UNL d   1      25.914 -14.661  -2.930  0.00  0.00     0.281 C 
ATOM     10  O   UNL d   1      25.044 -15.174  -3.630  0.00  0.00    -0.265 OA
ATOM     11  N   UNL d   1      26.167 -15.082  -1.585  0.00  0.00    -0.192 N 
ENDROOT
BRANCH  11  12
ATOM     12  N   UNL d   1      25.144 -16.258  -1.043  0.00  0.00    -0.258 N 
ATOM     13  C   UNL d   1      25.451 -17.313  -0.133  0.00  0.00     0.236 C 
ATOM     14  O   UNL d   1      26.508 -17.350   0.446  0.00  0.00    -0.272 OA
ATOM     15  H   UNL d   1      24.362 -16.323  -1.692  0.00  0.00     0.190 HD
BRANCH  13  16
ATOM     16  C   UNL d   1      24.450 -18.579   0.225  0.00  0.00     0.106 C 
BRANCH  16  17
ATOM     17  C   UNL d   1      23.217 -18.663  -0.932  0.00  0.00     0.027 C 
BRANCH  17  18
ATOM     18  C   UNL d   1      21.675 -19.596  -0.865  0.00  0.00     0.020 C 
ATOM     19  C   UNL d   1      21.056 -18.404  -0.375  0.00  0.00     0.093 C 
ATOM     20  N   UNL d   1      19.837 -18.622  -0.925  0.00  0.00    -0.285 NA
ATOM     21  C   UNL d   1      19.461 -19.358   0.154  0.00  0.00     0.015 C 
ATOM     22  H   UNL d   1      19.797 -19.013  -1.862  0.00  0.00     0.128 HD
ATOM     23  C   UNL d   1      18.797 -18.976   1.325  0.00  0.00     0.024 C 
ATOM     24  C   UNL d   1      20.445 -20.378   0.115  0.00  0.00    -0.025 C 
ATOM     25  C   UNL d   1      18.343 -19.941   2.177  0.00  0.00     0.002 C 
ATOM     26  C   UNL d   1      18.562 -21.217   1.699  0.00  0.00     0.001 C 
ATOM     27  C   UNL d   1      19.591 -21.482   0.621  0.00  0.00     0.010 C 
ENDBRANCH  17  18
ENDBRANCH  16  17
ENDBRANCH  13  16
ENDBRANCH  11  12
BRANCH   1  28
ATOM     28  S   UNL d   1      27.337 -14.440   0.854  0.00  0.00    -0.081 SA
BRANCH  28  29
ATOM     29  C   UNL d   1      26.343 -12.987   1.323  0.00  0.00     0.185 C 
BRANCH  29  30
ATOM     30  C   UNL d   1      26.923 -12.334   2.584  0.00  0.00     0.227 C 
ATOM     31  O   UNL d   1      27.317 -12.930   3.587  0.00  0.00    -0.273 OA
ATOM     32  N   UNL d   1      27.020 -10.973   2.621  0.00  0.00    -0.358 N 
ATOM     33  H   UNL d   1      27.442 -10.652   3.486  0.00  0.00     0.162 HD
BRANCH  32  34
ATOM     34  C   UNL d   1      26.629 -10.028   1.599  0.00  0.00     0.154 C 
BRANCH  34  35
ATOM     35  C   UNL d   1      26.241  -8.660   2.163  0.00  0.00     0.139 C 
ATOM     36  C   UNL d   1      26.591  -7.510   1.230  0.00  0.00     0.035 C 
ATOM     37  C   UNL d   1      26.875  -6.381   2.186  0.00  0.00     0.029 C 
ATOM     38  C   UNL d   1      27.482  -7.096   3.373  0.00  0.00     0.168 C 
ATOM     39  O   UNL d   1      26.957  -8.428   3.389  0.00  0.00    -0.384 OA
ENDBRANCH  34  35
ENDBRANCH  32  34
ENDBRANCH  29  30
ENDBRANCH  28  29
ENDBRANCH   1  28
TORSDOF 9
ENDMDL
MODEL 6
REMARK VINA RESULT:   -30.801      2.584      5.317
REMARK INTER + INTRA:         -37.084
REMARK INTER:                 -33.486
REMARK INTRA:                  -3.598
REMARK CONF_INDEPENDENT:        2.685
REMARK UNBOUND:                -3.598
REMARK  9 active torsions:
REMARK  status: ('A' for Active; 'I' for Inactive)
REMARK    1  A    between atoms: C_2  and  C_3 
REMARK       I    between atoms: C_2  and  N_30 
REMARK    2  A    between atoms: C_3  and  S_4 
REMARK    3  A    between atoms: S_4  and  C_5 
REMARK    4  A    between atoms: N_15  and  N_16 
REMARK       I    between atoms: N_16  and  C_17 
REMARK    5  A    between atoms: C_17  and  C_19 
REMARK    6  A    between atoms: C_19  and  C_20 
REMARK    7  A    between atoms: C_20  and  C_21 
REMARK    8  A    between atoms: N_30  and  C_31 
REMARK    9  A    between atoms: C_31  and  C_32 
ROOT
ATOM      1  C   UNL d   1      27.249 -14.290  -2.586  0.00  0.00     0.192 C 
ATOM      2  N   UNL d   1      27.930 -13.183  -2.633  0.00  0.00    -0.222 NA
ATOM      3  C   UNL d   1      28.083 -12.378  -1.505  0.00  0.00     0.075 A 
ATOM      4  C   UNL d   1      29.034 -11.331  -1.563  0.00  0.00     0.032 A 
ATOM      5  C   UNL d   1      29.435 -10.640  -0.416  0.00  0.00     0.002 A 
ATOM      6  C   UNL d   1      28.820 -10.943   0.798  0.00  0.00     0.001 A 
ATOM      7  C   UNL d   1      27.819 -11.946   0.852  0.00  0.00     0.019 A 
ATOM      8  C   UNL d   1      27.466 -12.695  -0.301  0.00  0.00     0.063 A 
ATOM      9  C   UNL d   1      26.528 -13.896  -0.311  0.00  0.00     0.281 C 
ATOM     10  O   UNL d   1      25.907 -14.178   0.711  0.00  0.00    -0.265 OA
ATOM     11  N   UNL d   1      26.445 -14.684  -1.505  0.00  0.00    -0.192 N 
ENDROOT
BRANCH  11  12
ATOM     12  N   UNL d   1      25.504 -16.032  -1.357  0.00  0.00    -0.258 N 
ATOM     13  C   UNL d   1      25.720 -17.141  -0.485  0.00  0.00     0.236 C 
ATOM     14  O   UNL d   1      26.585 -17.115   0.354  0.00  0.00    -0.272 OA
ATOM     15  H   UNL d   1      24.936 -16.117  -2.197  0.00  0.00     0.190 HD
BRANCH  13  16
ATOM     16  C   UNL d   1      24.863 -18.553  -0.516  0.00  0.00     0.106 C 
BRANCH  16  17
ATOM     17  C   UNL d   1      23.262 -18.227  -0.960  0.00  0.00     0.027 C 
BRANCH  17  18
ATOM     18  C   UNL d   1      21.837 -19.332  -0.917  0.00  0.00     0.020 C 
ATOM     19  C   UNL d   1      21.059 -18.201  -0.521  0.00  0.00     0.093 C 
ATOM     20  N   UNL d   1      19.904 -18.588  -1.115  0.00  0.00    -0.285 NA
ATOM     21  C   UNL d   1      19.560 -19.312  -0.019  0.00  0.00     0.015 C 
ATOM     22  H   UNL d   1      19.960 -19.023  -2.032  0.00  0.00     0.128 HD
ATOM     23  C   UNL d   1      18.795 -18.959   1.098  0.00  0.00     0.024 C 
ATOM     24  C   UNL d   1      20.656 -20.209   0.043  0.00  0.00    -0.025 C 
ATOM     25  C   UNL d   1      18.410 -19.930   1.977  0.00  0.00     0.002 C 
ATOM     26  C   UNL d   1      18.802 -21.192   1.577  0.00  0.00     0.001 C 
ATOM     27  C   UNL d   1      19.910 -21.383   0.564  0.00  0.00     0.010 C 
ENDBRANCH  17  18
ENDBRANCH  16  17
ENDBRANCH  13  16
ENDBRANCH  11  12
BRANCH   1  28
ATOM     28  S   UNL d   1      27.610 -15.296  -3.952  0.00  0.00    -0.081 SA
BRANCH  28  29
ATOM     29  C   UNL d   1      26.164 -14.922  -4.996  0.00  0.00     0.185 C 
BRANCH  29  30
ATOM     30  C   UNL d   1      25.154 -14.073  -4.215  0.00  0.00     0.227 C 
ATOM     31  O   UNL d   1      24.360 -14.492  -3.371  0.00  0.00    -0.273 OA
ATOM     32  N   UNL d   1      25.111 -12.730  -4.461  0.00  0.00    -0.358 N 
ATOM     33  H   UNL d   1      24.430 -12.264  -3.871  0.00  0.00     0.162 HD
BRANCH  32  34
ATOM     34  C   UNL d   1      25.912 -11.974  -5.396  0.00  0.00     0.154 C 
BRANCH  34  35
ATOM     35  C   UNL d   1      26.187 -10.543  -4.931  0.00  0.00     0.139 C 
ATOM     36  C   UNL d   1      27.656 -10.289  -4.623  0.00  0.00     0.035 C 
ATOM     37  C   UNL d   1      27.591  -9.252  -3.533  0.00  0.00     0.029 C 
ATOM     38  C   UNL d   1      26.331  -9.632  -2.786  0.00  0.00     0.168 C 
ATOM     39  O   UNL d   1      25.461 -10.288  -3.717  0.00  0.00    -0.384 OA
ENDBRANCH  34  35
ENDBRANCH  32  34
ENDBRANCH  29  30
ENDBRANCH  28  29
ENDBRANCH   1  28
TORSDOF 9
ENDMDL
MODEL 7
REMARK VINA RESULT:   -30.721      2.350      4.272
REMARK INTER + INTRA:         -36.539
REMARK INTER:                 -33.405
REMARK INTRA:                  -3.134
REMARK CONF_INDEPENDENT:        2.685
REMARK UNBOUND:                -3.134
REMARK  9 active torsions:
REMARK  status: ('A' for Active; 'I' for Inactive)
REMARK    1  A    between atoms: C_2  and  C_3 
REMARK       I    between atoms: C_2  and  N_30 
REMARK    2  A    between atoms: C_3  and  S_4 
REMARK    3  A    between atoms: S_4  and  C_5 
REMARK    4  A    between atoms: N_15  and  N_16 
REMARK       I    between atoms: N_16  and  C_17 
REMARK    5  A    between atoms: C_17  and  C_19 
REMARK    6  A    between atoms: C_19  and  C_20 
REMARK    7  A    between atoms: C_20  and  C_21 
REMARK    8  A    between atoms: N_30  and  C_31 
REMARK    9  A    between atoms: C_31  and  C_32 
ROOT
ATOM      1  C   UNL d   1      28.123 -15.262  -2.062  0.00  0.00     0.192 C 
ATOM      2  N   UNL d   1      29.127 -14.843  -2.775  0.00  0.00    -0.222 NA
ATOM      3  C   UNL d   1      29.001 -14.630  -4.147  0.00  0.00     0.075 A 
ATOM      4  C   UNL d   1      30.047 -13.941  -4.807  0.00  0.00     0.032 A 
ATOM      5  C   UNL d   1      29.901 -13.464  -6.114  0.00  0.00     0.002 A 
ATOM      6  C   UNL d   1      28.721 -13.745  -6.801  0.00  0.00     0.001 A 
ATOM      7  C   UNL d   1      27.695 -14.490  -6.168  0.00  0.00     0.019 A 
ATOM      8  C   UNL d   1      27.818 -14.912  -4.818  0.00  0.00     0.063 A 
ATOM      9  C   UNL d   1      26.712 -15.570  -4.001  0.00  0.00     0.281 C 
ATOM     10  O   UNL d   1      25.670 -15.900  -4.564  0.00  0.00    -0.265 OA
ATOM     11  N   UNL d   1      26.911 -15.733  -2.593  0.00  0.00    -0.192 N 
ENDROOT
BRANCH  11  12
ATOM     12  N   UNL d   1      25.599 -16.332  -1.791  0.00  0.00    -0.258 N 
ATOM     13  C   UNL d   1      25.589 -16.984  -0.522  0.00  0.00     0.236 C 
ATOM     14  O   UNL d   1      26.581 -17.032   0.162  0.00  0.00    -0.272 OA
ATOM     15  H   UNL d   1      24.848 -16.465  -2.466  0.00  0.00     0.190 HD
BRANCH  13  16
ATOM     16  C   UNL d   1      24.281 -17.740   0.146  0.00  0.00     0.106 C 
BRANCH  16  17
ATOM     17  C   UNL d   1      23.224 -18.223  -1.084  0.00  0.00     0.027 C 
BRANCH  17  18
ATOM     18  C   UNL d   1      21.800 -19.325  -0.973  0.00  0.00     0.020 C 
ATOM     19  C   UNL d   1      21.046 -18.193  -0.534  0.00  0.00     0.093 C 
ATOM     20  N   UNL d   1      19.861 -18.575  -1.071  0.00  0.00    -0.285 NA
ATOM     21  C   UNL d   1      19.571 -19.303   0.039  0.00  0.00     0.015 C 
ATOM     22  H   UNL d   1      19.869 -19.006  -1.991  0.00  0.00     0.128 HD
ATOM     23  C   UNL d   1      18.864 -18.951   1.194  0.00  0.00     0.024 C 
ATOM     24  C   UNL d   1      20.666 -20.203   0.042  0.00  0.00    -0.025 C 
ATOM     25  C   UNL d   1      18.522 -19.925   2.088  0.00  0.00     0.002 C 
ATOM     26  C   UNL d   1      18.889 -21.186   1.664  0.00  0.00     0.001 C 
ATOM     27  C   UNL d   1      19.945 -21.376   0.596  0.00  0.00     0.010 C 
ENDBRANCH  17  18
ENDBRANCH  16  17
ENDBRANCH  13  16
ENDBRANCH  11  12
BRANCH   1  28
ATOM     28  S   UNL d   1      28.409 -14.991  -0.372  0.00  0.00    -0.081 SA
BRANCH  28  29
ATOM     29  C   UNL d   1      26.985 -13.920   0.010  0.00  0.00     0.185 C 
BRANCH  29  30
ATOM     30  C   UNL d   1      27.320 -12.459  -0.315  0.00  0.00     0.227 C 
ATOM     31  O   UNL d   1      27.896 -11.668   0.434  0.00  0.00    -0.273 OA
ATOM     32  N   UNL d   1      26.956 -11.968  -1.536  0.00  0.00    -0.358 N 
ATOM     33  H   UNL d   1      27.251 -11.005  -1.654  0.00  0.00     0.162 HD
BRANCH  32  34
ATOM     34  C   UNL d   1      26.266 -12.662  -2.600  0.00  0.00     0.154 C 
BRANCH  34  35
ATOM     35  C   UNL d   1      25.793 -11.729  -3.716  0.00  0.00     0.139 C 
ATOM     36  C   UNL d   1      26.091 -12.267  -5.109  0.00  0.00     0.035 C 
ATOM     37  C   UNL d   1      26.295 -11.011  -5.913  0.00  0.00     0.029 C 
ATOM     38  C   UNL d   1      26.925 -10.071  -4.908  0.00  0.00     0.168 C 
ATOM     39  O   UNL d   1      26.476 -10.469  -3.607  0.00  0.00    -0.384 OA
ENDBRANCH  34  35
ENDBRANCH  32  34
ENDBRANCH  29  30
ENDBRANCH  28  29
ENDBRANCH   1  28
TORSDOF 9
ENDMDL
MODEL 8
REMARK VINA RESULT:   -30.664      2.082      5.489
REMARK INTER + INTRA:         -35.938
REMARK INTER:                 -33.349
REMARK INTRA:                  -2.589
REMARK CONF_INDEPENDENT:        2.685
REMARK UNBOUND:                -2.589
REMARK  9 active torsions:
REMARK  status: ('A' for Active; 'I' for Inactive)
REMARK    1  A    between atoms: C_2  and  C_3 
REMARK       I    between atoms: C_2  and  N_30 
REMARK    2  A    between atoms: C_3  and  S_4 
REMARK    3  A    between atoms: S_4  and  C_5 
REMARK    4  A    between atoms: N_15  and  N_16 
REMARK       I    between atoms: N_16  and  C_17 
REMARK    5  A    between atoms: C_17  and  C_19 
REMARK    6  A    between atoms: C_19  and  C_20 
REMARK    7  A    between atoms: C_20  and  C_21 
REMARK    8  A    between atoms: N_30  and  C_31 
REMARK    9  A    between atoms: C_31  and  C_32 
ROOT
ATOM      1  C   UNL d   1      28.827 -15.370  -1.493  0.00  0.00     0.192 C 
ATOM      2  N   UNL d   1      29.502 -14.295  -1.773  0.00  0.00    -0.222 NA
ATOM      3  C   UNL d   1      29.457 -13.175  -0.944  0.00  0.00     0.075 A 
ATOM      4  C   UNL d   1      30.402 -12.145  -1.172  0.00  0.00     0.032 A 
ATOM      5  C   UNL d   1      30.597 -11.112  -0.250  0.00  0.00     0.002 A 
ATOM      6  C   UNL d   1      29.785 -11.062   0.882  0.00  0.00     0.001 A 
ATOM      7  C   UNL d   1      28.793 -12.054   1.084  0.00  0.00     0.019 A 
ATOM      8  C   UNL d   1      28.644 -13.140   0.181  0.00  0.00     0.063 A 
ATOM      9  C   UNL d   1      27.726 -14.337   0.396  0.00  0.00     0.281 C 
ATOM     10  O   UNL d   1      26.940 -14.326   1.341  0.00  0.00    -0.265 OA
ATOM     11  N   UNL d   1      27.850 -15.457  -0.488  0.00  0.00    -0.192 N 
ENDROOT
BRANCH  11  12
ATOM     12  N   UNL d   1      26.903 -16.746  -0.080  0.00  0.00    -0.258 N 
ATOM     13  C   UNL d   1      25.766 -17.236  -0.790  0.00  0.00     0.236 C 
ATOM     14  O   UNL d   1      25.474 -16.801  -1.876  0.00  0.00    -0.272 OA
ATOM     15  H   UNL d   1      27.039 -16.940   0.909  0.00  0.00     0.190 HD
BRANCH  13  16
ATOM     16  C   UNL d   1      24.734 -18.403  -0.239  0.00  0.00     0.106 C 
BRANCH  16  17
ATOM     17  C   UNL d   1      23.241 -18.246  -1.021  0.00  0.00     0.027 C 
BRANCH  17  18
ATOM     18  C   UNL d   1      21.810 -19.341  -0.940  0.00  0.00     0.020 C 
ATOM     19  C   UNL d   1      21.051 -18.205  -0.520  0.00  0.00     0.093 C 
ATOM     20  N   UNL d   1      19.878 -18.583  -1.083  0.00  0.00    -0.285 NA
ATOM     21  C   UNL d   1      19.559 -19.307   0.021  0.00  0.00     0.015 C 
ATOM     22  H   UNL d   1      19.905 -19.016  -2.002  0.00  0.00     0.128 HD
ATOM     23  C   UNL d   1      18.828 -18.950   1.160  0.00  0.00     0.024 C 
ATOM     24  C   UNL d   1      20.650 -20.212   0.051  0.00  0.00    -0.025 C 
ATOM     25  C   UNL d   1      18.461 -19.920   2.047  0.00  0.00     0.002 C 
ATOM     26  C   UNL d   1      18.832 -21.184   1.634  0.00  0.00     0.001 C 
ATOM     27  C   UNL d   1      19.911 -21.381   0.591  0.00  0.00     0.010 C 
ENDBRANCH  17  18
ENDBRANCH  16  17
ENDBRANCH  13  16
ENDBRANCH  11  12
BRANCH   1  28
ATOM     28  S   UNL d   1      29.419 -16.726  -2.399  0.00  0.00    -0.081 SA
BRANCH  28  29
ATOM     29  C   UNL d   1      30.437 -15.847  -3.630  0.00  0.00     0.185 C 
BRANCH  29  30
ATOM     30  C   UNL d   1      29.996 -16.228  -5.049  0.00  0.00     0.227 C 
ATOM     31  O   UNL d   1      30.260 -17.283  -5.627  0.00  0.00    -0.273 OA
ATOM     32  N   UNL d   1      29.245 -15.332  -5.754  0.00  0.00    -0.358 N 
ATOM     33  H   UNL d   1      28.986 -15.696  -6.665  0.00  0.00     0.162 HD
BRANCH  32  34
ATOM     34  C   UNL d   1      28.798 -14.023  -5.333  0.00  0.00     0.154 C 
BRANCH  34  35
ATOM     35  C   UNL d   1      27.278 -13.924  -5.195  0.00  0.00     0.139 C 
ATOM     36  C   UNL d   1      26.813 -13.879  -3.746  0.00  0.00     0.035 C 
ATOM     37  C   UNL d   1      25.466 -14.549  -3.810  0.00  0.00     0.029 C 
ATOM     38  C   UNL d   1      25.657 -15.578  -4.902  0.00  0.00     0.168 C 
ATOM     39  O   UNL d   1      26.668 -15.083  -5.788  0.00  0.00    -0.384 OA
ENDBRANCH  34  35
ENDBRANCH  32  34
ENDBRANCH  29  30
ENDBRANCH  28  29
ENDBRANCH   1  28
TORSDOF 9
ENDMDL
MODEL 9
REMARK VINA RESULT:   -30.554      2.566      3.928
REMARK INTER + INTRA:         -35.744
REMARK INTER:                 -33.239
REMARK INTRA:                  -2.505
REMARK CONF_INDEPENDENT:        2.685
REMARK UNBOUND:                -2.505
REMARK  9 active torsions:
REMARK  status: ('A' for Active; 'I' for Inactive)
REMARK    1  A    between atoms: C_2  and  C_3 
REMARK       I    between atoms: C_2  and  N_30 
REMARK    2  A    between atoms: C_3  and  S_4 
REMARK    3  A    between atoms: S_4  and  C_5 
REMARK    4  A    between atoms: N_15  and  N_16 
REMARK       I    between atoms: N_16  and  C_17 
REMARK    5  A    between atoms: C_17  and  C_19 
REMARK    6  A    between atoms: C_19  and  C_20 
REMARK    7  A    between atoms: C_20  and  C_21 
REMARK    8  A    between atoms: N_30  and  C_31 
REMARK    9  A    between atoms: C_31  and  C_32 
ROOT
ATOM      1  C   UNL d   1      26.733 -13.771  -1.123  0.00  0.00     0.192 C 
ATOM      2  N   UNL d   1      27.428 -12.786  -1.611  0.00  0.00    -0.222 NA
ATOM      3  C   UNL d   1      27.196 -12.303  -2.898  0.00  0.00     0.075 A 
ATOM      4  C   UNL d   1      27.809 -11.081  -3.267  0.00  0.00     0.032 A 
ATOM      5  C   UNL d   1      27.440 -10.397  -4.429  0.00  0.00     0.002 A 
ATOM      6  C   UNL d   1      26.500 -10.977  -5.278  0.00  0.00     0.001 A 
ATOM      7  C   UNL d   1      25.929 -12.232  -4.948  0.00  0.00     0.019 A 
ATOM      8  C   UNL d   1      26.253 -12.891  -3.732  0.00  0.00     0.063 A 
ATOM      9  C   UNL d   1      25.575 -14.153  -3.212  0.00  0.00     0.281 C 
ATOM     10  O   UNL d   1      24.783 -14.748  -3.938  0.00  0.00    -0.265 OA
ATOM     11  N   UNL d   1      25.853 -14.570  -1.871  0.00  0.00    -0.192 N 
ENDROOT
BRANCH  11  12
ATOM     12  N   UNL d   1      24.963 -15.868  -1.371  0.00  0.00    -0.258 N 
ATOM     13  C   UNL d   1      25.282 -16.774  -0.317  0.00  0.00     0.236 C 
ATOM     14  O   UNL d   1      26.215 -16.572   0.419  0.00  0.00    -0.272 OA
ATOM     15  H   UNL d   1      24.327 -16.125  -2.123  0.00  0.00     0.190 HD
BRANCH  13  16
ATOM     16  C   UNL d   1      24.462 -18.170   0.015  0.00  0.00     0.106 C 
BRANCH  16  17
ATOM     17  C   UNL d   1      23.210 -18.364  -1.108  0.00  0.00     0.027 C 
BRANCH  17  18
ATOM     18  C   UNL d   1      21.744 -19.409  -0.987  0.00  0.00     0.020 C 
ATOM     19  C   UNL d   1      21.045 -18.254  -0.518  0.00  0.00     0.093 C 
ATOM     20  N   UNL d   1      19.836 -18.580  -1.038  0.00  0.00    -0.285 NA
ATOM     21  C   UNL d   1      19.536 -19.311   0.066  0.00  0.00     0.015 C 
ATOM     22  H   UNL d   1      19.811 -18.998  -1.964  0.00  0.00     0.128 HD
ATOM     23  C   UNL d   1      18.865 -18.949   1.239  0.00  0.00     0.024 C 
ATOM     24  C   UNL d   1      20.594 -20.255   0.037  0.00  0.00    -0.025 C 
ATOM     25  C   UNL d   1      18.499 -19.920   2.125  0.00  0.00     0.002 C 
ATOM     26  C   UNL d   1      18.807 -21.189   1.677  0.00  0.00     0.001 C 
ATOM     27  C   UNL d   1      19.835 -21.406   0.588  0.00  0.00     0.010 C 
ENDBRANCH  17  18
ENDBRANCH  16  17
ENDBRANCH  13  16
ENDBRANCH  11  12
BRANCH   1  28
ATOM     28  S   UNL d   1      26.898 -13.849   0.602  0.00  0.00    -0.081 SA
BRANCH  28  29
ATOM     29  C   UNL d   1      28.415 -14.853   0.717  0.00  0.00     0.185 C 
BRANCH  29  30
ATOM     30  C   UNL d   1      29.452 -14.362  -0.300  0.00  0.00     0.227 C 
ATOM     31  O   UNL d   1      30.179 -13.376  -0.169  0.00  0.00    -0.273 OA
ATOM     32  N   UNL d   1      29.599 -15.062  -1.464  0.00  0.00    -0.358 N 
ATOM     33  H   UNL d   1      30.328 -14.667  -2.048  0.00  0.00     0.162 HD
BRANCH  32  34
ATOM     34  C   UNL d   1      28.878 -16.242  -1.885  0.00  0.00     0.154 C 
BRANCH  34  35
ATOM     35  C   UNL d   1      29.799 -17.386  -2.312  0.00  0.00     0.139 C 
ATOM     36  C   UNL d   1      30.393 -18.145  -1.134  0.00  0.00     0.035 C 
ATOM     37  C   UNL d   1      31.726 -18.597  -1.668  0.00  0.00     0.029 C 
ATOM     38  C   UNL d   1      32.116 -17.463  -2.592  0.00  0.00     0.168 C 
ATOM     39  O   UNL d   1      30.906 -16.854  -3.059  0.00  0.00    -0.384 OA
ENDBRANCH  34  35
ENDBRANCH  32  34
ENDBRANCH  29  30
ENDBRANCH  28  29
ENDBRANCH   1  28
TORSDOF 9
ENDMDL
