MODEL 1
REMARK VINA RESULT:    -8.793      0.000      0.000
REMARK INTER + INTRA:         -15.993
REMARK INTER:                 -12.671
REMARK INTRA:                  -3.322
REMARK CONF_INDEPENDENT:        3.878
REMARK UNBOUND:                -3.322
REMARK  13 active torsions:
REMARK  status: ('A' for Active; 'I' for Inactive)
REMARK    1  A    between atoms: C_2  and  C_4 
REMARK    2  A    between atoms: C_4  and  C_5 
REMARK    3  A    between atoms: C_5  and  O_6 
REMARK    4  A    between atoms: O_6  and  C_7 
REMARK    5  A    between atoms: C_10  and  C_11 
REMARK       I    between atoms: C_11  and  N_13 
REMARK    6  A    between atoms: N_13  and  C_14 
REMARK    7  A    between atoms: C_14  and  N_16 
REMARK    8  A    between atoms: N_16  and  C_17 
REMARK    9  A    between atoms: C_22  and  C_23 
REMARK       I    between atoms: C_23  and  N_25 
REMARK   10  A    between atoms: N_25  and  C_26 
REMARK   11  A    between atoms: C_26  and  C_27 
REMARK   12  A    between atoms: C_27  and  C_28 
REMARK   13  A    between atoms: C_28  and  O_29 
ROOT
ATOM      1  C   UNL d   1      26.237 -12.049  -3.065  0.00  0.00     0.179 C 
ATOM      2  S   UNL d   1      27.165 -10.743  -2.546  0.00  0.00    -0.040 SA
ENDROOT
BRANCH   1   3
ATOM      3  N   UNL d   1      25.946 -13.193  -2.271  0.00  0.00    -0.299 N 
ATOM      4  C   UNL d   1      25.212 -14.334  -2.699  0.00  0.00     0.257 C 
ATOM      5  O   UNL d   1      24.692 -14.446  -3.808  0.00  0.00    -0.267 OA
ATOM      6  H   UNL d   1      26.162 -13.119  -1.288  0.00  0.00     0.171 HD
BRANCH   4   7
ATOM      7  C   UNL d   1      24.873 -15.445  -1.761  0.00  0.00     0.033 C 
ATOM      8  C   UNL d   1      23.523 -15.848  -1.645  0.00  0.00     0.020 C 
ATOM      9  C   UNL d   1      23.158 -16.954  -0.871  0.00  0.00     0.039 C 
ATOM     10  C   UNL d   1      24.142 -17.713  -0.229  0.00  0.00     0.086 C 
ATOM     11  C   UNL d   1      25.484 -17.290  -0.327  0.00  0.00     0.045 C 
ATOM     12  C   UNL d   1      25.828 -16.127  -1.032  0.00  0.00     0.039 C 
ATOM     13 BR   UNL d   1      27.042 -18.242   0.231  0.00  0.00    -0.048 Br
BRANCH  10  14
ATOM     14  O   UNL d   1      23.653 -18.861   0.342  0.00  0.00    -0.350 OA
BRANCH  14  15
ATOM     15  C   UNL d   1      22.452 -19.352  -0.235  0.00  0.00     0.176 C 
BRANCH  15  16
ATOM     16  C   UNL d   1      21.242 -18.960   0.600  0.00  0.00     0.030 C 
BRANCH  16  17
ATOM     17  C   UNL d   1      20.117 -20.003   0.464  0.00  0.00    -0.021 C 
ATOM     18  C   UNL d   1      19.322 -20.073   1.764  0.00  0.00     0.009 C 
ATOM     19  C   UNL d   1      19.158 -19.694  -0.694  0.00  0.00     0.009 C 
ENDBRANCH  16  17
ENDBRANCH  15  16
ENDBRANCH  14  15
ENDBRANCH  10  14
ENDBRANCH   4   7
ENDBRANCH   1   3
BRANCH   1  20
ATOM     20  N   UNL d   1      25.746 -12.168  -4.400  0.00  0.00    -0.332 N 
ATOM     21  H   UNL d   1      24.804 -11.844  -4.591  0.00  0.00     0.168 HD
BRANCH  20  22
ATOM     22  C   UNL d   1      26.626 -12.155  -5.549  0.00  0.00     0.050 A 
ATOM     23  C   UNL d   1      26.646 -11.011  -6.381  0.00  0.00     0.030 A 
ATOM     24  C   UNL d   1      27.515 -10.928  -7.485  0.00  0.00     0.002 A 
ATOM     25  C   UNL d   1      28.403 -11.963  -7.750  0.00  0.00     0.001 A 
ATOM     26  C   UNL d   1      28.377 -13.110  -6.953  0.00  0.00     0.019 A 
ATOM     27  C   UNL d   1      27.480 -13.241  -5.868  0.00  0.00     0.058 A 
BRANCH  27  28
ATOM     28  C   UNL d   1      27.511 -14.559  -5.135  0.00  0.00     0.253 C 
ATOM     29  O   UNL d   1      27.041 -15.573  -5.668  0.00  0.00    -0.268 OA
ATOM     30  N   UNL d   1      28.062 -14.597  -3.871  0.00  0.00    -0.357 N 
ATOM     31  H   UNL d   1      28.434 -13.730  -3.511  0.00  0.00     0.162 HD
BRANCH  30  32
ATOM     32  C   UNL d   1      28.501 -15.850  -3.272  0.00  0.00     0.125 C 
BRANCH  32  33
ATOM     33  C   UNL d   1      29.543 -15.652  -2.188  0.00  0.00     0.046 C 
BRANCH  33  34
ATOM     34  C   UNL d   1      29.570 -14.272  -1.570  0.00  0.00     0.165 C 
BRANCH  34  35
ATOM     35  O   UNL d   1      28.237 -13.828  -1.348  0.00  0.00    -0.401 OA
ATOM     36  H   UNL d   1      27.679 -14.623  -1.369  0.00  0.00     0.209 HD
ENDBRANCH  34  35
ENDBRANCH  33  34
ENDBRANCH  32  33
ENDBRANCH  30  32
ENDBRANCH  27  28
ENDBRANCH  20  22
ENDBRANCH   1  20
TORSDOF 13
ENDMDL
MODEL 2
REMARK VINA RESULT:    -8.320      5.141      6.861
REMARK INTER + INTRA:         -14.135
REMARK INTER:                 -12.198
REMARK INTRA:                  -1.937
REMARK CONF_INDEPENDENT:        3.878
REMARK UNBOUND:                -1.937
REMARK  13 active torsions:
REMARK  status: ('A' for Active; 'I' for Inactive)
REMARK    1  A    between atoms: C_2  and  C_4 
REMARK    2  A    between atoms: C_4  and  C_5 
REMARK    3  A    between atoms: C_5  and  O_6 
REMARK    4  A    between atoms: O_6  and  C_7 
REMARK    5  A    between atoms: C_10  and  C_11 
REMARK       I    between atoms: C_11  and  N_13 
REMARK    6  A    between atoms: N_13  and  C_14 
REMARK    7  A    between atoms: C_14  and  N_16 
REMARK    8  A    between atoms: N_16  and  C_17 
REMARK    9  A    between atoms: C_22  and  C_23 
REMARK       I    between atoms: C_23  and  N_25 
REMARK   10  A    between atoms: N_25  and  C_26 
REMARK   11  A    between atoms: C_26  and  C_27 
REMARK   12  A    between atoms: C_27  and  C_28 
REMARK   13  A    between atoms: C_28  and  O_29 
ROOT
ATOM      1  C   UNL d   1      31.435 -18.362  -0.767  0.00  0.00     0.179 C 
ATOM      2  S   UNL d   1      32.391 -17.705   0.455  0.00  0.00    -0.040 SA
ENDROOT
BRANCH   1   3
ATOM      3  N   UNL d   1      30.016 -18.279  -0.808  0.00  0.00    -0.299 N 
ATOM      4  C   UNL d   1      29.264 -17.149  -1.233  0.00  0.00     0.257 C 
ATOM      5  O   UNL d   1      29.759 -16.076  -1.573  0.00  0.00    -0.267 OA
ATOM      6  H   UNL d   1      29.513 -19.036  -0.370  0.00  0.00     0.171 HD
BRANCH   4   7
ATOM      7  C   UNL d   1      27.773 -17.122  -1.149  0.00  0.00     0.033 C 
ATOM      8  C   UNL d   1      27.135 -17.884  -0.144  0.00  0.00     0.020 C 
ATOM      9  C   UNL d   1      25.753 -17.812   0.057  0.00  0.00     0.039 C 
ATOM     10  C   UNL d   1      24.980 -16.938  -0.715  0.00  0.00     0.086 C 
ATOM     11  C   UNL d   1      25.618 -16.200  -1.735  0.00  0.00     0.045 C 
ATOM     12  C   UNL d   1      26.991 -16.350  -1.986  0.00  0.00     0.039 C 
ATOM     13 BR   UNL d   1      24.880 -14.776  -2.770  0.00  0.00    -0.048 Br
BRANCH  10  14
ATOM     14  O   UNL d   1      23.678 -16.846  -0.288  0.00  0.00    -0.350 OA
BRANCH  14  15
ATOM     15  C   UNL d   1      22.830 -17.897  -0.724  0.00  0.00     0.176 C 
BRANCH  15  16
ATOM     16  C   UNL d   1      22.146 -18.575   0.454  0.00  0.00     0.030 C 
BRANCH  16  17
ATOM     17  C   UNL d   1      21.109 -19.606  -0.030  0.00  0.00    -0.021 C 
ATOM     18  C   UNL d   1      20.118 -19.901   1.091  0.00  0.00     0.009 C 
ATOM     19  C   UNL d   1      20.338 -19.135  -1.270  0.00  0.00     0.009 C 
ENDBRANCH  16  17
ENDBRANCH  15  16
ENDBRANCH  14  15
ENDBRANCH  10  14
ENDBRANCH   4   7
ENDBRANCH   1   3
BRANCH   1  20
ATOM     20  N   UNL d   1      31.969 -19.159  -1.823  0.00  0.00    -0.332 N 
ATOM     21  H   UNL d   1      32.450 -20.018  -1.575  0.00  0.00     0.168 HD
BRANCH  20  22
ATOM     22  C   UNL d   1      31.401 -19.157  -3.154  0.00  0.00     0.050 A 
ATOM     23  C   UNL d   1      31.043 -17.922  -3.743  0.00  0.00     0.030 A 
ATOM     24  C   UNL d   1      30.529 -17.860  -5.052  0.00  0.00     0.002 A 
ATOM     25  C   UNL d   1      30.405 -19.021  -5.806  0.00  0.00     0.001 A 
ATOM     26  C   UNL d   1      30.730 -20.251  -5.229  0.00  0.00     0.019 A 
ATOM     27  C   UNL d   1      31.201 -20.347  -3.899  0.00  0.00     0.058 A 
BRANCH  27  28
ATOM     28  C   UNL d   1      31.448 -21.742  -3.381  0.00  0.00     0.253 C 
ATOM     29  O   UNL d   1      32.300 -21.933  -2.504  0.00  0.00    -0.268 OA
ATOM     30  N   UNL d   1      30.712 -22.782  -3.911  0.00  0.00    -0.357 N 
ATOM     31  H   UNL d   1      30.029 -22.543  -4.614  0.00  0.00     0.162 HD
BRANCH  30  32
ATOM     32  C   UNL d   1      30.583 -24.053  -3.213  0.00  0.00     0.125 C 
BRANCH  32  33
ATOM     33  C   UNL d   1      29.277 -24.762  -3.516  0.00  0.00     0.046 C 
BRANCH  33  34
ATOM     34  C   UNL d   1      28.603 -25.402  -2.324  0.00  0.00     0.165 C 
BRANCH  34  35
ATOM     35  O   UNL d   1      27.780 -26.475  -2.765  0.00  0.00    -0.401 OA
ATOM     36  H   UNL d   1      27.594 -26.305  -3.703  0.00  0.00     0.209 HD
ENDBRANCH  34  35
ENDBRANCH  33  34
ENDBRANCH  32  33
ENDBRANCH  30  32
ENDBRANCH  27  28
ENDBRANCH  20  22
ENDBRANCH   1  20
TORSDOF 13
ENDMDL
MODEL 3
REMARK VINA RESULT:    -8.292      5.735      8.259
REMARK INTER + INTRA:         -15.352
REMARK INTER:                 -12.170
REMARK INTRA:                  -3.183
REMARK CONF_INDEPENDENT:        3.878
REMARK UNBOUND:                -3.183
REMARK  13 active torsions:
REMARK  status: ('A' for Active; 'I' for Inactive)
REMARK    1  A    between atoms: C_2  and  C_4 
REMARK    2  A    between atoms: C_4  and  C_5 
REMARK    3  A    between atoms: C_5  and  O_6 
REMARK    4  A    between atoms: O_6  and  C_7 
REMARK    5  A    between atoms: C_10  and  C_11 
REMARK       I    between atoms: C_11  and  N_13 
REMARK    6  A    between atoms: N_13  and  C_14 
REMARK    7  A    between atoms: C_14  and  N_16 
REMARK    8  A    between atoms: N_16  and  C_17 
REMARK    9  A    between atoms: C_22  and  C_23 
REMARK       I    between atoms: C_23  and  N_25 
REMARK   10  A    between atoms: N_25  and  C_26 
REMARK   11  A    between atoms: C_26  and  C_27 
REMARK   12  A    between atoms: C_27  and  C_28 
REMARK   13  A    between atoms: C_28  and  O_29 
ROOT
ATOM      1  C   UNL d   1      28.246 -15.883  -0.504  0.00  0.00     0.179 C 
ATOM      2  S   UNL d   1      29.169 -15.109  -1.681  0.00  0.00    -0.040 SA
ENDROOT
BRANCH   1   3
ATOM      3  N   UNL d   1      28.157 -15.463   0.852  0.00  0.00    -0.299 N 
ATOM      4  C   UNL d   1      27.570 -14.251   1.307  0.00  0.00     0.257 C 
ATOM      5  O   UNL d   1      27.108 -13.385   0.566  0.00  0.00    -0.267 OA
ATOM      6  H   UNL d   1      28.677 -16.010   1.522  0.00  0.00     0.171 HD
BRANCH   4   7
ATOM      7  C   UNL d   1      27.612 -13.850   2.745  0.00  0.00     0.033 C 
ATOM      8  C   UNL d   1      27.782 -14.854   3.726  0.00  0.00     0.020 C 
ATOM      9  C   UNL d   1      27.941 -14.531   5.077  0.00  0.00     0.039 C 
ATOM     10  C   UNL d   1      27.980 -13.190   5.476  0.00  0.00     0.086 C 
ATOM     11  C   UNL d   1      27.782 -12.194   4.496  0.00  0.00     0.045 C 
ATOM     12  C   UNL d   1      27.533 -12.534   3.158  0.00  0.00     0.039 C 
ATOM     13 BR   UNL d   1      28.017 -10.310   4.695  0.00  0.00    -0.048 Br
BRANCH  10  14
ATOM     14  O   UNL d   1      28.316 -13.027   6.796  0.00  0.00    -0.350 OA
BRANCH  14  15
ATOM     15  C   UNL d   1      29.297 -13.933   7.279  0.00  0.00     0.176 C 
BRANCH  15  16
ATOM     16  C   UNL d   1      29.326 -13.951   8.800  0.00  0.00     0.030 C 
BRANCH  16  17
ATOM     17  C   UNL d   1      28.500 -12.787   9.381  0.00  0.00    -0.021 C 
ATOM     18  C   UNL d   1      28.026 -13.144  10.786  0.00  0.00     0.009 C 
ATOM     19  C   UNL d   1      29.288 -11.471   9.437  0.00  0.00     0.009 C 
ENDBRANCH  16  17
ENDBRANCH  15  16
ENDBRANCH  14  15
ENDBRANCH  10  14
ENDBRANCH   4   7
ENDBRANCH   1   3
BRANCH   1  20
ATOM     20  N   UNL d   1      27.548 -17.104  -0.747  0.00  0.00    -0.332 N 
ATOM     21  H   UNL d   1      28.039 -17.976  -0.573  0.00  0.00     0.168 HD
BRANCH  20  22
ATOM     22  C   UNL d   1      26.107 -17.202  -0.650  0.00  0.00     0.050 A 
ATOM     23  C   UNL d   1      25.544 -18.099   0.289  0.00  0.00     0.030 A 
ATOM     24  C   UNL d   1      24.151 -18.199   0.455  0.00  0.00     0.002 A 
ATOM     25  C   UNL d   1      23.302 -17.380  -0.280  0.00  0.00     0.001 A 
ATOM     26  C   UNL d   1      23.841 -16.509  -1.228  0.00  0.00     0.019 A 
ATOM     27  C   UNL d   1      25.235 -16.423  -1.451  0.00  0.00     0.058 A 
BRANCH  27  28
ATOM     28  C   UNL d   1      25.676 -15.492  -2.553  0.00  0.00     0.253 C 
ATOM     29  O   UNL d   1      25.527 -15.821  -3.737  0.00  0.00    -0.268 OA
ATOM     30  N   UNL d   1      26.248 -14.284  -2.206  0.00  0.00    -0.357 N 
ATOM     31  H   UNL d   1      26.323 -14.084  -1.219  0.00  0.00     0.162 HD
BRANCH  30  32
ATOM     32  C   UNL d   1      26.321 -13.180  -3.153  0.00  0.00     0.125 C 
BRANCH  32  33
ATOM     33  C   UNL d   1      27.454 -13.335  -4.151  0.00  0.00     0.046 C 
BRANCH  33  34
ATOM     34  C   UNL d   1      27.039 -13.829  -5.518  0.00  0.00     0.165 C 
BRANCH  34  35
ATOM     35  O   UNL d   1      27.403 -15.197  -5.657  0.00  0.00    -0.401 OA
ATOM     36  H   UNL d   1      27.168 -15.626  -4.817  0.00  0.00     0.209 HD
ENDBRANCH  34  35
ENDBRANCH  33  34
ENDBRANCH  32  33
ENDBRANCH  30  32
ENDBRANCH  27  28
ENDBRANCH  20  22
ENDBRANCH   1  20
TORSDOF 13
ENDMDL
MODEL 4
REMARK VINA RESULT:    -8.253      6.040      8.458
REMARK INTER + INTRA:         -14.640
REMARK INTER:                 -12.131
REMARK INTRA:                  -2.509
REMARK CONF_INDEPENDENT:        3.878
REMARK UNBOUND:                -2.509
REMARK  13 active torsions:
REMARK  status: ('A' for Active; 'I' for Inactive)
REMARK    1  A    between atoms: C_2  and  C_4 
REMARK    2  A    between atoms: C_4  and  C_5 
REMARK    3  A    between atoms: C_5  and  O_6 
REMARK    4  A    between atoms: O_6  and  C_7 
REMARK    5  A    between atoms: C_10  and  C_11 
REMARK       I    between atoms: C_11  and  N_13 
REMARK    6  A    between atoms: N_13  and  C_14 
REMARK    7  A    between atoms: C_14  and  N_16 
REMARK    8  A    between atoms: N_16  and  C_17 
REMARK    9  A    between atoms: C_22  and  C_23 
REMARK       I    between atoms: C_23  and  N_25 
REMARK   10  A    between atoms: N_25  and  C_26 
REMARK   11  A    between atoms: C_26  and  C_27 
REMARK   12  A    between atoms: C_27  and  C_28 
REMARK   13  A    between atoms: C_28  and  O_29 
ROOT
ATOM      1  C   UNL d   1      28.884 -15.312  -0.258  0.00  0.00     0.179 C 
ATOM      2  S   UNL d   1      30.232 -14.962  -1.207  0.00  0.00    -0.040 SA
ENDROOT
BRANCH   1   3
ATOM      3  N   UNL d   1      28.773 -15.000   1.125  0.00  0.00    -0.299 N 
ATOM      4  C   UNL d   1      27.804 -14.136   1.704  0.00  0.00     0.257 C 
ATOM      5  O   UNL d   1      26.965 -13.506   1.061  0.00  0.00    -0.267 OA
ATOM      6  H   UNL d   1      29.531 -15.313   1.714  0.00  0.00     0.171 HD
BRANCH   4   7
ATOM      7  C   UNL d   1      27.827 -13.792   3.158  0.00  0.00     0.033 C 
ATOM      8  C   UNL d   1      27.806 -14.842   4.105  0.00  0.00     0.020 C 
ATOM      9  C   UNL d   1      27.939 -14.589   5.473  0.00  0.00     0.039 C 
ATOM     10  C   UNL d   1      28.144 -13.281   5.926  0.00  0.00     0.086 C 
ATOM     11  C   UNL d   1      28.136 -12.235   4.978  0.00  0.00     0.045 C 
ATOM     12  C   UNL d   1      27.911 -12.492   3.617  0.00  0.00     0.039 C 
ATOM     13 BR   UNL d   1      28.621 -10.411   5.263  0.00  0.00    -0.048 Br
BRANCH  10  14
ATOM     14  O   UNL d   1      28.432 -13.210   7.266  0.00  0.00    -0.350 OA
BRANCH  14  15
ATOM     15  C   UNL d   1      29.556 -13.974   7.677  0.00  0.00     0.176 C 
BRANCH  15  16
ATOM     16  C   UNL d   1      30.243 -13.337   8.875  0.00  0.00     0.030 C 
BRANCH  16  17
ATOM     17  C   UNL d   1      29.576 -13.779  10.192  0.00  0.00    -0.021 C 
ATOM     18  C   UNL d   1      28.852 -12.594  10.823  0.00  0.00     0.009 C 
ATOM     19  C   UNL d   1      28.580 -14.929   9.995  0.00  0.00     0.009 C 
ENDBRANCH  16  17
ENDBRANCH  15  16
ENDBRANCH  14  15
ENDBRANCH  10  14
ENDBRANCH   4   7
ENDBRANCH   1   3
BRANCH   1  20
ATOM     20  N   UNL d   1      27.768 -16.056  -0.745  0.00  0.00    -0.332 N 
ATOM     21  H   UNL d   1      27.478 -16.876  -0.223  0.00  0.00     0.168 HD
BRANCH  20  22
ATOM     22  C   UNL d   1      26.713 -15.443  -1.525  0.00  0.00     0.050 A 
ATOM     23  C   UNL d   1      27.033 -14.358  -2.374  0.00  0.00     0.030 A 
ATOM     24  C   UNL d   1      26.055 -13.756  -3.187  0.00  0.00     0.002 A 
ATOM     25  C   UNL d   1      24.757 -14.253  -3.197  0.00  0.00     0.001 A 
ATOM     26  C   UNL d   1      24.420 -15.307  -2.345  0.00  0.00     0.019 A 
ATOM     27  C   UNL d   1      25.371 -15.898  -1.482  0.00  0.00     0.058 A 
BRANCH  27  28
ATOM     28  C   UNL d   1      24.856 -16.980  -0.566  0.00  0.00     0.253 C 
ATOM     29  O   UNL d   1      25.573 -17.412   0.345  0.00  0.00    -0.268 OA
ATOM     30  N   UNL d   1      23.583 -17.472  -0.777  0.00  0.00    -0.357 N 
ATOM     31  H   UNL d   1      23.057 -17.060  -1.534  0.00  0.00     0.162 HD
BRANCH  30  32
ATOM     32  C   UNL d   1      22.865 -18.192   0.265  0.00  0.00     0.125 C 
BRANCH  32  33
ATOM     33  C   UNL d   1      22.018 -19.327  -0.279  0.00  0.00     0.046 C 
BRANCH  33  34
ATOM     34  C   UNL d   1      20.726 -18.902  -0.939  0.00  0.00     0.165 C 
BRANCH  34  35
ATOM     35  O   UNL d   1      20.795 -17.520  -1.267  0.00  0.00    -0.401 OA
ATOM     36  H   UNL d   1      20.025 -17.336  -1.830  0.00  0.00     0.209 HD
ENDBRANCH  34  35
ENDBRANCH  33  34
ENDBRANCH  32  33
ENDBRANCH  30  32
ENDBRANCH  27  28
ENDBRANCH  20  22
ENDBRANCH   1  20
TORSDOF 13
ENDMDL
MODEL 5
REMARK VINA RESULT:    -7.851      5.260      7.669
REMARK INTER + INTRA:         -14.407
REMARK INTER:                 -11.729
REMARK INTRA:                  -2.678
REMARK CONF_INDEPENDENT:        3.878
REMARK UNBOUND:                -2.678
REMARK  13 active torsions:
REMARK  status: ('A' for Active; 'I' for Inactive)
REMARK    1  A    between atoms: C_2  and  C_4 
REMARK    2  A    between atoms: C_4  and  C_5 
REMARK    3  A    between atoms: C_5  and  O_6 
REMARK    4  A    between atoms: O_6  and  C_7 
REMARK    5  A    between atoms: C_10  and  C_11 
REMARK       I    between atoms: C_11  and  N_13 
REMARK    6  A    between atoms: N_13  and  C_14 
REMARK    7  A    between atoms: C_14  and  N_16 
REMARK    8  A    between atoms: N_16  and  C_17 
REMARK    9  A    between atoms: C_22  and  C_23 
REMARK       I    between atoms: C_23  and  N_25 
REMARK   10  A    between atoms: N_25  and  C_26 
REMARK   11  A    between atoms: C_26  and  C_27 
REMARK   12  A    between atoms: C_27  and  C_28 
REMARK   13  A    between atoms: C_28  and  O_29 
ROOT
ATOM      1  C   UNL d   1      30.952 -14.355   2.003  0.00  0.00     0.179 C 
ATOM      2  S   UNL d   1      32.081 -13.372   1.232  0.00  0.00    -0.040 SA
ENDROOT
BRANCH   1   3
ATOM      3  N   UNL d   1      29.946 -15.104   1.331  0.00  0.00    -0.299 N 
ATOM      4  C   UNL d   1      28.843 -14.558   0.619  0.00  0.00     0.257 C 
ATOM      5  O   UNL d   1      28.596 -13.356   0.542  0.00  0.00    -0.267 OA
ATOM      6  H   UNL d   1      29.949 -16.100   1.495  0.00  0.00     0.171 HD
BRANCH   4   7
ATOM      7  C   UNL d   1      27.783 -15.428   0.027  0.00  0.00     0.033 C 
ATOM      8  C   UNL d   1      27.481 -16.656   0.658  0.00  0.00     0.020 C 
ATOM      9  C   UNL d   1      26.424 -17.459   0.218  0.00  0.00     0.039 C 
ATOM     10  C   UNL d   1      25.613 -17.030  -0.838  0.00  0.00     0.086 C 
ATOM     11  C   UNL d   1      25.937 -15.816  -1.481  0.00  0.00     0.045 C 
ATOM     12  C   UNL d   1      27.054 -15.064  -1.089  0.00  0.00     0.039 C 
ATOM     13 BR   UNL d   1      24.891 -14.874  -2.770  0.00  0.00    -0.048 Br
BRANCH  10  14
ATOM     14  O   UNL d   1      24.518 -17.833  -1.041  0.00  0.00    -0.350 OA
BRANCH  14  15
ATOM     15  C   UNL d   1      23.788 -18.156   0.133  0.00  0.00     0.176 C 
BRANCH  15  16
ATOM     16  C   UNL d   1      22.302 -17.890  -0.055  0.00  0.00     0.030 C 
BRANCH  16  17
ATOM     17  C   UNL d   1      21.510 -19.210  -0.117  0.00  0.00    -0.021 C 
ATOM     18  C   UNL d   1      20.612 -19.328   1.110  0.00  0.00     0.009 C 
ATOM     19  C   UNL d   1      20.649 -19.326  -1.382  0.00  0.00     0.009 C 
ENDBRANCH  16  17
ENDBRANCH  15  16
ENDBRANCH  14  15
ENDBRANCH  10  14
ENDBRANCH   4   7
ENDBRANCH   1   3
BRANCH   1  20
ATOM     20  N   UNL d   1      30.840 -14.439   3.424  0.00  0.00    -0.332 N 
ATOM     21  H   UNL d   1      31.696 -14.439   3.969  0.00  0.00     0.168 HD
BRANCH  20  22
ATOM     22  C   UNL d   1      29.680 -13.950   4.137  0.00  0.00     0.050 A 
ATOM     23  C   UNL d   1      28.597 -14.830   4.366  0.00  0.00     0.030 A 
ATOM     24  C   UNL d   1      27.465 -14.419   5.093  0.00  0.00     0.002 A 
ATOM     25  C   UNL d   1      27.413 -13.141   5.637  0.00  0.00     0.001 A 
ATOM     26  C   UNL d   1      28.463 -12.252   5.398  0.00  0.00     0.019 A 
ATOM     27  C   UNL d   1      29.591 -12.622   4.629  0.00  0.00     0.058 A 
BRANCH  27  28
ATOM     28  C   UNL d   1      30.617 -11.543   4.391  0.00  0.00     0.253 C 
ATOM     29  O   UNL d   1      30.257 -10.420   4.014  0.00  0.00    -0.268 OA
ATOM     30  N   UNL d   1      31.949 -11.843   4.595  0.00  0.00    -0.357 N 
ATOM     31  H   UNL d   1      32.160 -12.778   4.914  0.00  0.00     0.162 HD
BRANCH  30  32
ATOM     32  C   UNL d   1      32.941 -10.796   4.789  0.00  0.00     0.125 C 
BRANCH  32  33
ATOM     33  C   UNL d   1      34.237 -11.068   4.049  0.00  0.00     0.046 C 
BRANCH  33  34
ATOM     34  C   UNL d   1      34.670 -12.516   4.025  0.00  0.00     0.165 C 
BRANCH  34  35
ATOM     35  O   UNL d   1      33.581 -13.327   3.600  0.00  0.00    -0.401 OA
ATOM     36  H   UNL d   1      33.748 -14.214   3.959  0.00  0.00     0.209 HD
ENDBRANCH  34  35
ENDBRANCH  33  34
ENDBRANCH  32  33
ENDBRANCH  30  32
ENDBRANCH  27  28
ENDBRANCH  20  22
ENDBRANCH   1  20
TORSDOF 13
ENDMDL
MODEL 6
REMARK VINA RESULT:    -6.953      5.576      7.667
REMARK INTER + INTRA:         -14.797
REMARK INTER:                 -10.831
REMARK INTRA:                  -3.967
REMARK CONF_INDEPENDENT:        3.878
REMARK UNBOUND:                -3.967
REMARK  13 active torsions:
REMARK  status: ('A' for Active; 'I' for Inactive)
REMARK    1  A    between atoms: C_2  and  C_4 
REMARK    2  A    between atoms: C_4  and  C_5 
REMARK    3  A    between atoms: C_5  and  O_6 
REMARK    4  A    between atoms: O_6  and  C_7 
REMARK    5  A    between atoms: C_10  and  C_11 
REMARK       I    between atoms: C_11  and  N_13 
REMARK    6  A    between atoms: N_13  and  C_14 
REMARK    7  A    between atoms: C_14  and  N_16 
REMARK    8  A    between atoms: N_16  and  C_17 
REMARK    9  A    between atoms: C_22  and  C_23 
REMARK       I    between atoms: C_23  and  N_25 
REMARK   10  A    between atoms: N_25  and  C_26 
REMARK   11  A    between atoms: C_26  and  C_27 
REMARK   12  A    between atoms: C_27  and  C_28 
REMARK   13  A    between atoms: C_28  and  O_29 
ROOT
ATOM      1  C   UNL d   1      28.895 -16.530  -0.497  0.00  0.00     0.179 C 
ATOM      2  S   UNL d   1      30.212 -17.509  -0.881  0.00  0.00    -0.040 SA
ENDROOT
BRANCH   1   3
ATOM      3  N   UNL d   1      28.763 -15.802   0.718  0.00  0.00    -0.299 N 
ATOM      4  C   UNL d   1      27.623 -15.052   1.114  0.00  0.00     0.257 C 
ATOM      5  O   UNL d   1      26.619 -14.900   0.420  0.00  0.00    -0.267 OA
ATOM      6  H   UNL d   1      29.602 -15.704   1.271  0.00  0.00     0.171 HD
BRANCH   4   7
ATOM      7  C   UNL d   1      27.615 -14.238   2.367  0.00  0.00     0.033 C 
ATOM      8  C   UNL d   1      28.090 -14.825   3.561  0.00  0.00     0.020 C 
ATOM      9  C   UNL d   1      28.213 -14.082   4.739  0.00  0.00     0.039 C 
ATOM     10  C   UNL d   1      27.905 -12.717   4.738  0.00  0.00     0.086 C 
ATOM     11  C   UNL d   1      27.405 -12.143   3.550  0.00  0.00     0.045 C 
ATOM     12  C   UNL d   1      27.201 -12.921   2.400  0.00  0.00     0.039 C 
ATOM     13 BR   UNL d   1      27.131 -10.290   3.185  0.00  0.00    -0.048 Br
BRANCH  10  14
ATOM     14  O   UNL d   1      28.240 -12.085   5.910  0.00  0.00    -0.350 OA
BRANCH  14  15
ATOM     15  C   UNL d   1      28.572 -12.954   6.983  0.00  0.00     0.176 C 
BRANCH  15  16
ATOM     16  C   UNL d   1      28.544 -12.217   8.314  0.00  0.00     0.030 C 
BRANCH  16  17
ATOM     17  C   UNL d   1      29.195 -13.063   9.426  0.00  0.00    -0.021 C 
ATOM     18  C   UNL d   1      28.155 -13.996  10.036  0.00  0.00     0.009 C 
ATOM     19  C   UNL d   1      30.381 -13.895   8.920  0.00  0.00     0.009 C 
ENDBRANCH  16  17
ENDBRANCH  15  16
ENDBRANCH  14  15
ENDBRANCH  10  14
ENDBRANCH   4   7
ENDBRANCH   1   3
BRANCH   1  20
ATOM     20  N   UNL d   1      27.737 -16.432  -1.325  0.00  0.00    -0.332 N 
ATOM     21  H   UNL d   1      26.835 -16.326  -0.871  0.00  0.00     0.168 HD
BRANCH  20  22
ATOM     22  C   UNL d   1      27.793 -15.901  -2.670  0.00  0.00     0.050 A 
ATOM     23  C   UNL d   1      29.035 -15.881  -3.347  0.00  0.00     0.030 A 
ATOM     24  C   UNL d   1      29.136 -15.418  -4.671  0.00  0.00     0.002 A 
ATOM     25  C   UNL d   1      27.997 -15.008  -5.354  0.00  0.00     0.001 A 
ATOM     26  C   UNL d   1      26.768 -14.997  -4.691  0.00  0.00     0.019 A 
ATOM     27  C   UNL d   1      26.646 -15.410  -3.344  0.00  0.00     0.058 A 
BRANCH  27  28
ATOM     28  C   UNL d   1      25.274 -15.282  -2.732  0.00  0.00     0.253 C 
ATOM     29  O   UNL d   1      24.465 -14.467  -3.193  0.00  0.00    -0.268 OA
ATOM     30  N   UNL d   1      24.955 -16.084  -1.654  0.00  0.00    -0.357 N 
ATOM     31  H   UNL d   1      25.665 -16.732  -1.344  0.00  0.00     0.162 HD
BRANCH  30  32
ATOM     32  C   UNL d   1      23.572 -16.325  -1.270  0.00  0.00     0.125 C 
BRANCH  32  33
ATOM     33  C   UNL d   1      23.439 -17.340  -0.150  0.00  0.00     0.046 C 
BRANCH  33  34
ATOM     34  C   UNL d   1      24.575 -18.332  -0.047  0.00  0.00     0.165 C 
BRANCH  34  35
ATOM     35  O   UNL d   1      25.764 -17.651   0.336  0.00  0.00    -0.401 OA
ATOM     36  H   UNL d   1      25.494 -16.748   0.571  0.00  0.00     0.209 HD
ENDBRANCH  34  35
ENDBRANCH  33  34
ENDBRANCH  32  33
ENDBRANCH  30  32
ENDBRANCH  27  28
ENDBRANCH  20  22
ENDBRANCH   1  20
TORSDOF 13
ENDMDL
MODEL 7
REMARK VINA RESULT:    -6.856      3.452      5.011
REMARK INTER + INTRA:         -14.698
REMARK INTER:                 -10.734
REMARK INTRA:                  -3.964
REMARK CONF_INDEPENDENT:        3.878
REMARK UNBOUND:                -3.964
REMARK  13 active torsions:
REMARK  status: ('A' for Active; 'I' for Inactive)
REMARK    1  A    between atoms: C_2  and  C_4 
REMARK    2  A    between atoms: C_4  and  C_5 
REMARK    3  A    between atoms: C_5  and  O_6 
REMARK    4  A    between atoms: O_6  and  C_7 
REMARK    5  A    between atoms: C_10  and  C_11 
REMARK       I    between atoms: C_11  and  N_13 
REMARK    6  A    between atoms: N_13  and  C_14 
REMARK    7  A    between atoms: C_14  and  N_16 
REMARK    8  A    between atoms: N_16  and  C_17 
REMARK    9  A    between atoms: C_22  and  C_23 
REMARK       I    between atoms: C_23  and  N_25 
REMARK   10  A    between atoms: N_25  and  C_26 
REMARK   11  A    between atoms: C_26  and  C_27 
REMARK   12  A    between atoms: C_27  and  C_28 
REMARK   13  A    between atoms: C_28  and  O_29 
ROOT
ATOM      1  C   UNL d   1      30.367 -15.314  -6.119  0.00  0.00     0.179 C 
ATOM      2  S   UNL d   1      30.267 -14.054  -7.232  0.00  0.00    -0.040 SA
ENDROOT
BRANCH   1   3
ATOM      3  N   UNL d   1      29.499 -15.471  -5.003  0.00  0.00    -0.299 N 
ATOM      4  C   UNL d   1      28.079 -15.399  -5.041  0.00  0.00     0.257 C 
ATOM      5  O   UNL d   1      27.426 -15.140  -6.050  0.00  0.00    -0.267 OA
ATOM      6  H   UNL d   1      29.941 -15.496  -4.096  0.00  0.00     0.171 HD
BRANCH   4   7
ATOM      7  C   UNL d   1      27.256 -15.479  -3.797  0.00  0.00     0.033 C 
ATOM      8  C   UNL d   1      25.902 -15.074  -3.851  0.00  0.00     0.020 C 
ATOM      9  C   UNL d   1      25.052 -15.231  -2.752  0.00  0.00     0.039 C 
ATOM     10  C   UNL d   1      25.524 -15.840  -1.584  0.00  0.00     0.086 C 
ATOM     11  C   UNL d   1      26.883 -16.218  -1.528  0.00  0.00     0.045 C 
ATOM     12  C   UNL d   1      27.748 -15.972  -2.604  0.00  0.00     0.039 C 
ATOM     13 BR   UNL d   1      27.738 -17.269  -0.183  0.00  0.00    -0.048 Br
BRANCH  10  14
ATOM     14  O   UNL d   1      24.536 -16.084  -0.663  0.00  0.00    -0.350 OA
BRANCH  14  15
ATOM     15  C   UNL d   1      23.282 -16.455  -1.215  0.00  0.00     0.176 C 
BRANCH  15  16
ATOM     16  C   UNL d   1      22.355 -17.012  -0.145  0.00  0.00     0.030 C 
BRANCH  16  17
ATOM     17  C   UNL d   1      22.266 -18.548  -0.239  0.00  0.00    -0.021 C 
ATOM     18  C   UNL d   1      20.863 -18.954  -0.679  0.00  0.00     0.009 C 
ATOM     19  C   UNL d   1      23.290 -19.143  -1.215  0.00  0.00     0.009 C 
ENDBRANCH  16  17
ENDBRANCH  15  16
ENDBRANCH  14  15
ENDBRANCH  10  14
ENDBRANCH   4   7
ENDBRANCH   1   3
BRANCH   1  20
ATOM     20  N   UNL d   1      31.411 -16.287  -6.142  0.00  0.00    -0.332 N 
ATOM     21  H   UNL d   1      32.244 -16.104  -5.593  0.00  0.00     0.168 HD
BRANCH  20  22
ATOM     22  C   UNL d   1      31.152 -17.691  -6.384  0.00  0.00     0.050 A 
ATOM     23  C   UNL d   1      31.169 -18.170  -7.715  0.00  0.00     0.030 A 
ATOM     24  C   UNL d   1      30.969 -19.533  -8.001  0.00  0.00     0.002 A 
ATOM     25  C   UNL d   1      30.793 -20.443  -6.965  0.00  0.00     0.001 A 
ATOM     26  C   UNL d   1      30.748 -19.981  -5.648  0.00  0.00     0.019 A 
ATOM     27  C   UNL d   1      30.896 -18.610  -5.335  0.00  0.00     0.058 A 
BRANCH  27  28
ATOM     28  C   UNL d   1      30.758 -18.242  -3.879  0.00  0.00     0.253 C 
ATOM     29  O   UNL d   1      29.779 -17.589  -3.497  0.00  0.00    -0.268 OA
ATOM     30  N   UNL d   1      31.746 -18.642  -3.001  0.00  0.00    -0.357 N 
ATOM     31  H   UNL d   1      32.507 -19.181  -3.388  0.00  0.00     0.162 HD
BRANCH  30  32
ATOM     32  C   UNL d   1      31.508 -18.696  -1.566  0.00  0.00     0.125 C 
BRANCH  32  33
ATOM     33  C   UNL d   1      31.997 -17.456  -0.841  0.00  0.00     0.046 C 
BRANCH  33  34
ATOM     34  C   UNL d   1      31.082 -16.257  -0.935  0.00  0.00     0.165 C 
BRANCH  34  35
ATOM     35  O   UNL d   1      31.130 -15.729  -2.255  0.00  0.00    -0.401 OA
ATOM     36  H   UNL d   1      30.221 -15.771  -2.596  0.00  0.00     0.209 HD
ENDBRANCH  34  35
ENDBRANCH  33  34
ENDBRANCH  32  33
ENDBRANCH  30  32
ENDBRANCH  27  28
ENDBRANCH  20  22
ENDBRANCH   1  20
TORSDOF 13
ENDMDL
MODEL 8
REMARK VINA RESULT:    -6.490      1.810      2.966
REMARK INTER + INTRA:         -14.246
REMARK INTER:                 -10.367
REMARK INTRA:                  -3.878
REMARK CONF_INDEPENDENT:        3.878
REMARK UNBOUND:                -3.878
REMARK  13 active torsions:
REMARK  status: ('A' for Active; 'I' for Inactive)
REMARK    1  A    between atoms: C_2  and  C_4 
REMARK    2  A    between atoms: C_4  and  C_5 
REMARK    3  A    between atoms: C_5  and  O_6 
REMARK    4  A    between atoms: O_6  and  C_7 
REMARK    5  A    between atoms: C_10  and  C_11 
REMARK       I    between atoms: C_11  and  N_13 
REMARK    6  A    between atoms: N_13  and  C_14 
REMARK    7  A    between atoms: C_14  and  N_16 
REMARK    8  A    between atoms: N_16  and  C_17 
REMARK    9  A    between atoms: C_22  and  C_23 
REMARK       I    between atoms: C_23  and  N_25 
REMARK   10  A    between atoms: N_25  and  C_26 
REMARK   11  A    between atoms: C_26  and  C_27 
REMARK   12  A    between atoms: C_27  and  C_28 
REMARK   13  A    between atoms: C_28  and  O_29 
ROOT
ATOM      1  C   UNL d   1      29.301 -14.008  -5.302  0.00  0.00     0.179 C 
ATOM      2  S   UNL d   1      30.951 -13.679  -5.216  0.00  0.00    -0.040 SA
ENDROOT
BRANCH   1   3
ATOM      3  N   UNL d   1      28.514 -14.461  -4.207  0.00  0.00    -0.299 N 
ATOM      4  C   UNL d   1      27.320 -15.227  -4.305  0.00  0.00     0.257 C 
ATOM      5  O   UNL d   1      26.791 -15.552  -5.367  0.00  0.00    -0.267 OA
ATOM      6  H   UNL d   1      28.755 -14.086  -3.301  0.00  0.00     0.171 HD
BRANCH   4   7
ATOM      7  C   UNL d   1      26.509 -15.573  -3.100  0.00  0.00     0.033 C 
ATOM      8  C   UNL d   1      25.140 -15.219  -3.078  0.00  0.00     0.020 C 
ATOM      9  C   UNL d   1      24.304 -15.614  -2.029  0.00  0.00     0.039 C 
ATOM     10  C   UNL d   1      24.807 -16.414  -0.997  0.00  0.00     0.086 C 
ATOM     11  C   UNL d   1      26.179 -16.740  -1.011  0.00  0.00     0.045 C 
ATOM     12  C   UNL d   1      27.027 -16.262  -2.021  0.00  0.00     0.039 C 
ATOM     13 BR   UNL d   1      27.083 -17.992   0.112  0.00  0.00    -0.048 Br
BRANCH  10  14
ATOM     14  O   UNL d   1      23.835 -16.865  -0.139  0.00  0.00    -0.350 OA
BRANCH  14  15
ATOM     15  C   UNL d   1      23.211 -18.079  -0.530  0.00  0.00     0.176 C 
BRANCH  15  16
ATOM     16  C   UNL d   1      22.166 -18.511   0.489  0.00  0.00     0.030 C 
BRANCH  16  17
ATOM     17  C   UNL d   1      21.203 -19.550  -0.117  0.00  0.00    -0.021 C 
ATOM     18  C   UNL d   1      20.266 -20.074   0.967  0.00  0.00     0.009 C 
ATOM     19  C   UNL d   1      20.366 -18.982  -1.271  0.00  0.00     0.009 C 
ENDBRANCH  16  17
ENDBRANCH  15  16
ENDBRANCH  14  15
ENDBRANCH  10  14
ENDBRANCH   4   7
ENDBRANCH   1   3
BRANCH   1  20
ATOM     20  N   UNL d   1      28.565 -13.961  -6.524  0.00  0.00    -0.332 N 
ATOM     21  H   UNL d   1      27.739 -14.545  -6.605  0.00  0.00     0.168 HD
BRANCH  20  22
ATOM     22  C   UNL d   1      28.551 -12.787  -7.371  0.00  0.00     0.050 A 
ATOM     23  C   UNL d   1      29.267 -12.814  -8.590  0.00  0.00     0.030 A 
ATOM     24  C   UNL d   1      29.249 -11.717  -9.471  0.00  0.00     0.002 A 
ATOM     25  C   UNL d   1      28.484 -10.597  -9.170  0.00  0.00     0.001 A 
ATOM     26  C   UNL d   1      27.792 -10.544  -7.958  0.00  0.00     0.019 A 
ATOM     27  C   UNL d   1      27.833 -11.612  -7.032  0.00  0.00     0.058 A 
BRANCH  27  28
ATOM     28  C   UNL d   1      27.096 -11.394  -5.734  0.00  0.00     0.253 C 
ATOM     29  O   UNL d   1      27.010 -10.256  -5.256  0.00  0.00    -0.268 OA
ATOM     30  N   UNL d   1      26.536 -12.486  -5.103  0.00  0.00    -0.357 N 
ATOM     31  H   UNL d   1      26.639 -13.379  -5.563  0.00  0.00     0.162 HD
BRANCH  30  32
ATOM     32  C   UNL d   1      25.489 -12.330  -4.103  0.00  0.00     0.125 C 
BRANCH  32  33
ATOM     33  C   UNL d   1      25.991 -11.700  -2.818  0.00  0.00     0.046 C 
BRANCH  33  34
ATOM     34  C   UNL d   1      27.458 -11.922  -2.525  0.00  0.00     0.165 C 
BRANCH  34  35
ATOM     35  O   UNL d   1      27.611 -13.113  -1.762  0.00  0.00    -0.401 OA
ATOM     36  H   UNL d   1      27.976 -12.839  -0.904  0.00  0.00     0.209 HD
ENDBRANCH  34  35
ENDBRANCH  33  34
ENDBRANCH  32  33
ENDBRANCH  30  32
ENDBRANCH  27  28
ENDBRANCH  20  22
ENDBRANCH   1  20
TORSDOF 13
ENDMDL
MODEL 9
REMARK VINA RESULT:    -6.024      5.239      7.878
REMARK INTER + INTRA:         -14.267
REMARK INTER:                  -9.901
REMARK INTRA:                  -4.365
REMARK CONF_INDEPENDENT:        3.878
REMARK UNBOUND:                -4.365
REMARK  13 active torsions:
REMARK  status: ('A' for Active; 'I' for Inactive)
REMARK    1  A    between atoms: C_2  and  C_4 
REMARK    2  A    between atoms: C_4  and  C_5 
REMARK    3  A    between atoms: C_5  and  O_6 
REMARK    4  A    between atoms: O_6  and  C_7 
REMARK    5  A    between atoms: C_10  and  C_11 
REMARK       I    between atoms: C_11  and  N_13 
REMARK    6  A    between atoms: N_13  and  C_14 
REMARK    7  A    between atoms: C_14  and  N_16 
REMARK    8  A    between atoms: N_16  and  C_17 
REMARK    9  A    between atoms: C_22  and  C_23 
REMARK       I    between atoms: C_23  and  N_25 
REMARK   10  A    between atoms: N_25  and  C_26 
REMARK   11  A    between atoms: C_26  and  C_27 
REMARK   12  A    between atoms: C_27  and  C_28 
REMARK   13  A    between atoms: C_28  and  O_29 
ROOT
ATOM      1  C   UNL d   1      26.389 -14.251  -1.887  0.00  0.00     0.179 C 
ATOM      2  S   UNL d   1      26.615 -13.183  -3.169  0.00  0.00    -0.040 SA
ENDROOT
BRANCH   1   3
ATOM      3  N   UNL d   1      26.450 -13.883  -0.514  0.00  0.00    -0.299 N 
ATOM      4  C   UNL d   1      27.594 -13.992   0.323  0.00  0.00     0.257 C 
ATOM      5  O   UNL d   1      28.670 -14.472  -0.033  0.00  0.00    -0.267 OA
ATOM      6  H   UNL d   1      25.570 -13.657  -0.074  0.00  0.00     0.171 HD
BRANCH   4   7
ATOM      7  C   UNL d   1      27.534 -13.670   1.781  0.00  0.00     0.033 C 
ATOM      8  C   UNL d   1      27.785 -14.700   2.715  0.00  0.00     0.020 C 
ATOM      9  C   UNL d   1      27.854 -14.437   4.086  0.00  0.00     0.039 C 
ATOM     10  C   UNL d   1      27.719 -13.126   4.554  0.00  0.00     0.086 C 
ATOM     11  C   UNL d   1      27.442 -12.106   3.619  0.00  0.00     0.045 C 
ATOM     12  C   UNL d   1      27.285 -12.397   2.256  0.00  0.00     0.039 C 
ATOM     13 BR   UNL d   1      27.445 -10.222   3.925  0.00  0.00    -0.048 Br
BRANCH  10  14
ATOM     14  O   UNL d   1      27.984 -12.999   5.895  0.00  0.00    -0.350 OA
BRANCH  14  15
ATOM     15  C   UNL d   1      29.307 -13.343   6.278  0.00  0.00     0.176 C 
BRANCH  15  16
ATOM     16  C   UNL d   1      29.320 -14.074   7.612  0.00  0.00     0.030 C 
BRANCH  16  17
ATOM     17  C   UNL d   1      29.366 -13.077   8.786  0.00  0.00    -0.021 C 
ATOM     18  C   UNL d   1      28.434 -11.904   8.501  0.00  0.00     0.009 C 
ATOM     19  C   UNL d   1      28.972 -13.718  10.124  0.00  0.00     0.009 C 
ENDBRANCH  16  17
ENDBRANCH  15  16
ENDBRANCH  14  15
ENDBRANCH  10  14
ENDBRANCH   4   7
ENDBRANCH   1   3
BRANCH   1  20
ATOM     20  N   UNL d   1      26.220 -15.656  -2.070  0.00  0.00    -0.332 N 
ATOM     21  H   UNL d   1      27.024 -16.198  -2.369  0.00  0.00     0.168 HD
BRANCH  20  22
ATOM     22  C   UNL d   1      25.228 -16.416  -1.339  0.00  0.00     0.050 A 
ATOM     23  C   UNL d   1      23.859 -16.113  -1.528  0.00  0.00     0.030 A 
ATOM     24  C   UNL d   1      22.853 -16.851  -0.877  0.00  0.00     0.002 A 
ATOM     25  C   UNL d   1      23.194 -17.925  -0.064  0.00  0.00     0.001 A 
ATOM     26  C   UNL d   1      24.542 -18.220   0.152  0.00  0.00     0.019 A 
ATOM     27  C   UNL d   1      25.574 -17.464  -0.450  0.00  0.00     0.058 A 
BRANCH  27  28
ATOM     28  C   UNL d   1      26.984 -17.848  -0.076  0.00  0.00     0.253 C 
ATOM     29  O   UNL d   1      27.192 -18.884   0.569  0.00  0.00    -0.268 OA
ATOM     30  N   UNL d   1      28.018 -17.019  -0.462  0.00  0.00    -0.357 N 
ATOM     31  H   UNL d   1      27.767 -16.199  -0.995  0.00  0.00     0.162 HD
BRANCH  30  32
ATOM     32  C   UNL d   1      29.394 -17.493  -0.511  0.00  0.00     0.125 C 
BRANCH  32  33
ATOM     33  C   UNL d   1      30.107 -17.099  -1.791  0.00  0.00     0.046 C 
BRANCH  33  34
ATOM     34  C   UNL d   1      29.203 -16.651  -2.917  0.00  0.00     0.165 C 
BRANCH  34  35
ATOM     35  O   UNL d   1      28.860 -15.283  -2.731  0.00  0.00    -0.401 OA
ATOM     36  H   UNL d   1      28.655 -15.181  -1.787  0.00  0.00     0.209 HD
ENDBRANCH  34  35
ENDBRANCH  33  34
ENDBRANCH  32  33
ENDBRANCH  30  32
ENDBRANCH  27  28
ENDBRANCH  20  22
ENDBRANCH   1  20
TORSDOF 13
ENDMDL
