MODEL 1
REMARK VINA RESULT:    -8.219      0.000      0.000
REMARK INTER + INTRA:         -10.728
REMARK INTER:                 -10.009
REMARK INTRA:                  -0.719
REMARK CONF_INDEPENDENT:        1.790
REMARK UNBOUND:                -0.719
REMARK  6 active torsions:
REMARK  status: ('A' for Active; 'I' for Inactive)
REMARK    1  A    between atoms: C_2  and  C_3 
REMARK       I    between atoms: C_2  and  N_13 
REMARK    2  A    between atoms: C_3  and  C_4 
REMARK    3  A    between atoms: C_7  and  N_8 
REMARK    4  A    between atoms: N_13  and  N_14 
REMARK       I    between atoms: N_14  and  C_15 
REMARK       I    between atoms: C_15  and  N_17 
REMARK    5  A    between atoms: N_17  and  C_18 
REMARK    6  A    between atoms: C_18  and  C_19 
ROOT
ATOM      1  O   UNL d   1      26.568 -16.751  -2.155  0.00  0.00    -0.272 OA
ATOM      2  C   UNL d   1      26.839 -16.645  -0.957  0.00  0.00     0.240 C 
ATOM      3  N   UNL d   1      27.993 -15.984  -0.586  0.00  0.00    -0.266 N 
ATOM      4  H   UNL d   1      28.575 -15.616  -1.343  0.00  0.00     0.190 HD
ENDROOT
BRANCH   2   5
ATOM      5  C   UNL d   1      25.951 -17.208   0.139  0.00  0.00     0.143 C 
BRANCH   5   6
ATOM      6  C   UNL d   1      24.526 -17.567  -0.261  0.00  0.00    -0.049 A 
ATOM      7  C   UNL d   1      23.557 -16.576  -0.497  0.00  0.00     0.010 A 
ATOM      8  C   UNL d   1      22.218 -16.919  -0.721  0.00  0.00     0.036 A 
ATOM      9  C   UNL d   1      21.854 -18.268  -0.789  0.00  0.00     0.102 A 
ATOM     10  C   UNL d   1      22.806 -19.270  -0.570  0.00  0.00     0.036 A 
ATOM     11  C   UNL d   1      24.132 -18.915  -0.305  0.00  0.00     0.010 A 
BRANCH   9  12
ATOM     12  N   UNL d   1      20.478 -18.635  -1.148  0.00  0.00    -0.116 N 
ATOM     13  O   UNL d   1      19.577 -17.824  -0.895  0.00  0.00    -0.532 OA
ATOM     14  O   UNL d   1      20.299 -19.733  -1.696  0.00  0.00    -0.532 OA
ENDBRANCH   9  12
ENDBRANCH   5   6
ENDBRANCH   2   5
BRANCH   3  15
ATOM     15  N   UNL d   1      28.486 -15.779   0.725  0.00  0.00    -0.249 N 
ATOM     16  C   UNL d   1      27.847 -14.840   1.524  0.00  0.00     0.334 C 
ATOM     17  O   UNL d   1      26.872 -14.196   1.133  0.00  0.00    -0.246 OA
ATOM     18  N   UNL d   1      28.395 -14.689   2.781  0.00  0.00    -0.341 N 
ATOM     19  H   UNL d   1      29.183 -15.248   3.065  0.00  0.00     0.164 HD
ATOM     20  H   UNL d   1      29.280 -16.309   1.051  0.00  0.00     0.192 HD
BRANCH  18  21
ATOM     21  C   UNL d   1      27.820 -13.747   3.735  0.00  0.00     0.129 C 
BRANCH  21  22
ATOM     22  C   UNL d   1      27.774 -14.291   5.138  0.00  0.00     0.003 A 
ATOM     23  C   UNL d   1      29.021 -14.827   5.808  0.00  0.00     0.007 A 
ATOM     24  C   UNL d   1      28.447 -13.513   6.256  0.00  0.00     0.007 A 
ENDBRANCH  21  22
ENDBRANCH  18  21
ENDBRANCH   3  15
TORSDOF 6
ENDMDL
MODEL 2
REMARK VINA RESULT:    -7.860      1.233      1.689
REMARK INTER + INTRA:         -10.420
REMARK INTER:                  -9.650
REMARK INTRA:                  -0.771
REMARK CONF_INDEPENDENT:        1.790
REMARK UNBOUND:                -0.771
REMARK  6 active torsions:
REMARK  status: ('A' for Active; 'I' for Inactive)
REMARK    1  A    between atoms: C_2  and  C_3 
REMARK       I    between atoms: C_2  and  N_13 
REMARK    2  A    between atoms: C_3  and  C_4 
REMARK    3  A    between atoms: C_7  and  N_8 
REMARK    4  A    between atoms: N_13  and  N_14 
REMARK       I    between atoms: N_14  and  C_15 
REMARK       I    between atoms: C_15  and  N_17 
REMARK    5  A    between atoms: N_17  and  C_18 
REMARK    6  A    between atoms: C_18  and  C_19 
ROOT
ATOM      1  O   UNL d   1      26.409 -14.586  -1.093  0.00  0.00    -0.272 OA
ATOM      2  C   UNL d   1      26.782 -15.231  -0.111  0.00  0.00     0.240 C 
ATOM      3  N   UNL d   1      27.470 -14.585   0.896  0.00  0.00    -0.266 N 
ATOM      4  H   UNL d   1      27.641 -13.584   0.766  0.00  0.00     0.190 HD
ENDROOT
BRANCH   2   5
ATOM      5  C   UNL d   1      26.513 -16.718   0.045  0.00  0.00     0.143 C 
BRANCH   5   6
ATOM      6  C   UNL d   1      25.116 -17.197  -0.332  0.00  0.00    -0.049 A 
ATOM      7  C   UNL d   1      24.104 -16.293  -0.701  0.00  0.00     0.010 A 
ATOM      8  C   UNL d   1      22.790 -16.730  -0.903  0.00  0.00     0.036 A 
ATOM      9  C   UNL d   1      22.495 -18.094  -0.814  0.00  0.00     0.102 A 
ATOM     10  C   UNL d   1      23.491 -19.012  -0.463  0.00  0.00     0.036 A 
ATOM     11  C   UNL d   1      24.792 -18.559  -0.220  0.00  0.00     0.010 A 
BRANCH   9  12
ATOM     12  N   UNL d   1      21.147 -18.573  -1.148  0.00  0.00    -0.116 N 
ATOM     13  O   UNL d   1      21.041 -19.700  -1.651  0.00  0.00    -0.532 OA
ATOM     14  O   UNL d   1      20.191 -17.825  -0.895  0.00  0.00    -0.532 OA
ENDBRANCH   9  12
ENDBRANCH   5   6
ENDBRANCH   2   5
BRANCH   3  15
ATOM     15  N   UNL d   1      27.997 -15.150   2.082  0.00  0.00    -0.249 N 
ATOM     16  C   UNL d   1      27.769 -14.487   3.281  0.00  0.00     0.334 C 
ATOM     17  O   UNL d   1      27.123 -13.439   3.341  0.00  0.00    -0.246 OA
ATOM     18  N   UNL d   1      28.326 -15.094   4.387  0.00  0.00    -0.341 N 
ATOM     19  H   UNL d   1      28.833 -15.959   4.293  0.00  0.00     0.164 HD
ATOM     20  H   UNL d   1      28.521 -16.012   2.037  0.00  0.00     0.192 HD
BRANCH  18  21
ATOM     21  C   UNL d   1      28.158 -14.516   5.716  0.00  0.00     0.129 C 
BRANCH  21  22
ATOM     22  C   UNL d   1      29.390 -13.798   6.200  0.00  0.00     0.003 A 
ATOM     23  C   UNL d   1      29.339 -12.335   6.586  0.00  0.00     0.007 A 
ATOM     24  C   UNL d   1      29.477 -13.379   7.657  0.00  0.00     0.007 A 
ENDBRANCH  21  22
ENDBRANCH  18  21
ENDBRANCH   3  15
TORSDOF 6
ENDMDL
MODEL 3
REMARK VINA RESULT:    -6.783      3.462      4.924
REMARK INTER + INTRA:          -9.546
REMARK INTER:                  -8.573
REMARK INTRA:                  -0.973
REMARK CONF_INDEPENDENT:        1.790
REMARK UNBOUND:                -0.973
REMARK  6 active torsions:
REMARK  status: ('A' for Active; 'I' for Inactive)
REMARK    1  A    between atoms: C_2  and  C_3 
REMARK       I    between atoms: C_2  and  N_13 
REMARK    2  A    between atoms: C_3  and  C_4 
REMARK    3  A    between atoms: C_7  and  N_8 
REMARK    4  A    between atoms: N_13  and  N_14 
REMARK       I    between atoms: N_14  and  C_15 
REMARK       I    between atoms: C_15  and  N_17 
REMARK    5  A    between atoms: N_17  and  C_18 
REMARK    6  A    between atoms: C_18  and  C_19 
ROOT
ATOM      1  O   UNL d   1      26.511 -15.488  -1.682  0.00  0.00    -0.272 OA
ATOM      2  C   UNL d   1      27.012 -16.409  -1.033  0.00  0.00     0.240 C 
ATOM      3  N   UNL d   1      28.341 -16.725  -1.232  0.00  0.00    -0.266 N 
ATOM      4  H   UNL d   1      28.846 -16.170  -1.926  0.00  0.00     0.190 HD
ENDROOT
BRANCH   2   5
ATOM      5  C   UNL d   1      26.228 -17.214  -0.011  0.00  0.00     0.143 C 
BRANCH   5   6
ATOM      6  C   UNL d   1      24.796 -17.573  -0.386  0.00  0.00    -0.049 A 
ATOM      7  C   UNL d   1      23.846 -16.582  -0.691  0.00  0.00     0.010 A 
ATOM      8  C   UNL d   1      22.501 -16.914  -0.891  0.00  0.00     0.036 A 
ATOM      9  C   UNL d   1      22.110 -18.257  -0.865  0.00  0.00     0.102 A 
ATOM     10  C   UNL d   1      23.043 -19.260  -0.578  0.00  0.00     0.036 A 
ATOM     11  C   UNL d   1      24.377 -18.913  -0.337  0.00  0.00     0.010 A 
BRANCH   9  12
ATOM     12  N   UNL d   1      20.727 -18.622  -1.198  0.00  0.00    -0.116 N 
ATOM     13  O   UNL d   1      19.829 -17.825  -0.895  0.00  0.00    -0.532 OA
ATOM     14  O   UNL d   1      20.540 -19.703  -1.777  0.00  0.00    -0.532 OA
ENDBRANCH   9  12
ENDBRANCH   5   6
ENDBRANCH   2   5
BRANCH   3  15
ATOM     15  N   UNL d   1      29.086 -17.754  -0.606  0.00  0.00    -0.249 N 
ATOM     16  C   UNL d   1      30.296 -18.126  -1.179  0.00  0.00     0.334 C 
ATOM     17  O   UNL d   1      30.736 -17.588  -2.196  0.00  0.00    -0.246 OA
ATOM     18  N   UNL d   1      30.954 -19.142  -0.518  0.00  0.00    -0.341 N 
ATOM     19  H   UNL d   1      30.564 -19.542   0.320  0.00  0.00     0.164 HD
ATOM     20  H   UNL d   1      28.732 -18.192   0.231  0.00  0.00     0.192 HD
BRANCH  18  21
ATOM     21  C   UNL d   1      32.242 -19.629  -0.998  0.00  0.00     0.129 C 
BRANCH  21  22
ATOM     22  C   UNL d   1      32.491 -21.072  -0.644  0.00  0.00     0.003 A 
ATOM     23  C   UNL d   1      31.622 -21.786   0.369  0.00  0.00     0.007 A 
ATOM     24  C   UNL d   1      31.491 -22.125  -1.089  0.00  0.00     0.007 A 
ENDBRANCH  21  22
ENDBRANCH  18  21
ENDBRANCH   3  15
TORSDOF 6
ENDMDL
MODEL 4
REMARK VINA RESULT:    -6.531      3.347      5.745
REMARK INTER + INTRA:          -9.231
REMARK INTER:                  -8.321
REMARK INTRA:                  -0.910
REMARK CONF_INDEPENDENT:        1.790
REMARK UNBOUND:                -0.910
REMARK  6 active torsions:
REMARK  status: ('A' for Active; 'I' for Inactive)
REMARK    1  A    between atoms: C_2  and  C_3 
REMARK       I    between atoms: C_2  and  N_13 
REMARK    2  A    between atoms: C_3  and  C_4 
REMARK    3  A    between atoms: C_7  and  N_8 
REMARK    4  A    between atoms: N_13  and  N_14 
REMARK       I    between atoms: N_14  and  C_15 
REMARK       I    between atoms: C_15  and  N_17 
REMARK    5  A    between atoms: N_17  and  C_18 
REMARK    6  A    between atoms: C_18  and  C_19 
ROOT
ATOM      1  O   UNL d   1      26.610 -18.487   1.210  0.00  0.00    -0.272 OA
ATOM      2  C   UNL d   1      26.925 -17.744   0.278  0.00  0.00     0.240 C 
ATOM      3  N   UNL d   1      28.229 -17.752  -0.177  0.00  0.00    -0.266 N 
ATOM      4  H   UNL d   1      28.877 -18.383   0.300  0.00  0.00     0.190 HD
ENDROOT
BRANCH   2   5
ATOM      5  C   UNL d   1      25.933 -16.816  -0.403  0.00  0.00     0.143 C 
BRANCH   5   6
ATOM      6  C   UNL d   1      24.497 -17.315  -0.503  0.00  0.00    -0.049 A 
ATOM      7  C   UNL d   1      24.196 -18.688  -0.513  0.00  0.00     0.010 A 
ATOM      8  C   UNL d   1      22.890 -19.135  -0.751  0.00  0.00     0.036 A 
ATOM      9  C   UNL d   1      21.859 -18.203  -0.903  0.00  0.00     0.102 A 
ATOM     10  C   UNL d   1      22.136 -16.832  -0.882  0.00  0.00     0.036 A 
ATOM     11  C   UNL d   1      23.451 -16.396  -0.687  0.00  0.00     0.010 A 
BRANCH   9  12
ATOM     12  N   UNL d   1      20.470 -18.664  -1.027  0.00  0.00    -0.116 N 
ATOM     13  O   UNL d   1      19.567 -17.827  -0.895  0.00  0.00    -0.532 OA
ATOM     14  O   UNL d   1      20.282 -19.866  -1.270  0.00  0.00    -0.532 OA
ENDBRANCH   9  12
ENDBRANCH   5   6
ENDBRANCH   2   5
BRANCH   3  15
ATOM     15  N   UNL d   1      28.786 -16.963  -1.211  0.00  0.00    -0.249 N 
ATOM     16  C   UNL d   1      29.887 -17.463  -1.894  0.00  0.00     0.334 C 
ATOM     17  O   UNL d   1      30.380 -18.563  -1.634  0.00  0.00    -0.246 OA
ATOM     18  N   UNL d   1      30.379 -16.630  -2.877  0.00  0.00    -0.341 N 
ATOM     19  H   UNL d   1      29.935 -15.747  -3.067  0.00  0.00     0.164 HD
ATOM     20  H   UNL d   1      28.381 -16.065  -1.432  0.00  0.00     0.192 HD
BRANCH  18  21
ATOM     21  C   UNL d   1      31.526 -17.030  -3.685  0.00  0.00     0.129 C 
BRANCH  21  22
ATOM     22  C   UNL d   1      31.166 -18.023  -4.759  0.00  0.00     0.003 A 
ATOM     23  C   UNL d   1      30.899 -17.574  -6.179  0.00  0.00     0.007 A 
ATOM     24  C   UNL d   1      32.167 -18.313  -5.863  0.00  0.00     0.007 A 
ENDBRANCH  21  22
ENDBRANCH  18  21
ENDBRANCH   3  15
TORSDOF 6
ENDMDL
MODEL 5
REMARK VINA RESULT:    -6.524      3.154      5.348
REMARK INTER + INTRA:          -9.214
REMARK INTER:                  -8.314
REMARK INTRA:                  -0.900
REMARK CONF_INDEPENDENT:        1.790
REMARK UNBOUND:                -0.900
REMARK  6 active torsions:
REMARK  status: ('A' for Active; 'I' for Inactive)
REMARK    1  A    between atoms: C_2  and  C_3 
REMARK       I    between atoms: C_2  and  N_13 
REMARK    2  A    between atoms: C_3  and  C_4 
REMARK    3  A    between atoms: C_7  and  N_8 
REMARK    4  A    between atoms: N_13  and  N_14 
REMARK       I    between atoms: N_14  and  C_15 
REMARK       I    between atoms: C_15  and  N_17 
REMARK    5  A    between atoms: N_17  and  C_18 
REMARK    6  A    between atoms: C_18  and  C_19 
ROOT
ATOM      1  O   UNL d   1      25.947 -15.207  -1.154  0.00  0.00    -0.272 OA
ATOM      2  C   UNL d   1      26.564 -16.145  -0.645  0.00  0.00     0.240 C 
ATOM      3  N   UNL d   1      27.901 -16.312  -0.946  0.00  0.00    -0.266 N 
ATOM      4  H   UNL d   1      28.313 -15.636  -1.594  0.00  0.00     0.190 HD
ENDROOT
BRANCH   2   5
ATOM      5  C   UNL d   1      25.916 -17.132   0.312  0.00  0.00     0.143 C 
BRANCH   5   6
ATOM      6  C   UNL d   1      24.503 -17.582  -0.034  0.00  0.00    -0.049 A 
ATOM      7  C   UNL d   1      24.178 -18.944  -0.171  0.00  0.00     0.010 A 
ATOM      8  C   UNL d   1      22.916 -19.338  -0.630  0.00  0.00     0.036 A 
ATOM      9  C   UNL d   1      21.939 -18.369  -0.881  0.00  0.00     0.102 A 
ATOM     10  C   UNL d   1      22.238 -17.010  -0.738  0.00  0.00     0.036 A 
ATOM     11  C   UNL d   1      23.516 -16.624  -0.320  0.00  0.00     0.010 A 
BRANCH   9  12
ATOM     12  N   UNL d   1      20.577 -18.783  -1.241  0.00  0.00    -0.116 N 
ATOM     13  O   UNL d   1      20.447 -19.695  -2.069  0.00  0.00    -0.532 OA
ATOM     14  O   UNL d   1      19.633 -18.201  -0.685  0.00  0.00    -0.532 OA
ENDBRANCH   9  12
ENDBRANCH   5   6
ENDBRANCH   2   5
BRANCH   3  15
ATOM     15  N   UNL d   1      28.769 -17.330  -0.485  0.00  0.00    -0.249 N 
ATOM     16  C   UNL d   1      29.811 -17.726  -1.314  0.00  0.00     0.334 C 
ATOM     17  O   UNL d   1      30.004 -17.216  -2.419  0.00  0.00    -0.246 OA
ATOM     18  N   UNL d   1      30.603 -18.731  -0.799  0.00  0.00    -0.341 N 
ATOM     19  H   UNL d   1      30.418 -19.108   0.116  0.00  0.00     0.164 HD
ATOM     20  H   UNL d   1      28.619 -17.745   0.423  0.00  0.00     0.192 HD
BRANCH  18  21
ATOM     21  C   UNL d   1      31.743 -19.240  -1.554  0.00  0.00     0.129 C 
BRANCH  21  22
ATOM     22  C   UNL d   1      31.357 -19.764  -2.912  0.00  0.00     0.003 A 
ATOM     23  C   UNL d   1      32.386 -20.394  -3.826  0.00  0.00     0.007 A 
ATOM     24  C   UNL d   1      31.361 -21.263  -3.155  0.00  0.00     0.007 A 
ENDBRANCH  21  22
ENDBRANCH  18  21
ENDBRANCH   3  15
TORSDOF 6
ENDMDL
MODEL 6
REMARK VINA RESULT:    -6.475      3.280      4.016
REMARK INTER + INTRA:          -9.234
REMARK INTER:                  -8.264
REMARK INTRA:                  -0.970
REMARK CONF_INDEPENDENT:        1.790
REMARK UNBOUND:                -0.970
REMARK  6 active torsions:
REMARK  status: ('A' for Active; 'I' for Inactive)
REMARK    1  A    between atoms: C_2  and  C_3 
REMARK       I    between atoms: C_2  and  N_13 
REMARK    2  A    between atoms: C_3  and  C_4 
REMARK    3  A    between atoms: C_7  and  N_8 
REMARK    4  A    between atoms: N_13  and  N_14 
REMARK       I    between atoms: N_14  and  C_15 
REMARK       I    between atoms: C_15  and  N_17 
REMARK    5  A    between atoms: N_17  and  C_18 
REMARK    6  A    between atoms: C_18  and  C_19 
ROOT
ATOM      1  O   UNL d   1      26.055 -15.917  -2.218  0.00  0.00    -0.272 OA
ATOM      2  C   UNL d   1      26.703 -16.489  -1.339  0.00  0.00     0.240 C 
ATOM      3  N   UNL d   1      28.081 -16.502  -1.422  0.00  0.00    -0.266 N 
ATOM      4  H   UNL d   1      28.497 -16.032  -2.229  0.00  0.00     0.190 HD
ENDROOT
BRANCH   2   5
ATOM      5  C   UNL d   1      26.049 -17.181  -0.155  0.00  0.00     0.143 C 
BRANCH   5   6
ATOM      6  C   UNL d   1      24.594 -17.594  -0.331  0.00  0.00    -0.049 A 
ATOM      7  C   UNL d   1      24.215 -18.947  -0.387  0.00  0.00     0.010 A 
ATOM      8  C   UNL d   1      22.899 -19.313  -0.693  0.00  0.00     0.036 A 
ATOM      9  C   UNL d   1      21.930 -18.319  -0.868  0.00  0.00     0.102 A 
ATOM     10  C   UNL d   1      22.283 -16.967  -0.802  0.00  0.00     0.036 A 
ATOM     11  C   UNL d   1      23.610 -16.612  -0.538  0.00  0.00     0.010 A 
BRANCH   9  12
ATOM     12  N   UNL d   1      20.524 -18.697  -1.065  0.00  0.00    -0.116 N 
ATOM     13  O   UNL d   1      19.661 -17.825  -0.895  0.00  0.00    -0.532 OA
ATOM     14  O   UNL d   1      20.284 -19.866  -1.403  0.00  0.00    -0.532 OA
ENDBRANCH   9  12
ENDBRANCH   5   6
ENDBRANCH   2   5
BRANCH   3  15
ATOM     15  N   UNL d   1      28.993 -17.119  -0.533  0.00  0.00    -0.249 N 
ATOM     16  C   UNL d   1      30.349 -16.879  -0.715  0.00  0.00     0.334 C 
ATOM     17  O   UNL d   1      30.773 -16.148  -1.612  0.00  0.00    -0.246 OA
ATOM     18  N   UNL d   1      31.172 -17.526   0.183  0.00  0.00    -0.341 N 
ATOM     19  H   UNL d   1      30.780 -18.103   0.910  0.00  0.00     0.164 HD
ATOM     20  H   UNL d   1      28.649 -17.713   0.207  0.00  0.00     0.192 HD
BRANCH  18  21
ATOM     21  C   UNL d   1      32.620 -17.358   0.119  0.00  0.00     0.129 C 
BRANCH  21  22
ATOM     22  C   UNL d   1      33.299 -17.644   1.433  0.00  0.00     0.003 A 
ATOM     23  C   UNL d   1      33.863 -19.015   1.736  0.00  0.00     0.007 A 
ATOM     24  C   UNL d   1      34.799 -17.875   1.454  0.00  0.00     0.007 A 
ENDBRANCH  21  22
ENDBRANCH  18  21
ENDBRANCH   3  15
TORSDOF 6
ENDMDL
MODEL 7
REMARK VINA RESULT:    -6.466      5.535      8.904
REMARK INTER + INTRA:          -9.325
REMARK INTER:                  -8.256
REMARK INTRA:                  -1.069
REMARK CONF_INDEPENDENT:        1.790
REMARK UNBOUND:                -1.069
REMARK  6 active torsions:
REMARK  status: ('A' for Active; 'I' for Inactive)
REMARK    1  A    between atoms: C_2  and  C_3 
REMARK       I    between atoms: C_2  and  N_13 
REMARK    2  A    between atoms: C_3  and  C_4 
REMARK    3  A    between atoms: C_7  and  N_8 
REMARK    4  A    between atoms: N_13  and  N_14 
REMARK       I    between atoms: N_14  and  C_15 
REMARK       I    between atoms: C_15  and  N_17 
REMARK    5  A    between atoms: N_17  and  C_18 
REMARK    6  A    between atoms: C_18  and  C_19 
ROOT
ATOM      1  O   UNL d   1      25.790  -9.991  -5.047  0.00  0.00    -0.272 OA
ATOM      2  C   UNL d   1      26.152 -10.731  -4.129  0.00  0.00     0.240 C 
ATOM      3  N   UNL d   1      25.529 -11.952  -3.964  0.00  0.00    -0.266 N 
ATOM      4  H   UNL d   1      24.780 -12.177  -4.624  0.00  0.00     0.190 HD
ENDROOT
BRANCH   2   5
ATOM      5  C   UNL d   1      27.267 -10.359  -3.167  0.00  0.00     0.143 C 
BRANCH   5   6
ATOM      6  C   UNL d   1      26.843  -9.690  -1.865  0.00  0.00    -0.049 A 
ATOM      7  C   UNL d   1      25.950  -8.604  -1.854  0.00  0.00     0.010 A 
ATOM      8  C   UNL d   1      25.682  -7.906  -0.670  0.00  0.00     0.036 A 
ATOM      9  C   UNL d   1      26.249  -8.343   0.531  0.00  0.00     0.102 A 
ATOM     10  C   UNL d   1      27.129  -9.431   0.544  0.00  0.00     0.036 A 
ATOM     11  C   UNL d   1      27.424 -10.094  -0.652  0.00  0.00     0.010 A 
BRANCH   9  12
ATOM     12  N   UNL d   1      25.873  -7.695   1.794  0.00  0.00    -0.116 N 
ATOM     13  O   UNL d   1      26.274  -8.204   2.849  0.00  0.00    -0.532 OA
ATOM     14  O   UNL d   1      25.185  -6.664   1.730  0.00  0.00    -0.532 OA
ENDBRANCH   9  12
ENDBRANCH   5   6
ENDBRANCH   2   5
BRANCH   3  15
ATOM     15  N   UNL d   1      25.783 -12.923  -2.967  0.00  0.00    -0.249 N 
ATOM     16  C   UNL d   1      25.181 -14.168  -3.097  0.00  0.00     0.334 C 
ATOM     17  O   UNL d   1      24.449 -14.449  -4.047  0.00  0.00    -0.246 OA
ATOM     18  N   UNL d   1      25.469 -15.053  -2.078  0.00  0.00    -0.341 N 
ATOM     19  H   UNL d   1      26.086 -14.785  -1.329  0.00  0.00     0.164 HD
ATOM     20  H   UNL d   1      26.388 -12.698  -2.190  0.00  0.00     0.192 HD
BRANCH  18  21
ATOM     21  C   UNL d   1      24.916 -16.402  -2.089  0.00  0.00     0.129 C 
BRANCH  21  22
ATOM     22  C   UNL d   1      24.400 -16.832  -0.740  0.00  0.00     0.003 A 
ATOM     23  C   UNL d   1      22.928 -17.109  -0.520  0.00  0.00     0.007 A 
ATOM     24  C   UNL d   1      23.900 -18.254  -0.559  0.00  0.00     0.007 A 
ENDBRANCH  21  22
ENDBRANCH  18  21
ENDBRANCH   3  15
TORSDOF 6
ENDMDL
MODEL 8
REMARK VINA RESULT:    -6.450      3.136      4.598
REMARK INTER + INTRA:          -9.191
REMARK INTER:                  -8.240
REMARK INTRA:                  -0.951
REMARK CONF_INDEPENDENT:        1.790
REMARK UNBOUND:                -0.951
REMARK  6 active torsions:
REMARK  status: ('A' for Active; 'I' for Inactive)
REMARK    1  A    between atoms: C_2  and  C_3 
REMARK       I    between atoms: C_2  and  N_13 
REMARK    2  A    between atoms: C_3  and  C_4 
REMARK    3  A    between atoms: C_7  and  N_8 
REMARK    4  A    between atoms: N_13  and  N_14 
REMARK       I    between atoms: N_14  and  C_15 
REMARK       I    between atoms: C_15  and  N_17 
REMARK    5  A    between atoms: N_17  and  C_18 
REMARK    6  A    between atoms: C_18  and  C_19 
ROOT
ATOM      1  O   UNL d   1      27.427 -18.912   0.286  0.00  0.00    -0.272 OA
ATOM      2  C   UNL d   1      27.471 -17.737  -0.085  0.00  0.00     0.240 C 
ATOM      3  N   UNL d   1      28.591 -17.285  -0.753  0.00  0.00    -0.266 N 
ATOM      4  H   UNL d   1      29.342 -17.964  -0.901  0.00  0.00     0.190 HD
ENDROOT
BRANCH   2   5
ATOM      5  C   UNL d   1      26.335 -16.757   0.156  0.00  0.00     0.143 C 
BRANCH   5   6
ATOM      6  C   UNL d   1      24.942 -17.223  -0.247  0.00  0.00    -0.049 A 
ATOM      7  C   UNL d   1      23.923 -16.306  -0.562  0.00  0.00     0.010 A 
ATOM      8  C   UNL d   1      22.611 -16.740  -0.788  0.00  0.00     0.036 A 
ATOM      9  C   UNL d   1      22.326 -18.109  -0.777  0.00  0.00     0.102 A 
ATOM     10  C   UNL d   1      23.328 -19.039  -0.480  0.00  0.00     0.036 A 
ATOM     11  C   UNL d   1      24.627 -18.591  -0.213  0.00  0.00     0.010 A 
BRANCH   9  12
ATOM     12  N   UNL d   1      20.981 -18.577  -1.137  0.00  0.00    -0.116 N 
ATOM     13  O   UNL d   1      20.876 -19.700  -1.649  0.00  0.00    -0.532 OA
ATOM     14  O   UNL d   1      20.025 -17.824  -0.895  0.00  0.00    -0.532 OA
ENDBRANCH   9  12
ENDBRANCH   5   6
ENDBRANCH   2   5
BRANCH   3  15
ATOM     15  N   UNL d   1      28.839 -15.978  -1.235  0.00  0.00    -0.249 N 
ATOM     16  C   UNL d   1      28.001 -15.474  -2.221  0.00  0.00     0.334 C 
ATOM     17  O   UNL d   1      27.055 -16.120  -2.674  0.00  0.00    -0.246 OA
ATOM     18  N   UNL d   1      28.316 -14.200  -2.646  0.00  0.00    -0.341 N 
ATOM     19  H   UNL d   1      29.089 -13.702  -2.235  0.00  0.00     0.164 HD
ATOM     20  H   UNL d   1      29.609 -15.442  -0.860  0.00  0.00     0.192 HD
BRANCH  18  21
ATOM     21  C   UNL d   1      27.514 -13.538  -3.669  0.00  0.00     0.129 C 
BRANCH  21  22
ATOM     22  C   UNL d   1      26.138 -13.165  -3.181  0.00  0.00     0.003 A 
ATOM     23  C   UNL d   1      24.988 -12.992  -4.149  0.00  0.00     0.007 A 
ATOM     24  C   UNL d   1      25.025 -14.195  -3.251  0.00  0.00     0.007 A 
ENDBRANCH  21  22
ENDBRANCH  18  21
ENDBRANCH   3  15
TORSDOF 6
ENDMDL
MODEL 9
REMARK VINA RESULT:    -6.217      6.854      8.232
REMARK INTER + INTRA:          -8.841
REMARK INTER:                  -8.007
REMARK INTRA:                  -0.834
REMARK CONF_INDEPENDENT:        1.790
REMARK UNBOUND:                -0.834
REMARK  6 active torsions:
REMARK  status: ('A' for Active; 'I' for Inactive)
REMARK    1  A    between atoms: C_2  and  C_3 
REMARK       I    between atoms: C_2  and  N_13 
REMARK    2  A    between atoms: C_3  and  C_4 
REMARK    3  A    between atoms: C_7  and  N_8 
REMARK    4  A    between atoms: N_13  and  N_14 
REMARK       I    between atoms: N_14  and  C_15 
REMARK       I    between atoms: C_15  and  N_17 
REMARK    5  A    between atoms: N_17  and  C_18 
REMARK    6  A    between atoms: C_18  and  C_19 
ROOT
ATOM      1  O   UNL d   1      30.132 -13.612   2.692  0.00  0.00    -0.272 OA
ATOM      2  C   UNL d   1      29.504 -13.877   3.719  0.00  0.00     0.240 C 
ATOM      3  N   UNL d   1      30.183 -14.374   4.813  0.00  0.00    -0.266 N 
ATOM      4  H   UNL d   1      31.192 -14.503   4.707  0.00  0.00     0.190 HD
ENDROOT
BRANCH   2   5
ATOM      5  C   UNL d   1      28.003 -13.675   3.838  0.00  0.00     0.143 C 
BRANCH   5   6
ATOM      6  C   UNL d   1      27.483 -12.272   3.554  0.00  0.00    -0.049 A 
ATOM      7  C   UNL d   1      26.734 -11.985   2.399  0.00  0.00     0.010 A 
ATOM      8  C   UNL d   1      26.388 -10.667   2.077  0.00  0.00     0.036 A 
ATOM      9  C   UNL d   1      26.723  -9.631   2.954  0.00  0.00     0.102 A 
ATOM     10  C   UNL d   1      27.456  -9.898   4.116  0.00  0.00     0.036 A 
ATOM     11  C   UNL d   1      27.834 -11.212   4.407  0.00  0.00     0.010 A 
BRANCH   9  12
ATOM     12  N   UNL d   1      26.253  -8.266   2.685  0.00  0.00    -0.116 N 
ATOM     13  O   UNL d   1      25.475  -8.097   1.737  0.00  0.00    -0.532 OA
ATOM     14  O   UNL d   1      26.654  -7.361   3.433  0.00  0.00    -0.532 OA
ENDBRANCH   9  12
ENDBRANCH   5   6
ENDBRANCH   2   5
BRANCH   3  15
ATOM     15  N   UNL d   1      29.642 -14.757   6.064  0.00  0.00    -0.249 N 
ATOM     16  C   UNL d   1      29.377 -13.760   6.994  0.00  0.00     0.334 C 
ATOM     17  O   UNL d   1      29.589 -12.569   6.762  0.00  0.00    -0.246 OA
ATOM     18  N   UNL d   1      28.864 -14.216   8.191  0.00  0.00    -0.341 N 
ATOM     19  H   UNL d   1      28.692 -15.198   8.332  0.00  0.00     0.164 HD
ATOM     20  H   UNL d   1      29.461 -15.731   6.255  0.00  0.00     0.192 HD
BRANCH  18  21
ATOM     21  C   UNL d   1      28.526 -13.281   9.259  0.00  0.00     0.129 C 
BRANCH  21  22
ATOM     22  C   UNL d   1      29.046 -13.717  10.603  0.00  0.00     0.003 A 
ATOM     23  C   UNL d   1      28.484 -13.137  11.883  0.00  0.00     0.007 A 
ATOM     24  C   UNL d   1      28.154 -14.552  11.505  0.00  0.00     0.007 A 
ENDBRANCH  21  22
ENDBRANCH  18  21
ENDBRANCH   3  15
TORSDOF 6
ENDMDL
