MODEL 1
REMARK VINA RESULT:    -8.303      0.000      0.000
REMARK INTER + INTRA:         -10.484
REMARK INTER:                  -9.795
REMARK INTRA:                  -0.690
REMARK CONF_INDEPENDENT:        1.492
REMARK UNBOUND:                -0.690
REMARK  5 active torsions:
REMARK  status: ('A' for Active; 'I' for Inactive)
REMARK    1  A    between atoms: C_5  and  N_6 
REMARK       I    between atoms: N_6  and  C_7 
REMARK    2  A    between atoms: C_7  and  C_9 
REMARK    3  A    between atoms: C_10  and  C_11 
REMARK    4  A    between atoms: C_15  and  C_16 
REMARK    5  A    between atoms: C_21  and  O_22 
ROOT
ATOM      1  N   UNL d   1      22.454 -18.309  -1.073  0.00  0.00    -0.321 N 
ATOM      2  C   UNL d   1      23.686 -18.008  -0.503  0.00  0.00     0.245 C 
ATOM      3  O   UNL d   1      24.036 -18.246   0.653  0.00  0.00    -0.268 OA
ATOM      4  H   UNL d   1      22.297 -18.028  -2.028  0.00  0.00     0.169 HD
ENDROOT
BRANCH   2   5
ATOM      5  C   UNL d   1      24.667 -17.325  -1.391  0.00  0.00     0.075 C 
ATOM      6  C   UNL d   1      24.461 -16.020  -1.661  0.00  0.00     0.017 C 
BRANCH   6   7
ATOM      7  C   UNL d   1      25.290 -15.216  -2.565  0.00  0.00    -0.035 A 
ATOM      8  C   UNL d   1      24.771 -14.094  -3.224  0.00  0.00     0.011 A 
ATOM      9  C   UNL d   1      25.539 -13.413  -4.175  0.00  0.00     0.002 A 
ATOM     10  C   UNL d   1      26.847 -13.817  -4.435  0.00  0.00     0.016 A 
ATOM     11  C   UNL d   1      27.376 -14.945  -3.794  0.00  0.00     0.048 A 
ATOM     12  C   UNL d   1      26.586 -15.639  -2.868  0.00  0.00     0.027 A 
BRANCH  11  13
ATOM     13  C   UNL d   1      28.756 -15.440  -4.124  0.00  0.00     0.417 C 
ATOM     14  F   UNL d   1      28.890 -15.756  -5.441  0.00  0.00    -0.166 F 
ATOM     15  F   UNL d   1      29.721 -14.521  -3.851  0.00  0.00    -0.166 F 
ATOM     16  F   UNL d   1      29.104 -16.563  -3.433  0.00  0.00    -0.166 F 
ENDBRANCH  11  13
ENDBRANCH   6   7
ENDBRANCH   2   5
BRANCH   1  17
ATOM     17  C   UNL d   1      21.386 -18.980  -0.385  0.00  0.00     0.068 A 
ATOM     18  C   UNL d   1      21.304 -18.950   1.016  0.00  0.00     0.033 A 
ATOM     19  C   UNL d   1      20.279 -19.571   1.733  0.00  0.00     0.009 A 
ATOM     20  C   UNL d   1      19.274 -20.252   1.063  0.00  0.00    -0.059 A 
ATOM     21  C   UNL d   1      18.155 -20.904   1.814  0.00  0.00     0.048 C 
ATOM     22  C   UNL d   1      19.329 -20.312  -0.332  0.00  0.00     0.045 A 
ATOM     23  C   UNL d   1      20.370 -19.692  -1.050  0.00  0.00     0.092 A 
BRANCH  23  24
ATOM     24  O   UNL d   1      20.279 -19.857  -2.405  0.00  0.00    -0.358 OA
ATOM     25  H   UNL d   1      19.559 -19.326  -2.763  0.00  0.00     0.217 HD
ENDBRANCH  23  24
ENDBRANCH   1  17
TORSDOF 5
ENDMDL
MODEL 2
REMARK VINA RESULT:    -8.263      1.393      1.850
REMARK INTER + INTRA:         -10.986
REMARK INTER:                  -9.755
REMARK INTRA:                  -1.232
REMARK CONF_INDEPENDENT:        1.492
REMARK UNBOUND:                -1.232
REMARK  5 active torsions:
REMARK  status: ('A' for Active; 'I' for Inactive)
REMARK    1  A    between atoms: C_5  and  N_6 
REMARK       I    between atoms: N_6  and  C_7 
REMARK    2  A    between atoms: C_7  and  C_9 
REMARK    3  A    between atoms: C_10  and  C_11 
REMARK    4  A    between atoms: C_15  and  C_16 
REMARK    5  A    between atoms: C_21  and  O_22 
ROOT
ATOM      1  N   UNL d   1      22.142 -18.132   0.383  0.00  0.00    -0.321 N 
ATOM      2  C   UNL d   1      23.160 -18.361  -0.535  0.00  0.00     0.245 C 
ATOM      3  O   UNL d   1      23.270 -19.337  -1.278  0.00  0.00    -0.268 OA
ATOM      4  H   UNL d   1      22.197 -17.298   0.947  0.00  0.00     0.169 HD
ENDROOT
BRANCH   2   5
ATOM      5  C   UNL d   1      24.218 -17.315  -0.612  0.00  0.00     0.075 C 
ATOM      6  C   UNL d   1      24.465 -16.767  -1.819  0.00  0.00     0.017 C 
BRANCH   6   7
ATOM      7  C   UNL d   1      25.512 -15.775  -2.083  0.00  0.00    -0.035 A 
ATOM      8  C   UNL d   1      26.004 -14.948  -1.064  0.00  0.00     0.011 A 
ATOM      9  C   UNL d   1      26.912 -13.925  -1.357  0.00  0.00     0.002 A 
ATOM     10  C   UNL d   1      27.375 -13.756  -2.661  0.00  0.00     0.016 A 
ATOM     11  C   UNL d   1      26.883 -14.566  -3.693  0.00  0.00     0.048 A 
ATOM     12  C   UNL d   1      25.948 -15.565  -3.392  0.00  0.00     0.027 A 
BRANCH  11  13
ATOM     13  C   UNL d   1      27.311 -14.342  -5.116  0.00  0.00     0.417 C 
ATOM     14  F   UNL d   1      28.652 -14.503  -5.284  0.00  0.00    -0.166 F 
ATOM     15  F   UNL d   1      26.711 -15.200  -5.985  0.00  0.00    -0.166 F 
ATOM     16  F   UNL d   1      27.026 -13.089  -5.573  0.00  0.00    -0.166 F 
ENDBRANCH  11  13
ENDBRANCH   6   7
ENDBRANCH   2   5
BRANCH   1  17
ATOM     17  C   UNL d   1      21.026 -19.013   0.592  0.00  0.00     0.068 A 
ATOM     18  C   UNL d   1      20.591 -19.325   1.889  0.00  0.00     0.033 A 
ATOM     19  C   UNL d   1      19.503 -20.163   2.147  0.00  0.00     0.009 A 
ATOM     20  C   UNL d   1      18.792 -20.724   1.098  0.00  0.00    -0.059 A 
ATOM     21  C   UNL d   1      17.610 -21.605   1.355  0.00  0.00     0.048 C 
ATOM     22  C   UNL d   1      19.205 -20.445  -0.208  0.00  0.00     0.045 A 
ATOM     23  C   UNL d   1      20.307 -19.606  -0.463  0.00  0.00     0.092 A 
BRANCH  23  24
ATOM     24  O   UNL d   1      20.583 -19.448  -1.794  0.00  0.00    -0.358 OA
ATOM     25  H   UNL d   1      21.416 -18.978  -1.913  0.00  0.00     0.217 HD
ENDBRANCH  23  24
ENDBRANCH   1  17
TORSDOF 5
ENDMDL
MODEL 3
REMARK VINA RESULT:    -8.178      3.020      3.546
REMARK INTER + INTRA:         -10.845
REMARK INTER:                  -9.670
REMARK INTRA:                  -1.175
REMARK CONF_INDEPENDENT:        1.492
REMARK UNBOUND:                -1.175
REMARK  5 active torsions:
REMARK  status: ('A' for Active; 'I' for Inactive)
REMARK    1  A    between atoms: C_5  and  N_6 
REMARK       I    between atoms: N_6  and  C_7 
REMARK    2  A    between atoms: C_7  and  C_9 
REMARK    3  A    between atoms: C_10  and  C_11 
REMARK    4  A    between atoms: C_15  and  C_16 
REMARK    5  A    between atoms: C_21  and  O_22 
ROOT
ATOM      1  N   UNL d   1      21.977 -18.240   0.328  0.00  0.00    -0.321 N 
ATOM      2  C   UNL d   1      22.902 -18.423  -0.694  0.00  0.00     0.245 C 
ATOM      3  O   UNL d   1      22.899 -19.325  -1.532  0.00  0.00    -0.268 OA
ATOM      4  H   UNL d   1      22.122 -17.469   0.960  0.00  0.00     0.169 HD
ENDROOT
BRANCH   2   5
ATOM      5  C   UNL d   1      24.003 -17.423  -0.765  0.00  0.00     0.075 C 
ATOM      6  C   UNL d   1      25.232 -17.820  -0.376  0.00  0.00     0.017 C 
BRANCH   6   7
ATOM      7  C   UNL d   1      26.409 -16.947  -0.322  0.00  0.00    -0.035 A 
ATOM      8  C   UNL d   1      27.707 -17.471  -0.389  0.00  0.00     0.011 A 
ATOM      9  C   UNL d   1      28.818 -16.639  -0.213  0.00  0.00     0.002 A 
ATOM     10  C   UNL d   1      28.640 -15.270  -0.020  0.00  0.00     0.016 A 
ATOM     11  C   UNL d   1      27.348 -14.733   0.062  0.00  0.00     0.048 A 
ATOM     12  C   UNL d   1      26.244 -15.582  -0.083  0.00  0.00     0.027 A 
BRANCH  11  13
ATOM     13  C   UNL d   1      27.141 -13.272   0.350  0.00  0.00     0.417 C 
ATOM     14  F   UNL d   1      26.159 -13.060   1.268  0.00  0.00    -0.166 F 
ATOM     15  F   UNL d   1      28.259 -12.671   0.840  0.00  0.00    -0.166 F 
ATOM     16  F   UNL d   1      26.783 -12.552  -0.752  0.00  0.00    -0.166 F 
ENDBRANCH  11  13
ENDBRANCH   6   7
ENDBRANCH   2   5
BRANCH   1  17
ATOM     17  C   UNL d   1      20.837 -19.087   0.550  0.00  0.00     0.068 A 
ATOM     18  C   UNL d   1      20.418 -19.399   1.852  0.00  0.00     0.033 A 
ATOM     19  C   UNL d   1      19.310 -20.204   2.123  0.00  0.00     0.009 A 
ATOM     20  C   UNL d   1      18.559 -20.730   1.083  0.00  0.00    -0.059 A 
ATOM     21  C   UNL d   1      17.354 -21.575   1.355  0.00  0.00     0.048 C 
ATOM     22  C   UNL d   1      18.954 -20.449  -0.228  0.00  0.00     0.045 A 
ATOM     23  C   UNL d   1      20.078 -19.644  -0.496  0.00  0.00     0.092 A 
BRANCH  23  24
ATOM     24  O   UNL d   1      20.332 -19.479  -1.831  0.00  0.00    -0.358 OA
ATOM     25  H   UNL d   1      20.892 -18.708  -1.976  0.00  0.00     0.217 HD
ENDBRANCH  23  24
ENDBRANCH   1  17
TORSDOF 5
ENDMDL
MODEL 4
REMARK VINA RESULT:    -8.027      2.439      2.848
REMARK INTER + INTRA:         -10.729
REMARK INTER:                  -9.518
REMARK INTRA:                  -1.211
REMARK CONF_INDEPENDENT:        1.492
REMARK UNBOUND:                -1.211
REMARK  5 active torsions:
REMARK  status: ('A' for Active; 'I' for Inactive)
REMARK    1  A    between atoms: C_5  and  N_6 
REMARK       I    between atoms: N_6  and  C_7 
REMARK    2  A    between atoms: C_7  and  C_9 
REMARK    3  A    between atoms: C_10  and  C_11 
REMARK    4  A    between atoms: C_15  and  C_16 
REMARK    5  A    between atoms: C_21  and  O_22 
ROOT
ATOM      1  N   UNL d   1      21.991 -18.233   0.192  0.00  0.00    -0.321 N 
ATOM      2  C   UNL d   1      22.890 -18.419  -0.852  0.00  0.00     0.245 C 
ATOM      3  O   UNL d   1      22.866 -19.325  -1.686  0.00  0.00    -0.268 OA
ATOM      4  H   UNL d   1      22.151 -17.460   0.817  0.00  0.00     0.169 HD
ENDROOT
BRANCH   2   5
ATOM      5  C   UNL d   1      23.986 -17.417  -0.957  0.00  0.00     0.075 C 
ATOM      6  C   UNL d   1      25.160 -17.712  -0.361  0.00  0.00     0.017 C 
BRANCH   6   7
ATOM      7  C   UNL d   1      26.317 -16.812  -0.313  0.00  0.00    -0.035 A 
ATOM      8  C   UNL d   1      26.157 -15.431  -0.145  0.00  0.00     0.011 A 
ATOM      9  C   UNL d   1      27.261 -14.575  -0.224  0.00  0.00     0.002 A 
ATOM     10  C   UNL d   1      28.537 -15.099  -0.420  0.00  0.00     0.016 A 
ATOM     11  C   UNL d   1      28.711 -16.477  -0.603  0.00  0.00     0.048 A 
ATOM     12  C   UNL d   1      27.594 -17.320  -0.555  0.00  0.00     0.027 A 
BRANCH  11  13
ATOM     13  C   UNL d   1      30.071 -17.047  -0.897  0.00  0.00     0.417 C 
ATOM     14  F   UNL d   1      31.003 -16.658   0.016  0.00  0.00    -0.166 F 
ATOM     15  F   UNL d   1      30.080 -18.408  -0.895  0.00  0.00    -0.166 F 
ATOM     16  F   UNL d   1      30.561 -16.672  -2.113  0.00  0.00    -0.166 F 
ENDBRANCH  11  13
ENDBRANCH   6   7
ENDBRANCH   2   5
BRANCH   1  17
ATOM     17  C   UNL d   1      20.860 -19.082   0.448  0.00  0.00     0.068 A 
ATOM     18  C   UNL d   1      20.477 -19.391   1.762  0.00  0.00     0.033 A 
ATOM     19  C   UNL d   1      19.378 -20.198   2.065  0.00  0.00     0.009 A 
ATOM     20  C   UNL d   1      18.601 -20.728   1.048  0.00  0.00    -0.059 A 
ATOM     21  C   UNL d   1      17.405 -21.575   1.355  0.00  0.00     0.048 C 
ATOM     22  C   UNL d   1      18.959 -20.451  -0.274  0.00  0.00     0.045 A 
ATOM     23  C   UNL d   1      20.074 -19.644  -0.575  0.00  0.00     0.092 A 
BRANCH  23  24
ATOM     24  O   UNL d   1      20.290 -19.483  -1.917  0.00  0.00    -0.358 OA
ATOM     25  H   UNL d   1      21.198 -19.202  -2.081  0.00  0.00     0.217 HD
ENDBRANCH  23  24
ENDBRANCH   1  17
TORSDOF 5
ENDMDL
MODEL 5
REMARK VINA RESULT:    -7.920      1.721      2.515
REMARK INTER + INTRA:         -10.724
REMARK INTER:                  -9.412
REMARK INTRA:                  -1.312
REMARK CONF_INDEPENDENT:        1.492
REMARK UNBOUND:                -1.312
REMARK  5 active torsions:
REMARK  status: ('A' for Active; 'I' for Inactive)
REMARK    1  A    between atoms: C_5  and  N_6 
REMARK       I    between atoms: N_6  and  C_7 
REMARK    2  A    between atoms: C_7  and  C_9 
REMARK    3  A    between atoms: C_10  and  C_11 
REMARK    4  A    between atoms: C_15  and  C_16 
REMARK    5  A    between atoms: C_21  and  O_22 
ROOT
ATOM      1  N   UNL d   1      22.104 -18.606   0.223  0.00  0.00    -0.321 N 
ATOM      2  C   UNL d   1      22.146 -17.467  -0.573  0.00  0.00     0.245 C 
ATOM      3  O   UNL d   1      21.199 -16.954  -1.169  0.00  0.00    -0.268 OA
ATOM      4  H   UNL d   1      22.968 -18.928   0.629  0.00  0.00     0.169 HD
ENDROOT
BRANCH   2   5
ATOM      5  C   UNL d   1      23.479 -16.816  -0.710  0.00  0.00     0.075 C 
ATOM      6  C   UNL d   1      24.564 -17.617  -0.734  0.00  0.00     0.017 C 
BRANCH   6   7
ATOM      7  C   UNL d   1      25.949 -17.138  -0.798  0.00  0.00    -0.035 A 
ATOM      8  C   UNL d   1      26.847 -17.366   0.253  0.00  0.00     0.011 A 
ATOM      9  C   UNL d   1      28.125 -16.797   0.228  0.00  0.00     0.002 A 
ATOM     10  C   UNL d   1      28.532 -16.042  -0.870  0.00  0.00     0.016 A 
ATOM     11  C   UNL d   1      27.641 -15.795  -1.922  0.00  0.00     0.048 A 
ATOM     12  C   UNL d   1      26.353 -16.341  -1.871  0.00  0.00     0.027 A 
BRANCH  11  13
ATOM     13  C   UNL d   1      28.039 -14.915  -3.075  0.00  0.00     0.417 C 
ATOM     14  F   UNL d   1      27.111 -13.955  -3.336  0.00  0.00    -0.166 F 
ATOM     15  F   UNL d   1      29.212 -14.262  -2.854  0.00  0.00    -0.166 F 
ATOM     16  F   UNL d   1      28.206 -15.600  -4.242  0.00  0.00    -0.166 F 
ENDBRANCH  11  13
ENDBRANCH   6   7
ENDBRANCH   2   5
BRANCH   1  17
ATOM     17  C   UNL d   1      20.911 -19.363   0.491  0.00  0.00     0.068 A 
ATOM     18  C   UNL d   1      20.524 -19.649   1.809  0.00  0.00     0.033 A 
ATOM     19  C   UNL d   1      19.368 -20.366   2.124  0.00  0.00     0.009 A 
ATOM     20  C   UNL d   1      18.536 -20.825   1.115  0.00  0.00    -0.059 A 
ATOM     21  C   UNL d   1      17.280 -21.575   1.435  0.00  0.00     0.048 C 
ATOM     22  C   UNL d   1      18.896 -20.568  -0.211  0.00  0.00     0.045 A 
ATOM     23  C   UNL d   1      20.068 -19.853  -0.524  0.00  0.00     0.092 A 
BRANCH  23  24
ATOM     24  O   UNL d   1      20.278 -19.700  -1.867  0.00  0.00    -0.358 OA
ATOM     25  H   UNL d   1      20.459 -18.777  -2.078  0.00  0.00     0.217 HD
ENDBRANCH  23  24
ENDBRANCH   1  17
TORSDOF 5
ENDMDL
MODEL 6
REMARK VINA RESULT:    -7.855      2.255      2.643
REMARK INTER + INTRA:         -10.629
REMARK INTER:                  -9.346
REMARK INTRA:                  -1.282
REMARK CONF_INDEPENDENT:        1.492
REMARK UNBOUND:                -1.282
REMARK  5 active torsions:
REMARK  status: ('A' for Active; 'I' for Inactive)
REMARK    1  A    between atoms: C_5  and  N_6 
REMARK       I    between atoms: N_6  and  C_7 
REMARK    2  A    between atoms: C_7  and  C_9 
REMARK    3  A    between atoms: C_10  and  C_11 
REMARK    4  A    between atoms: C_15  and  C_16 
REMARK    5  A    between atoms: C_21  and  O_22 
ROOT
ATOM      1  N   UNL d   1      22.138 -18.100   0.383  0.00  0.00    -0.321 N 
ATOM      2  C   UNL d   1      23.170 -18.326  -0.521  0.00  0.00     0.245 C 
ATOM      3  O   UNL d   1      23.303 -19.310  -1.249  0.00  0.00    -0.268 OA
ATOM      4  H   UNL d   1      22.174 -17.259   0.936  0.00  0.00     0.169 HD
ENDROOT
BRANCH   2   5
ATOM      5  C   UNL d   1      24.212 -17.266  -0.601  0.00  0.00     0.075 C 
ATOM      6  C   UNL d   1      24.388 -16.652  -1.790  0.00  0.00     0.017 C 
BRANCH   6   7
ATOM      7  C   UNL d   1      25.410 -15.636  -2.057  0.00  0.00    -0.035 A 
ATOM      8  C   UNL d   1      25.929 -15.448  -3.345  0.00  0.00     0.011 A 
ATOM      9  C   UNL d   1      26.989 -14.560  -3.560  0.00  0.00     0.002 A 
ATOM     10  C   UNL d   1      27.502 -13.817  -2.498  0.00  0.00     0.016 A 
ATOM     11  C   UNL d   1      27.003 -14.004  -1.202  0.00  0.00     0.048 A 
ATOM     12  C   UNL d   1      25.964 -14.920  -0.995  0.00  0.00     0.027 A 
BRANCH  11  13
ATOM     13  C   UNL d   1      27.602 -13.269  -0.036  0.00  0.00     0.417 C 
ATOM     14  F   UNL d   1      27.677 -11.928  -0.253  0.00  0.00    -0.166 F 
ATOM     15  F   UNL d   1      26.884 -13.432   1.109  0.00  0.00    -0.166 F 
ATOM     16  F   UNL d   1      28.871 -13.671   0.259  0.00  0.00    -0.166 F 
ENDBRANCH  11  13
ENDBRANCH   6   7
ENDBRANCH   2   5
BRANCH   1  17
ATOM     17  C   UNL d   1      21.033 -18.996   0.591  0.00  0.00     0.068 A 
ATOM     18  C   UNL d   1      20.611 -19.325   1.889  0.00  0.00     0.033 A 
ATOM     19  C   UNL d   1      19.535 -20.177   2.146  0.00  0.00     0.009 A 
ATOM     20  C   UNL d   1      18.822 -20.736   1.097  0.00  0.00    -0.059 A 
ATOM     21  C   UNL d   1      17.651 -21.632   1.355  0.00  0.00     0.048 C 
ATOM     22  C   UNL d   1      19.222 -20.439  -0.209  0.00  0.00     0.045 A 
ATOM     23  C   UNL d   1      20.313 -19.587  -0.463  0.00  0.00     0.092 A 
BRANCH  23  24
ATOM     24  O   UNL d   1      20.577 -19.412  -1.795  0.00  0.00    -0.358 OA
ATOM     25  H   UNL d   1      21.525 -19.326  -1.943  0.00  0.00     0.217 HD
ENDBRANCH  23  24
ENDBRANCH   1  17
TORSDOF 5
ENDMDL
MODEL 7
REMARK VINA RESULT:    -7.145      1.967      2.800
REMARK INTER + INTRA:          -9.182
REMARK INTER:                  -8.636
REMARK INTRA:                  -0.546
REMARK CONF_INDEPENDENT:        1.492
REMARK UNBOUND:                -0.546
REMARK  5 active torsions:
REMARK  status: ('A' for Active; 'I' for Inactive)
REMARK    1  A    between atoms: C_5  and  N_6 
REMARK       I    between atoms: N_6  and  C_7 
REMARK    2  A    between atoms: C_7  and  C_9 
REMARK    3  A    between atoms: C_10  and  C_11 
REMARK    4  A    between atoms: C_15  and  C_16 
REMARK    5  A    between atoms: C_21  and  O_22 
ROOT
ATOM      1  N   UNL d   1      21.414 -18.100  -0.840  0.00  0.00    -0.321 N 
ATOM      2  C   UNL d   1      22.764 -18.071  -0.510  0.00  0.00     0.245 C 
ATOM      3  O   UNL d   1      23.331 -18.780   0.322  0.00  0.00    -0.268 OA
ATOM      4  H   UNL d   1      21.083 -17.438  -1.523  0.00  0.00     0.169 HD
ENDROOT
BRANCH   2   5
ATOM      5  C   UNL d   1      23.593 -17.074  -1.242  0.00  0.00     0.075 C 
ATOM      6  C   UNL d   1      24.925 -17.283  -1.288  0.00  0.00     0.017 C 
BRANCH   6   7
ATOM      7  C   UNL d   1      25.890 -16.371  -1.909  0.00  0.00    -0.035 A 
ATOM      8  C   UNL d   1      27.255 -16.434  -1.600  0.00  0.00     0.011 A 
ATOM      9  C   UNL d   1      28.142 -15.479  -2.107  0.00  0.00     0.002 A 
ATOM     10  C   UNL d   1      27.680 -14.484  -2.966  0.00  0.00     0.016 A 
ATOM     11  C   UNL d   1      26.315 -14.399  -3.274  0.00  0.00     0.048 A 
ATOM     12  C   UNL d   1      25.432 -15.342  -2.734  0.00  0.00     0.027 A 
BRANCH  11  13
ATOM     13  C   UNL d   1      25.790 -13.284  -4.135  0.00  0.00     0.417 C 
ATOM     14  F   UNL d   1      26.399 -13.239  -5.351  0.00  0.00    -0.166 F 
ATOM     15  F   UNL d   1      24.456 -13.395  -4.379  0.00  0.00    -0.166 F 
ATOM     16  F   UNL d   1      25.968 -12.050  -3.583  0.00  0.00    -0.166 F 
ENDBRANCH  11  13
ENDBRANCH   6   7
ENDBRANCH   2   5
BRANCH   1  17
ATOM     17  C   UNL d   1      20.457 -19.001  -0.257  0.00  0.00     0.068 A 
ATOM     18  C   UNL d   1      19.425 -19.551  -1.032  0.00  0.00     0.033 A 
ATOM     19  C   UNL d   1      18.480 -20.442  -0.519  0.00  0.00     0.009 A 
ATOM     20  C   UNL d   1      18.537 -20.830   0.810  0.00  0.00    -0.059 A 
ATOM     21  C   UNL d   1      17.547 -21.802   1.371  0.00  0.00     0.048 C 
ATOM     22  C   UNL d   1      19.545 -20.292   1.615  0.00  0.00     0.045 A 
ATOM     23  C   UNL d   1      20.491 -19.387   1.096  0.00  0.00     0.092 A 
BRANCH  23  24
ATOM     24  O   UNL d   1      21.400 -18.950   2.020  0.00  0.00    -0.358 OA
ATOM     25  H   UNL d   1      21.419 -19.540   2.782  0.00  0.00     0.217 HD
ENDBRANCH  23  24
ENDBRANCH   1  17
TORSDOF 5
ENDMDL
MODEL 8
REMARK VINA RESULT:    -6.889      4.829      9.597
REMARK INTER + INTRA:          -9.063
REMARK INTER:                  -8.380
REMARK INTRA:                  -0.683
REMARK CONF_INDEPENDENT:        1.492
REMARK UNBOUND:                -0.683
REMARK  5 active torsions:
REMARK  status: ('A' for Active; 'I' for Inactive)
REMARK    1  A    between atoms: C_5  and  N_6 
REMARK       I    between atoms: N_6  and  C_7 
REMARK    2  A    between atoms: C_7  and  C_9 
REMARK    3  A    between atoms: C_10  and  C_11 
REMARK    4  A    between atoms: C_15  and  C_16 
REMARK    5  A    between atoms: C_21  and  O_22 
ROOT
ATOM      1  N   UNL d   1      26.266 -13.272  -4.767  0.00  0.00    -0.321 N 
ATOM      2  C   UNL d   1      26.282 -14.661  -4.707  0.00  0.00     0.245 C 
ATOM      3  O   UNL d   1      26.847 -15.422  -5.492  0.00  0.00    -0.268 OA
ATOM      4  H   UNL d   1      25.736 -12.778  -4.068  0.00  0.00     0.169 HD
ENDROOT
BRANCH   2   5
ATOM      5  C   UNL d   1      25.531 -15.274  -3.576  0.00  0.00     0.075 C 
ATOM      6  C   UNL d   1      26.242 -15.950  -2.650  0.00  0.00     0.017 C 
BRANCH   6   7
ATOM      7  C   UNL d   1      25.656 -16.666  -1.512  0.00  0.00    -0.035 A 
ATOM      8  C   UNL d   1      26.452 -17.130  -0.457  0.00  0.00     0.011 A 
ATOM      9  C   UNL d   1      25.896 -17.916   0.558  0.00  0.00     0.002 A 
ATOM     10  C   UNL d   1      24.532 -18.200   0.552  0.00  0.00     0.016 A 
ATOM     11  C   UNL d   1      23.725 -17.754  -0.503  0.00  0.00     0.048 A 
ATOM     12  C   UNL d   1      24.300 -16.996  -1.531  0.00  0.00     0.027 A 
BRANCH  11  13
ATOM     13  C   UNL d   1      22.268 -18.121  -0.564  0.00  0.00     0.417 C 
ATOM     14  F   UNL d   1      21.803 -18.590   0.625  0.00  0.00    -0.166 F 
ATOM     15  F   UNL d   1      21.476 -17.066  -0.896  0.00  0.00    -0.166 F 
ATOM     16  F   UNL d   1      21.997 -19.094  -1.481  0.00  0.00    -0.166 F 
ENDBRANCH  11  13
ENDBRANCH   6   7
ENDBRANCH   2   5
BRANCH   1  17
ATOM     17  C   UNL d   1      26.944 -12.498  -5.770  0.00  0.00     0.068 A 
ATOM     18  C   UNL d   1      28.044 -13.025  -6.463  0.00  0.00     0.033 A 
ATOM     19  C   UNL d   1      28.728 -12.322  -7.457  0.00  0.00     0.009 A 
ATOM     20  C   UNL d   1      28.324 -11.043  -7.808  0.00  0.00    -0.059 A 
ATOM     21  C   UNL d   1      29.030 -10.283  -8.887  0.00  0.00     0.048 C 
ATOM     22  C   UNL d   1      27.238 -10.480  -7.131  0.00  0.00     0.045 A 
ATOM     23  C   UNL d   1      26.558 -11.191  -6.123  0.00  0.00     0.092 A 
BRANCH  23  24
ATOM     24  O   UNL d   1      25.528 -10.491  -5.555  0.00  0.00    -0.358 OA
ATOM     25  H   UNL d   1      24.786 -11.076  -5.365  0.00  0.00     0.217 HD
ENDBRANCH  23  24
ENDBRANCH   1  17
TORSDOF 5
ENDMDL
MODEL 9
REMARK VINA RESULT:    -6.237      1.962      2.714
REMARK INTER + INTRA:          -8.999
REMARK INTER:                  -7.728
REMARK INTRA:                  -1.271
REMARK CONF_INDEPENDENT:        1.492
REMARK UNBOUND:                -1.271
REMARK  5 active torsions:
REMARK  status: ('A' for Active; 'I' for Inactive)
REMARK    1  A    between atoms: C_5  and  N_6 
REMARK       I    between atoms: N_6  and  C_7 
REMARK    2  A    between atoms: C_7  and  C_9 
REMARK    3  A    between atoms: C_10  and  C_11 
REMARK    4  A    between atoms: C_15  and  C_16 
REMARK    5  A    between atoms: C_21  and  O_22 
ROOT
ATOM      1  N   UNL d   1      21.494 -18.253  -0.864  0.00  0.00    -0.321 N 
ATOM      2  C   UNL d   1      22.856 -18.437  -0.648  0.00  0.00     0.245 C 
ATOM      3  O   UNL d   1      23.374 -19.284   0.080  0.00  0.00    -0.268 OA
ATOM      4  H   UNL d   1      21.213 -17.497  -1.468  0.00  0.00     0.169 HD
ENDROOT
BRANCH   2   5
ATOM      5  C   UNL d   1      23.763 -17.508  -1.376  0.00  0.00     0.075 C 
ATOM      6  C   UNL d   1      25.009 -17.340  -0.884  0.00  0.00     0.017 C 
BRANCH   6   7
ATOM      7  C   UNL d   1      26.004 -16.416  -1.439  0.00  0.00    -0.035 A 
ATOM      8  C   UNL d   1      25.836 -15.840  -2.705  0.00  0.00     0.011 A 
ATOM      9  C   UNL d   1      26.851 -15.060  -3.269  0.00  0.00     0.002 A 
ATOM     10  C   UNL d   1      28.018 -14.809  -2.550  0.00  0.00     0.016 A 
ATOM     11  C   UNL d   1      28.207 -15.389  -1.289  0.00  0.00     0.048 A 
ATOM     12  C   UNL d   1      27.197 -16.195  -0.749  0.00  0.00     0.027 A 
BRANCH  11  13
ATOM     13  C   UNL d   1      29.494 -15.192  -0.537  0.00  0.00     0.417 C 
ATOM     14  F   UNL d   1      29.287 -14.909   0.778  0.00  0.00    -0.166 F 
ATOM     15  F   UNL d   1      30.293 -16.293  -0.570  0.00  0.00    -0.166 F 
ATOM     16  F   UNL d   1      30.250 -14.168  -1.025  0.00  0.00    -0.166 F 
ENDBRANCH  11  13
ENDBRANCH   6   7
ENDBRANCH   2   5
BRANCH   1  17
ATOM     17  C   UNL d   1      20.464 -19.058  -0.267  0.00  0.00     0.068 A 
ATOM     18  C   UNL d   1      19.420 -19.579  -1.046  0.00  0.00     0.033 A 
ATOM     19  C   UNL d   1      18.403 -20.379  -0.520  0.00  0.00     0.009 A 
ATOM     20  C   UNL d   1      18.397 -20.700   0.828  0.00  0.00    -0.059 A 
ATOM     21  C   UNL d   1      17.328 -21.576   1.405  0.00  0.00     0.048 C 
ATOM     22  C   UNL d   1      19.415 -20.188   1.637  0.00  0.00     0.045 A 
ATOM     23  C   UNL d   1      20.433 -19.375   1.103  0.00  0.00     0.092 A 
BRANCH  23  24
ATOM     24  O   UNL d   1      21.343 -18.950   2.033  0.00  0.00    -0.358 OA
ATOM     25  H   UNL d   1      22.241 -19.065   1.704  0.00  0.00     0.217 HD
ENDBRANCH  23  24
ENDBRANCH   1  17
TORSDOF 5
ENDMDL
