MODEL 1
REMARK VINA RESULT:   -10.222      0.000      0.000
REMARK INTER + INTRA:         -17.079
REMARK INTER:                 -14.994
REMARK INTRA:                  -2.084
REMARK CONF_INDEPENDENT:        4.773
REMARK UNBOUND:                -2.084
REMARK  16 active torsions:
REMARK  status: ('A' for Active; 'I' for Inactive)
REMARK    1  A    between atoms: C_2  and  C_3 
REMARK       I    between atoms: C_2  and  N_18 
REMARK    2  A    between atoms: C_3  and  C_4 
REMARK    3  A    between atoms: C_4  and  C_5 
REMARK    4  A    between atoms: C_5  and  C_6 
REMARK    5  A    between atoms: C_6  and  O_8 
REMARK    6  A    between atoms: O_8  and  C_9 
REMARK    7  A    between atoms: C_9  and  C_10 
REMARK    8  A    between atoms: C_10  and  C_11 
REMARK    9  A    between atoms: C_11  and  C_12 
REMARK   10  A    between atoms: N_18  and  C_19 
REMARK   11  A    between atoms: C_19  and  N_21 
REMARK   12  A    between atoms: N_21  and  C_22 
REMARK   13  A    between atoms: C_25  and  O_26 
REMARK   14  A    between atoms: O_26  and  C_27 
REMARK   15  A    between atoms: C_27  and  C_28 
REMARK   16  A    between atoms: C_28  and  C_29 
ROOT
ATOM      1  O   UNL d   1      30.695 -14.150  -2.332  0.00  0.00    -0.273 OA
ATOM      2  C   UNL d   1      29.823 -14.638  -1.614  0.00  0.00     0.223 C 
ATOM      3  N   UNL d   1      29.442 -13.996  -0.420  0.00  0.00    -0.304 N 
ATOM      4  H   UNL d   1      30.001 -13.162  -0.279  0.00  0.00     0.171 HD
ENDROOT
BRANCH   3   5
ATOM      5  C   UNL d   1      28.407 -14.269   0.507  0.00  0.00     0.178 C 
ATOM      6  S   UNL d   1      27.487 -13.080   1.298  0.00  0.00    -0.040 SA
BRANCH   5   7
ATOM      7  N   UNL d   1      28.208 -15.644   0.752  0.00  0.00    -0.333 N 
ATOM      8  H   UNL d   1      28.777 -16.117   1.445  0.00  0.00     0.168 HD
BRANCH   7   9
ATOM      9  C   UNL d   1      26.991 -16.298   0.376  0.00  0.00     0.034 A 
ATOM     10  C   UNL d   1      25.914 -15.622  -0.196  0.00  0.00     0.032 A 
ATOM     11  C   UNL d   1      24.775 -16.348  -0.608  0.00  0.00     0.039 A 
ATOM     12  C   UNL d   1      24.734 -17.745  -0.521  0.00  0.00     0.068 A 
ATOM     13  C   UNL d   1      25.813 -18.408   0.050  0.00  0.00     0.039 A 
ATOM     14  C   UNL d   1      26.894 -17.685   0.537  0.00  0.00     0.032 A 
BRANCH  12  15
ATOM     15  O   UNL d   1      23.609 -18.365  -1.009  0.00  0.00    -0.351 OA
BRANCH  15  16
ATOM     16  C   UNL d   1      22.423 -18.098  -0.252  0.00  0.00     0.180 C 
BRANCH  16  17
ATOM     17  C   UNL d   1      21.172 -18.610  -0.962  0.00  0.00     0.065 C 
BRANCH  17  18
ATOM     18  C   UNL d   1      20.229 -19.331  -0.018  0.00  0.00    -0.056 A 
ATOM     19  C   UNL d   1      20.450 -19.332   1.370  0.00  0.00     0.007 A 
ATOM     20  C   UNL d   1      19.645 -20.075   2.229  0.00  0.00     0.001 A 
ATOM     21  C   UNL d   1      18.563 -20.781   1.722  0.00  0.00     0.000 A 
ATOM     22  C   UNL d   1      18.317 -20.783   0.348  0.00  0.00     0.001 A 
ATOM     23  C   UNL d   1      19.153 -20.075  -0.520  0.00  0.00     0.007 A 
ENDBRANCH  17  18
ENDBRANCH  16  17
ENDBRANCH  15  16
ENDBRANCH  12  15
ENDBRANCH   7   9
ENDBRANCH   5   7
ENDBRANCH   3   5
BRANCH   2  24
ATOM     24  C   UNL d   1      29.113 -15.937  -1.951  0.00  0.00     0.103 C 
BRANCH  24  25
ATOM     25  C   UNL d   1      28.209 -15.975  -3.155  0.00  0.00     0.019 C 
BRANCH  25  26
ATOM     26  C   UNL d   1      27.252 -14.765  -3.162  0.00  0.00     0.111 C 
BRANCH  26  27
ATOM     27  C   UNL d   1      26.317 -14.898  -4.334  0.00  0.00     0.258 C 
ATOM     28  O   UNL d   1      25.159 -14.469  -4.342  0.00  0.00    -0.265 OA
BRANCH  27  29
ATOM     29  O   UNL d   1      26.891 -15.540  -5.383  0.00  0.00    -0.321 OA
BRANCH  29  30
ATOM     30  C   UNL d   1      27.752 -14.678  -6.151  0.00  0.00     0.179 C 
BRANCH  30  31
ATOM     31  C   UNL d   1      29.190 -14.914  -5.729  0.00  0.00     0.031 C 
BRANCH  31  32
ATOM     32  C   UNL d   1      30.026 -15.528  -6.855  0.00  0.00     0.041 C 
BRANCH  32  33
ATOM     33  C   UNL d   1      30.460 -16.947  -6.570  0.00  0.00    -0.058 A 
ATOM     34  C   UNL d   1      30.971 -17.751  -7.597  0.00  0.00     0.007 A 
ATOM     35  C   UNL d   1      31.227 -19.106  -7.369  0.00  0.00     0.001 A 
ATOM     36  C   UNL d   1      31.050 -19.650  -6.098  0.00  0.00     0.000 A 
ATOM     37  C   UNL d   1      30.574 -18.855  -5.063  0.00  0.00     0.001 A 
ATOM     38  C   UNL d   1      30.263 -17.521  -5.305  0.00  0.00     0.007 A 
ENDBRANCH  32  33
ENDBRANCH  31  32
ENDBRANCH  30  31
ENDBRANCH  29  30
ENDBRANCH  27  29
ENDBRANCH  26  27
ENDBRANCH  25  26
ENDBRANCH  24  25
ENDBRANCH   2  24
TORSDOF 16
ENDMDL
MODEL 2
REMARK VINA RESULT:    -9.676      1.242      2.026
REMARK INTER + INTRA:         -16.764
REMARK INTER:                 -14.449
REMARK INTRA:                  -2.315
REMARK CONF_INDEPENDENT:        4.773
REMARK UNBOUND:                -2.315
REMARK  16 active torsions:
REMARK  status: ('A' for Active; 'I' for Inactive)
REMARK    1  A    between atoms: C_2  and  C_3 
REMARK       I    between atoms: C_2  and  N_18 
REMARK    2  A    between atoms: C_3  and  C_4 
REMARK    3  A    between atoms: C_4  and  C_5 
REMARK    4  A    between atoms: C_5  and  C_6 
REMARK    5  A    between atoms: C_6  and  O_8 
REMARK    6  A    between atoms: O_8  and  C_9 
REMARK    7  A    between atoms: C_9  and  C_10 
REMARK    8  A    between atoms: C_10  and  C_11 
REMARK    9  A    between atoms: C_11  and  C_12 
REMARK   10  A    between atoms: N_18  and  C_19 
REMARK   11  A    between atoms: C_19  and  N_21 
REMARK   12  A    between atoms: N_21  and  C_22 
REMARK   13  A    between atoms: C_25  and  O_26 
REMARK   14  A    between atoms: O_26  and  C_27 
REMARK   15  A    between atoms: C_27  and  C_28 
REMARK   16  A    between atoms: C_28  and  C_29 
ROOT
ATOM      1  O   UNL d   1      29.124 -12.008  -2.764  0.00  0.00    -0.273 OA
ATOM      2  C   UNL d   1      28.376 -12.796  -2.188  0.00  0.00     0.223 C 
ATOM      3  N   UNL d   1      28.907 -13.828  -1.390  0.00  0.00    -0.304 N 
ATOM      4  H   UNL d   1      29.920 -13.804  -1.418  0.00  0.00     0.171 HD
ENDROOT
BRANCH   3   5
ATOM      5  C   UNL d   1      28.286 -14.775  -0.539  0.00  0.00     0.178 C 
ATOM      6  S   UNL d   1      27.864 -14.481   1.079  0.00  0.00    -0.040 SA
BRANCH   5   7
ATOM      7  N   UNL d   1      28.061 -16.028  -1.147  0.00  0.00    -0.333 N 
ATOM      8  H   UNL d   1      28.848 -16.564  -1.495  0.00  0.00     0.168 HD
BRANCH   7   9
ATOM      9  C   UNL d   1      26.844 -16.751  -0.933  0.00  0.00     0.034 A 
ATOM     10  C   UNL d   1      26.727 -17.773   0.008  0.00  0.00     0.032 A 
ATOM     11  C   UNL d   1      25.473 -18.390   0.214  0.00  0.00     0.039 A 
ATOM     12  C   UNL d   1      24.327 -17.946  -0.457  0.00  0.00     0.068 A 
ATOM     13  C   UNL d   1      24.456 -16.927  -1.392  0.00  0.00     0.039 A 
ATOM     14  C   UNL d   1      25.705 -16.383  -1.659  0.00  0.00     0.032 A 
BRANCH  12  15
ATOM     15  O   UNL d   1      23.142 -18.567  -0.140  0.00  0.00    -0.351 OA
BRANCH  15  16
ATOM     16  C   UNL d   1      21.980 -17.879  -0.615  0.00  0.00     0.180 C 
BRANCH  16  17
ATOM     17  C   UNL d   1      20.920 -18.849  -1.132  0.00  0.00     0.065 C 
BRANCH  17  18
ATOM     18  C   UNL d   1      20.178 -19.544  -0.006  0.00  0.00    -0.056 A 
ATOM     19  C   UNL d   1      19.020 -20.301  -0.257  0.00  0.00     0.007 A 
ATOM     20  C   UNL d   1      18.281 -20.855   0.784  0.00  0.00     0.001 A 
ATOM     21  C   UNL d   1      18.723 -20.718   2.093  0.00  0.00     0.000 A 
ATOM     22  C   UNL d   1      19.877 -19.982   2.363  0.00  0.00     0.001 A 
ATOM     23  C   UNL d   1      20.594 -19.385   1.322  0.00  0.00     0.007 A 
ENDBRANCH  17  18
ENDBRANCH  16  17
ENDBRANCH  15  16
ENDBRANCH  12  15
ENDBRANCH   7   9
ENDBRANCH   5   7
ENDBRANCH   3   5
BRANCH   2  24
ATOM     24  C   UNL d   1      26.863 -12.721  -2.294  0.00  0.00     0.103 C 
BRANCH  24  25
ATOM     25  C   UNL d   1      26.251 -12.293  -3.600  0.00  0.00     0.019 C 
BRANCH  25  26
ATOM     26  C   UNL d   1      26.702 -13.218  -4.749  0.00  0.00     0.111 C 
BRANCH  26  27
ATOM     27  C   UNL d   1      25.953 -14.519  -4.642  0.00  0.00     0.258 C 
ATOM     28  O   UNL d   1      24.785 -14.610  -4.250  0.00  0.00    -0.265 OA
BRANCH  27  29
ATOM     29  O   UNL d   1      26.704 -15.582  -5.028  0.00  0.00    -0.321 OA
BRANCH  29  30
ATOM     30  C   UNL d   1      28.065 -15.489  -4.569  0.00  0.00     0.179 C 
BRANCH  30  31
ATOM     31  C   UNL d   1      28.995 -15.541  -5.766  0.00  0.00     0.031 C 
BRANCH  31  32
ATOM     32  C   UNL d   1      30.336 -16.198  -5.425  0.00  0.00     0.041 C 
BRANCH  32  33
ATOM     33  C   UNL d   1      30.736 -17.277  -6.404  0.00  0.00    -0.058 A 
ATOM     34  C   UNL d   1      30.416 -18.616  -6.151  0.00  0.00     0.007 A 
ATOM     35  C   UNL d   1      30.917 -19.628  -6.974  0.00  0.00     0.001 A 
ATOM     36  C   UNL d   1      31.676 -19.307  -8.099  0.00  0.00     0.000 A 
ATOM     37  C   UNL d   1      31.974 -17.979  -8.379  0.00  0.00     0.001 A 
ATOM     38  C   UNL d   1      31.524 -16.976  -7.526  0.00  0.00     0.007 A 
ENDBRANCH  32  33
ENDBRANCH  31  32
ENDBRANCH  30  31
ENDBRANCH  29  30
ENDBRANCH  27  29
ENDBRANCH  26  27
ENDBRANCH  25  26
ENDBRANCH  24  25
ENDBRANCH   2  24
TORSDOF 16
ENDMDL
MODEL 3
REMARK VINA RESULT:    -9.035      1.401      2.320
REMARK INTER + INTRA:         -16.185
REMARK INTER:                 -13.808
REMARK INTRA:                  -2.377
REMARK CONF_INDEPENDENT:        4.773
REMARK UNBOUND:                -2.377
REMARK  16 active torsions:
REMARK  status: ('A' for Active; 'I' for Inactive)
REMARK    1  A    between atoms: C_2  and  C_3 
REMARK       I    between atoms: C_2  and  N_18 
REMARK    2  A    between atoms: C_3  and  C_4 
REMARK    3  A    between atoms: C_4  and  C_5 
REMARK    4  A    between atoms: C_5  and  C_6 
REMARK    5  A    between atoms: C_6  and  O_8 
REMARK    6  A    between atoms: O_8  and  C_9 
REMARK    7  A    between atoms: C_9  and  C_10 
REMARK    8  A    between atoms: C_10  and  C_11 
REMARK    9  A    between atoms: C_11  and  C_12 
REMARK   10  A    between atoms: N_18  and  C_19 
REMARK   11  A    between atoms: C_19  and  N_21 
REMARK   12  A    between atoms: N_21  and  C_22 
REMARK   13  A    between atoms: C_25  and  O_26 
REMARK   14  A    between atoms: O_26  and  C_27 
REMARK   15  A    between atoms: C_27  and  C_28 
REMARK   16  A    between atoms: C_28  and  C_29 
ROOT
ATOM      1  O   UNL d   1      30.002 -12.796  -2.078  0.00  0.00    -0.273 OA
ATOM      2  C   UNL d   1      29.093 -13.167  -1.338  0.00  0.00     0.223 C 
ATOM      3  N   UNL d   1      29.317 -14.184  -0.389  0.00  0.00    -0.304 N 
ATOM      4  H   UNL d   1      30.268 -14.527  -0.465  0.00  0.00     0.171 HD
ENDROOT
BRANCH   3   5
ATOM      5  C   UNL d   1      28.501 -14.704   0.645  0.00  0.00     0.178 C 
ATOM      6  S   UNL d   1      27.903 -13.792   1.947  0.00  0.00    -0.040 SA
BRANCH   5   7
ATOM      7  N   UNL d   1      28.236 -16.085   0.524  0.00  0.00    -0.333 N 
ATOM      8  H   UNL d   1      28.845 -16.753   0.981  0.00  0.00     0.168 HD
BRANCH   7   9
ATOM      9  C   UNL d   1      26.943 -16.562   0.138  0.00  0.00     0.034 A 
ATOM     10  C   UNL d   1      26.006 -15.764  -0.518  0.00  0.00     0.032 A 
ATOM     11  C   UNL d   1      24.779 -16.329  -0.932  0.00  0.00     0.039 A 
ATOM     12  C   UNL d   1      24.513 -17.693  -0.763  0.00  0.00     0.068 A 
ATOM     13  C   UNL d   1      25.454 -18.478  -0.108  0.00  0.00     0.039 A 
ATOM     14  C   UNL d   1      26.620 -17.903   0.379  0.00  0.00     0.032 A 
BRANCH  12  15
ATOM     15  O   UNL d   1      23.319 -18.159  -1.258  0.00  0.00    -0.351 OA
BRANCH  15  16
ATOM     16  C   UNL d   1      22.346 -18.454  -0.250  0.00  0.00     0.180 C 
BRANCH  16  17
ATOM     17  C   UNL d   1      20.947 -18.608  -0.841  0.00  0.00     0.065 C 
BRANCH  17  18
ATOM     18  C   UNL d   1      20.053 -19.484   0.016  0.00  0.00    -0.056 A 
ATOM     19  C   UNL d   1      18.912 -20.104  -0.521  0.00  0.00     0.007 A 
ATOM     20  C   UNL d   1      18.035 -20.824   0.284  0.00  0.00     0.001 A 
ATOM     21  C   UNL d   1      18.318 -20.993   1.633  0.00  0.00     0.000 A 
ATOM     22  C   UNL d   1      19.452 -20.397   2.184  0.00  0.00     0.001 A 
ATOM     23  C   UNL d   1      20.308 -19.634   1.385  0.00  0.00     0.007 A 
ENDBRANCH  17  18
ENDBRANCH  16  17
ENDBRANCH  15  16
ENDBRANCH  12  15
ENDBRANCH   7   9
ENDBRANCH   5   7
ENDBRANCH   3   5
BRANCH   2  24
ATOM     24  C   UNL d   1      27.696 -12.574  -1.389  0.00  0.00     0.103 C 
BRANCH  24  25
ATOM     25  C   UNL d   1      27.103 -12.239  -2.731  0.00  0.00     0.019 C 
BRANCH  25  26
ATOM     26  C   UNL d   1      25.601 -12.585  -2.771  0.00  0.00     0.111 C 
BRANCH  26  27
ATOM     27  C   UNL d   1      25.295 -13.256  -4.083  0.00  0.00     0.258 C 
ATOM     28  O   UNL d   1      25.604 -12.788  -5.184  0.00  0.00    -0.265 OA
BRANCH  27  29
ATOM     29  O   UNL d   1      24.645 -14.437  -3.921  0.00  0.00    -0.321 OA
BRANCH  29  30
ATOM     30  C   UNL d   1      25.531 -15.568  -4.007  0.00  0.00     0.179 C 
BRANCH  30  31
ATOM     31  C   UNL d   1      26.628 -15.261  -5.008  0.00  0.00     0.031 C 
BRANCH  31  32
ATOM     32  C   UNL d   1      27.985 -15.057  -4.330  0.00  0.00     0.041 C 
BRANCH  32  33
ATOM     33  C   UNL d   1      29.145 -15.079  -5.299  0.00  0.00    -0.058 A 
ATOM     34  C   UNL d   1      29.264 -14.088  -6.281  0.00  0.00     0.007 A 
ATOM     35  C   UNL d   1      30.246 -14.192  -7.271  0.00  0.00     0.001 A 
ATOM     36  C   UNL d   1      31.162 -15.242  -7.243  0.00  0.00     0.000 A 
ATOM     37  C   UNL d   1      31.073 -16.215  -6.255  0.00  0.00     0.001 A 
ATOM     38  C   UNL d   1      30.060 -16.143  -5.305  0.00  0.00     0.007 A 
ENDBRANCH  32  33
ENDBRANCH  31  32
ENDBRANCH  30  31
ENDBRANCH  29  30
ENDBRANCH  27  29
ENDBRANCH  26  27
ENDBRANCH  25  26
ENDBRANCH  24  25
ENDBRANCH   2  24
TORSDOF 16
ENDMDL
MODEL 4
REMARK VINA RESULT:    -8.960      2.384      3.529
REMARK INTER + INTRA:         -16.097
REMARK INTER:                 -13.732
REMARK INTRA:                  -2.364
REMARK CONF_INDEPENDENT:        4.773
REMARK UNBOUND:                -2.364
REMARK  16 active torsions:
REMARK  status: ('A' for Active; 'I' for Inactive)
REMARK    1  A    between atoms: C_2  and  C_3 
REMARK       I    between atoms: C_2  and  N_18 
REMARK    2  A    between atoms: C_3  and  C_4 
REMARK    3  A    between atoms: C_4  and  C_5 
REMARK    4  A    between atoms: C_5  and  C_6 
REMARK    5  A    between atoms: C_6  and  O_8 
REMARK    6  A    between atoms: O_8  and  C_9 
REMARK    7  A    between atoms: C_9  and  C_10 
REMARK    8  A    between atoms: C_10  and  C_11 
REMARK    9  A    between atoms: C_11  and  C_12 
REMARK   10  A    between atoms: N_18  and  C_19 
REMARK   11  A    between atoms: C_19  and  N_21 
REMARK   12  A    between atoms: N_21  and  C_22 
REMARK   13  A    between atoms: C_25  and  O_26 
REMARK   14  A    between atoms: O_26  and  C_27 
REMARK   15  A    between atoms: C_27  and  C_28 
REMARK   16  A    between atoms: C_28  and  C_29 
ROOT
ATOM      1  O   UNL d   1      30.852 -13.439  -1.424  0.00  0.00    -0.273 OA
ATOM      2  C   UNL d   1      29.752 -13.863  -1.074  0.00  0.00     0.223 C 
ATOM      3  N   UNL d   1      29.549 -14.315   0.245  0.00  0.00    -0.304 N 
ATOM      4  H   UNL d   1      30.414 -14.256   0.770  0.00  0.00     0.171 HD
ENDROOT
BRANCH   3   5
ATOM      5  C   UNL d   1      28.380 -14.729   0.930  0.00  0.00     0.178 C 
ATOM      6  S   UNL d   1      27.448 -13.723   1.931  0.00  0.00    -0.040 SA
BRANCH   5   7
ATOM      7  N   UNL d   1      28.053 -16.087   0.732  0.00  0.00    -0.333 N 
ATOM      8  H   UNL d   1      28.587 -16.804   1.208  0.00  0.00     0.168 HD
BRANCH   7   9
ATOM      9  C   UNL d   1      26.771 -16.477   0.229  0.00  0.00     0.034 A 
ATOM     10  C   UNL d   1      25.909 -15.591  -0.418  0.00  0.00     0.032 A 
ATOM     11  C   UNL d   1      24.693 -16.068  -0.952  0.00  0.00     0.039 A 
ATOM     12  C   UNL d   1      24.365 -17.429  -0.911  0.00  0.00     0.068 A 
ATOM     13  C   UNL d   1      25.231 -18.302  -0.265  0.00  0.00     0.039 A 
ATOM     14  C   UNL d   1      26.383 -17.818   0.339  0.00  0.00     0.032 A 
BRANCH  12  15
ATOM     15  O   UNL d   1      23.190 -17.804  -1.516  0.00  0.00    -0.351 OA
BRANCH  15  16
ATOM     16  C   UNL d   1      22.560 -18.939  -0.912  0.00  0.00     0.180 C 
BRANCH  16  17
ATOM     17  C   UNL d   1      21.886 -18.575   0.409  0.00  0.00     0.065 C 
BRANCH  17  18
ATOM     18  C   UNL d   1      20.641 -19.402   0.667  0.00  0.00    -0.056 A 
ATOM     19  C   UNL d   1      19.796 -19.792  -0.386  0.00  0.00     0.007 A 
ATOM     20  C   UNL d   1      18.602 -20.464  -0.143  0.00  0.00     0.001 A 
ATOM     21  C   UNL d   1      18.260 -20.815   1.156  0.00  0.00     0.000 A 
ATOM     22  C   UNL d   1      19.091 -20.448   2.215  0.00  0.00     0.001 A 
ATOM     23  C   UNL d   1      20.268 -19.733   1.976  0.00  0.00     0.007 A 
ENDBRANCH  17  18
ENDBRANCH  16  17
ENDBRANCH  15  16
ENDBRANCH  12  15
ENDBRANCH   7   9
ENDBRANCH   5   7
ENDBRANCH   3   5
BRANCH   2  24
ATOM     24  C   UNL d   1      28.560 -13.931  -2.012  0.00  0.00     0.103 C 
BRANCH  24  25
ATOM     25  C   UNL d   1      28.565 -14.959  -3.112  0.00  0.00     0.019 C 
BRANCH  25  26
ATOM     26  C   UNL d   1      27.230 -15.730  -3.150  0.00  0.00     0.111 C 
BRANCH  26  27
ATOM     27  C   UNL d   1      26.471 -15.319  -4.383  0.00  0.00     0.258 C 
ATOM     28  O   UNL d   1      26.985 -15.199  -5.499  0.00  0.00    -0.265 OA
BRANCH  27  29
ATOM     29  O   UNL d   1      25.155 -15.098  -4.130  0.00  0.00    -0.321 OA
BRANCH  29  30
ATOM     30  C   UNL d   1      24.794 -13.712  -4.271  0.00  0.00     0.179 C 
BRANCH  30  31
ATOM     31  C   UNL d   1      26.034 -12.858  -4.087  0.00  0.00     0.031 C 
BRANCH  31  32
ATOM     32  C   UNL d   1      26.064 -11.672  -5.054  0.00  0.00     0.041 C 
BRANCH  32  33
ATOM     33  C   UNL d   1      27.324 -11.616  -5.888  0.00  0.00    -0.058 A 
ATOM     34  C   UNL d   1      27.977 -10.395  -6.101  0.00  0.00     0.007 A 
ATOM     35  C   UNL d   1      29.050 -10.316  -6.993  0.00  0.00     0.001 A 
ATOM     36  C   UNL d   1      29.528 -11.467  -7.619  0.00  0.00     0.000 A 
ATOM     37  C   UNL d   1      28.908 -12.689  -7.392  0.00  0.00     0.001 A 
ATOM     38  C   UNL d   1      27.803 -12.757  -6.549  0.00  0.00     0.007 A 
ENDBRANCH  32  33
ENDBRANCH  31  32
ENDBRANCH  30  31
ENDBRANCH  29  30
ENDBRANCH  27  29
ENDBRANCH  26  27
ENDBRANCH  25  26
ENDBRANCH  24  25
ENDBRANCH   2  24
TORSDOF 16
ENDMDL
MODEL 5
REMARK VINA RESULT:    -8.802      2.566      4.885
REMARK INTER + INTRA:         -16.419
REMARK INTER:                 -13.575
REMARK INTRA:                  -2.844
REMARK CONF_INDEPENDENT:        4.773
REMARK UNBOUND:                -2.844
REMARK  16 active torsions:
REMARK  status: ('A' for Active; 'I' for Inactive)
REMARK    1  A    between atoms: C_2  and  C_3 
REMARK       I    between atoms: C_2  and  N_18 
REMARK    2  A    between atoms: C_3  and  C_4 
REMARK    3  A    between atoms: C_4  and  C_5 
REMARK    4  A    between atoms: C_5  and  C_6 
REMARK    5  A    between atoms: C_6  and  O_8 
REMARK    6  A    between atoms: O_8  and  C_9 
REMARK    7  A    between atoms: C_9  and  C_10 
REMARK    8  A    between atoms: C_10  and  C_11 
REMARK    9  A    between atoms: C_11  and  C_12 
REMARK   10  A    between atoms: N_18  and  C_19 
REMARK   11  A    between atoms: C_19  and  N_21 
REMARK   12  A    between atoms: N_21  and  C_22 
REMARK   13  A    between atoms: C_25  and  O_26 
REMARK   14  A    between atoms: O_26  and  C_27 
REMARK   15  A    between atoms: C_27  and  C_28 
REMARK   16  A    between atoms: C_28  and  C_29 
ROOT
ATOM      1  O   UNL d   1      31.262 -15.709  -0.314  0.00  0.00    -0.273 OA
ATOM      2  C   UNL d   1      30.163 -15.171  -0.433  0.00  0.00     0.223 C 
ATOM      3  N   UNL d   1      29.184 -15.319   0.569  0.00  0.00    -0.304 N 
ATOM      4  H   UNL d   1      29.530 -15.923   1.306  0.00  0.00     0.171 HD
ENDROOT
BRANCH   3   5
ATOM      5  C   UNL d   1      27.911 -14.722   0.738  0.00  0.00     0.178 C 
ATOM      6  S   UNL d   1      27.404 -13.924   2.149  0.00  0.00    -0.040 SA
BRANCH   5   7
ATOM      7  N   UNL d   1      27.060 -14.867  -0.377  0.00  0.00    -0.333 N 
ATOM      8  H   UNL d   1      27.224 -14.309  -1.208  0.00  0.00     0.168 HD
BRANCH   7   9
ATOM      9  C   UNL d   1      26.245 -16.033  -0.545  0.00  0.00     0.034 A 
ATOM     10  C   UNL d   1      26.559 -17.264   0.029  0.00  0.00     0.032 A 
ATOM     11  C   UNL d   1      25.667 -18.349  -0.120  0.00  0.00     0.039 A 
ATOM     12  C   UNL d   1      24.438 -18.195  -0.771  0.00  0.00     0.068 A 
ATOM     13  C   UNL d   1      24.136 -16.963  -1.339  0.00  0.00     0.039 A 
ATOM     14  C   UNL d   1      25.053 -15.923  -1.270  0.00  0.00     0.032 A 
BRANCH  12  15
ATOM     15  O   UNL d   1      23.611 -19.292  -0.807  0.00  0.00    -0.351 OA
BRANCH  15  16
ATOM     16  C   UNL d   1      22.219 -18.969  -0.903  0.00  0.00     0.180 C 
BRANCH  16  17
ATOM     17  C   UNL d   1      21.618 -18.645   0.463  0.00  0.00     0.065 C 
BRANCH  17  18
ATOM     18  C   UNL d   1      20.407 -19.502   0.776  0.00  0.00    -0.056 A 
ATOM     19  C   UNL d   1      19.614 -20.044  -0.250  0.00  0.00     0.007 A 
ATOM     20  C   UNL d   1      18.446 -20.745   0.033  0.00  0.00     0.001 A 
ATOM     21  C   UNL d   1      18.081 -20.973   1.353  0.00  0.00     0.000 A 
ATOM     22  C   UNL d   1      18.861 -20.455   2.388  0.00  0.00     0.001 A 
ATOM     23  C   UNL d   1      20.009 -19.711   2.103  0.00  0.00     0.007 A 
ENDBRANCH  17  18
ENDBRANCH  16  17
ENDBRANCH  15  16
ENDBRANCH  12  15
ENDBRANCH   7   9
ENDBRANCH   5   7
ENDBRANCH   3   5
BRANCH   2  24
ATOM     24  C   UNL d   1      29.785 -14.330  -1.640  0.00  0.00     0.103 C 
BRANCH  24  25
ATOM     25  C   UNL d   1      29.980 -14.911  -3.015  0.00  0.00     0.019 C 
BRANCH  25  26
ATOM     26  C   UNL d   1      28.928 -16.002  -3.305  0.00  0.00     0.111 C 
BRANCH  26  27
ATOM     27  C   UNL d   1      27.813 -15.394  -4.111  0.00  0.00     0.258 C 
ATOM     28  O   UNL d   1      27.661 -15.577  -5.324  0.00  0.00    -0.265 OA
BRANCH  27  29
ATOM     29  O   UNL d   1      26.990 -14.622  -3.356  0.00  0.00    -0.321 OA
BRANCH  29  30
ATOM     30  C   UNL d   1      25.645 -14.590  -3.869  0.00  0.00     0.179 C 
BRANCH  30  31
ATOM     31  C   UNL d   1      25.361 -13.206  -4.422  0.00  0.00     0.031 C 
BRANCH  31  32
ATOM     32  C   UNL d   1      26.435 -12.193  -4.018  0.00  0.00     0.041 C 
BRANCH  32  33
ATOM     33  C   UNL d   1      26.030 -10.760  -4.277  0.00  0.00    -0.058 A 
ATOM     34  C   UNL d   1      26.047  -9.822  -3.237  0.00  0.00     0.007 A 
ATOM     35  C   UNL d   1      25.529  -8.540  -3.438  0.00  0.00     0.001 A 
ATOM     36  C   UNL d   1      25.062  -8.159  -4.695  0.00  0.00     0.000 A 
ATOM     37  C   UNL d   1      25.069  -9.072  -5.743  0.00  0.00     0.001 A 
ATOM     38  C   UNL d   1      25.530 -10.367  -5.527  0.00  0.00     0.007 A 
ENDBRANCH  32  33
ENDBRANCH  31  32
ENDBRANCH  30  31
ENDBRANCH  29  30
ENDBRANCH  27  29
ENDBRANCH  26  27
ENDBRANCH  25  26
ENDBRANCH  24  25
ENDBRANCH   2  24
TORSDOF 16
ENDMDL
MODEL 6
REMARK VINA RESULT:    -8.596      1.489      2.970
REMARK INTER + INTRA:         -16.050
REMARK INTER:                 -13.369
REMARK INTRA:                  -2.682
REMARK CONF_INDEPENDENT:        4.773
REMARK UNBOUND:                -2.682
REMARK  16 active torsions:
REMARK  status: ('A' for Active; 'I' for Inactive)
REMARK    1  A    between atoms: C_2  and  C_3 
REMARK       I    between atoms: C_2  and  N_18 
REMARK    2  A    between atoms: C_3  and  C_4 
REMARK    3  A    between atoms: C_4  and  C_5 
REMARK    4  A    between atoms: C_5  and  C_6 
REMARK    5  A    between atoms: C_6  and  O_8 
REMARK    6  A    between atoms: O_8  and  C_9 
REMARK    7  A    between atoms: C_9  and  C_10 
REMARK    8  A    between atoms: C_10  and  C_11 
REMARK    9  A    between atoms: C_11  and  C_12 
REMARK   10  A    between atoms: N_18  and  C_19 
REMARK   11  A    between atoms: C_19  and  N_21 
REMARK   12  A    between atoms: N_21  and  C_22 
REMARK   13  A    between atoms: C_25  and  O_26 
REMARK   14  A    between atoms: O_26  and  C_27 
REMARK   15  A    between atoms: C_27  and  C_28 
REMARK   16  A    between atoms: C_28  and  C_29 
ROOT
ATOM      1  O   UNL d   1      30.060 -12.588  -1.781  0.00  0.00    -0.273 OA
ATOM      2  C   UNL d   1      29.076 -13.020  -1.183  0.00  0.00     0.223 C 
ATOM      3  N   UNL d   1      29.223 -14.014  -0.195  0.00  0.00    -0.304 N 
ATOM      4  H   UNL d   1      30.196 -14.288  -0.119  0.00  0.00     0.171 HD
ENDROOT
BRANCH   3   5
ATOM      5  C   UNL d   1      28.296 -14.587   0.709  0.00  0.00     0.178 C 
ATOM      6  S   UNL d   1      27.499 -13.729   1.940  0.00  0.00    -0.040 SA
BRANCH   5   7
ATOM      7  N   UNL d   1      28.098 -15.971   0.524  0.00  0.00    -0.333 N 
ATOM      8  H   UNL d   1      28.736 -16.630   0.954  0.00  0.00     0.168 HD
BRANCH   7   9
ATOM      9  C   UNL d   1      26.830 -16.492   0.109  0.00  0.00     0.034 A 
ATOM     10  C   UNL d   1      25.975 -15.805  -0.753  0.00  0.00     0.032 A 
ATOM     11  C   UNL d   1      24.774 -16.417  -1.175  0.00  0.00     0.039 A 
ATOM     12  C   UNL d   1      24.458 -17.729  -0.805  0.00  0.00     0.068 A 
ATOM     13  C   UNL d   1      25.317 -18.404   0.053  0.00  0.00     0.039 A 
ATOM     14  C   UNL d   1      26.452 -17.769   0.540  0.00  0.00     0.032 A 
BRANCH  12  15
ATOM     15  O   UNL d   1      23.299 -18.258  -1.321  0.00  0.00    -0.351 OA
BRANCH  15  16
ATOM     16  C   UNL d   1      22.333 -18.621  -0.328  0.00  0.00     0.180 C 
BRANCH  16  17
ATOM     17  C   UNL d   1      20.947 -18.826  -0.936  0.00  0.00     0.065 C 
BRANCH  17  18
ATOM     18  C   UNL d   1      20.011 -19.562   0.003  0.00  0.00    -0.056 A 
ATOM     19  C   UNL d   1      20.300 -19.681   1.373  0.00  0.00     0.007 A 
ATOM     20  C   UNL d   1      19.496 -20.441   2.218  0.00  0.00     0.001 A 
ATOM     21  C   UNL d   1      18.349 -21.043   1.720  0.00  0.00     0.000 A 
ATOM     22  C   UNL d   1      18.035 -20.927   0.366  0.00  0.00     0.001 A 
ATOM     23  C   UNL d   1      18.868 -20.203  -0.493  0.00  0.00     0.007 A 
ENDBRANCH  17  18
ENDBRANCH  16  17
ENDBRANCH  15  16
ENDBRANCH  12  15
ENDBRANCH   7   9
ENDBRANCH   5   7
ENDBRANCH   3   5
BRANCH   2  24
ATOM     24  C   UNL d   1      27.665 -12.530  -1.457  0.00  0.00     0.103 C 
BRANCH  24  25
ATOM     25  C   UNL d   1      26.864 -13.204  -2.539  0.00  0.00     0.019 C 
BRANCH  25  26
ATOM     26  C   UNL d   1      27.638 -14.399  -3.132  0.00  0.00     0.111 C 
BRANCH  26  27
ATOM     27  C   UNL d   1      26.826 -14.990  -4.253  0.00  0.00     0.258 C 
ATOM     28  O   UNL d   1      25.622 -15.255  -4.166  0.00  0.00    -0.265 OA
BRANCH  27  29
ATOM     29  O   UNL d   1      27.565 -15.198  -5.373  0.00  0.00    -0.321 OA
BRANCH  29  30
ATOM     30  C   UNL d   1      28.901 -15.642  -5.075  0.00  0.00     0.179 C 
BRANCH  30  31
ATOM     31  C   UNL d   1      29.633 -15.913  -6.376  0.00  0.00     0.031 C 
BRANCH  31  32
ATOM     32  C   UNL d   1      30.141 -14.625  -7.030  0.00  0.00     0.041 C 
BRANCH  32  33
ATOM     33  C   UNL d   1      29.521 -13.376  -6.445  0.00  0.00    -0.058 A 
ATOM     34  C   UNL d   1      28.320 -12.875  -6.961  0.00  0.00     0.007 A 
ATOM     35  C   UNL d   1      27.827 -11.641  -6.527  0.00  0.00     0.001 A 
ATOM     36  C   UNL d   1      28.487 -10.936  -5.521  0.00  0.00     0.000 A 
ATOM     37  C   UNL d   1      29.663 -11.439  -4.979  0.00  0.00     0.001 A 
ATOM     38  C   UNL d   1      30.184 -12.638  -5.453  0.00  0.00     0.007 A 
ENDBRANCH  32  33
ENDBRANCH  31  32
ENDBRANCH  30  31
ENDBRANCH  29  30
ENDBRANCH  27  29
ENDBRANCH  26  27
ENDBRANCH  25  26
ENDBRANCH  24  25
ENDBRANCH   2  24
TORSDOF 16
ENDMDL
MODEL 7
REMARK VINA RESULT:    -8.302      1.739      2.269
REMARK INTER + INTRA:         -16.148
REMARK INTER:                 -13.075
REMARK INTRA:                  -3.073
REMARK CONF_INDEPENDENT:        4.773
REMARK UNBOUND:                -3.073
REMARK  16 active torsions:
REMARK  status: ('A' for Active; 'I' for Inactive)
REMARK    1  A    between atoms: C_2  and  C_3 
REMARK       I    between atoms: C_2  and  N_18 
REMARK    2  A    between atoms: C_3  and  C_4 
REMARK    3  A    between atoms: C_4  and  C_5 
REMARK    4  A    between atoms: C_5  and  C_6 
REMARK    5  A    between atoms: C_6  and  O_8 
REMARK    6  A    between atoms: O_8  and  C_9 
REMARK    7  A    between atoms: C_9  and  C_10 
REMARK    8  A    between atoms: C_10  and  C_11 
REMARK    9  A    between atoms: C_11  and  C_12 
REMARK   10  A    between atoms: N_18  and  C_19 
REMARK   11  A    between atoms: C_19  and  N_21 
REMARK   12  A    between atoms: N_21  and  C_22 
REMARK   13  A    between atoms: C_25  and  O_26 
REMARK   14  A    between atoms: O_26  and  C_27 
REMARK   15  A    between atoms: C_27  and  C_28 
REMARK   16  A    between atoms: C_28  and  C_29 
ROOT
ATOM      1  O   UNL d   1      27.805 -14.194   2.207  0.00  0.00    -0.273 OA
ATOM      2  C   UNL d   1      27.955 -14.441   1.012  0.00  0.00     0.223 C 
ATOM      3  N   UNL d   1      28.806 -15.487   0.602  0.00  0.00    -0.304 N 
ATOM      4  H   UNL d   1      29.243 -15.917   1.409  0.00  0.00     0.171 HD
ENDROOT
BRANCH   3   5
ATOM      5  C   UNL d   1      29.060 -16.050  -0.673  0.00  0.00     0.178 C 
ATOM      6  S   UNL d   1      30.565 -16.655  -1.173  0.00  0.00    -0.040 SA
BRANCH   5   7
ATOM      7  N   UNL d   1      27.940 -16.048  -1.531  0.00  0.00    -0.333 N 
ATOM      8  H   UNL d   1      28.068 -15.871  -2.520  0.00  0.00     0.168 HD
BRANCH   7   9
ATOM      9  C   UNL d   1      26.711 -16.677  -1.151  0.00  0.00     0.034 A 
ATOM     10  C   UNL d   1      26.634 -17.650  -0.155  0.00  0.00     0.032 A 
ATOM     11  C   UNL d   1      25.374 -18.170   0.214  0.00  0.00     0.039 A 
ATOM     12  C   UNL d   1      24.191 -17.677  -0.349  0.00  0.00     0.068 A 
ATOM     13  C   UNL d   1      24.280 -16.707  -1.340  0.00  0.00     0.039 A 
ATOM     14  C   UNL d   1      25.523 -16.261  -1.766  0.00  0.00     0.032 A 
BRANCH  12  15
ATOM     15  O   UNL d   1      23.012 -18.201   0.124  0.00  0.00    -0.351 OA
BRANCH  15  16
ATOM     16  C   UNL d   1      22.303 -18.995  -0.834  0.00  0.00     0.180 C 
BRANCH  16  17
ATOM     17  C   UNL d   1      20.836 -18.584  -0.934  0.00  0.00     0.065 C 
BRANCH  17  18
ATOM     18  C   UNL d   1      19.951 -19.379   0.007  0.00  0.00    -0.056 A 
ATOM     19  C   UNL d   1      20.262 -19.498   1.372  0.00  0.00     0.007 A 
ATOM     20  C   UNL d   1      19.509 -20.308   2.217  0.00  0.00     0.001 A 
ATOM     21  C   UNL d   1      18.390 -20.965   1.725  0.00  0.00     0.000 A 
ATOM     22  C   UNL d   1      18.055 -20.851   0.375  0.00  0.00     0.001 A 
ATOM     23  C   UNL d   1      18.838 -20.075  -0.484  0.00  0.00     0.007 A 
ENDBRANCH  17  18
ENDBRANCH  16  17
ENDBRANCH  15  16
ENDBRANCH  12  15
ENDBRANCH   7   9
ENDBRANCH   5   7
ENDBRANCH   3   5
BRANCH   2  24
ATOM     24  C   UNL d   1      27.256 -13.658  -0.085  0.00  0.00     0.103 C 
BRANCH  24  25
ATOM     25  C   UNL d   1      27.995 -12.527  -0.748  0.00  0.00     0.019 C 
BRANCH  25  26
ATOM     26  C   UNL d   1      28.789 -13.031  -1.971  0.00  0.00     0.111 C 
BRANCH  26  27
ATOM     27  C   UNL d   1      27.840 -13.199  -3.126  0.00  0.00     0.258 C 
ATOM     28  O   UNL d   1      26.963 -12.380  -3.421  0.00  0.00    -0.265 OA
BRANCH  27  29
ATOM     29  O   UNL d   1      28.057 -14.351  -3.810  0.00  0.00    -0.321 OA
BRANCH  29  30
ATOM     30  C   UNL d   1      28.529 -14.114  -5.149  0.00  0.00     0.179 C 
BRANCH  30  31
ATOM     31  C   UNL d   1      29.004 -15.426  -5.745  0.00  0.00     0.031 C 
BRANCH  31  32
ATOM     32  C   UNL d   1      29.639 -16.339  -4.693  0.00  0.00     0.041 C 
BRANCH  32  33
ATOM     33  C   UNL d   1      30.276 -17.576  -5.284  0.00  0.00    -0.058 A 
ATOM     34  C   UNL d   1      30.412 -17.707  -6.671  0.00  0.00     0.007 A 
ATOM     35  C   UNL d   1      30.858 -18.910  -7.225  0.00  0.00     0.001 A 
ATOM     36  C   UNL d   1      31.245 -19.963  -6.397  0.00  0.00     0.000 A 
ATOM     37  C   UNL d   1      31.144 -19.834  -5.017  0.00  0.00     0.001 A 
ATOM     38  C   UNL d   1      30.644 -18.657  -4.469  0.00  0.00     0.007 A 
ENDBRANCH  32  33
ENDBRANCH  31  32
ENDBRANCH  30  31
ENDBRANCH  29  30
ENDBRANCH  27  29
ENDBRANCH  26  27
ENDBRANCH  25  26
ENDBRANCH  24  25
ENDBRANCH   2  24
TORSDOF 16
ENDMDL
MODEL 8
REMARK VINA RESULT:    -7.515      1.890      3.951
REMARK INTER + INTRA:         -16.620
REMARK INTER:                 -12.288
REMARK INTRA:                  -4.332
REMARK CONF_INDEPENDENT:        4.773
REMARK UNBOUND:                -4.332
REMARK  16 active torsions:
REMARK  status: ('A' for Active; 'I' for Inactive)
REMARK    1  A    between atoms: C_2  and  C_3 
REMARK       I    between atoms: C_2  and  N_18 
REMARK    2  A    between atoms: C_3  and  C_4 
REMARK    3  A    between atoms: C_4  and  C_5 
REMARK    4  A    between atoms: C_5  and  C_6 
REMARK    5  A    between atoms: C_6  and  O_8 
REMARK    6  A    between atoms: O_8  and  C_9 
REMARK    7  A    between atoms: C_9  and  C_10 
REMARK    8  A    between atoms: C_10  and  C_11 
REMARK    9  A    between atoms: C_11  and  C_12 
REMARK   10  A    between atoms: N_18  and  C_19 
REMARK   11  A    between atoms: C_19  and  N_21 
REMARK   12  A    between atoms: N_21  and  C_22 
REMARK   13  A    between atoms: C_25  and  O_26 
REMARK   14  A    between atoms: O_26  and  C_27 
REMARK   15  A    between atoms: C_27  and  C_28 
REMARK   16  A    between atoms: C_28  and  C_29 
ROOT
ATOM      1  O   UNL d   1      31.294 -14.364  -2.145  0.00  0.00    -0.273 OA
ATOM      2  C   UNL d   1      30.183 -14.758  -1.794  0.00  0.00     0.223 C 
ATOM      3  N   UNL d   1      29.264 -13.866  -1.207  0.00  0.00    -0.304 N 
ATOM      4  H   UNL d   1      29.681 -12.946  -1.117  0.00  0.00     0.171 HD
ENDROOT
BRANCH   3   5
ATOM      5  C   UNL d   1      27.907 -14.023  -0.832  0.00  0.00     0.178 C 
ATOM      6  S   UNL d   1      27.251 -13.494   0.642  0.00  0.00    -0.040 SA
BRANCH   5   7
ATOM      7  N   UNL d   1      27.124 -14.696  -1.793  0.00  0.00    -0.333 N 
ATOM      8  H   UNL d   1      27.407 -14.685  -2.766  0.00  0.00     0.168 HD
BRANCH   7   9
ATOM      9  C   UNL d   1      26.194 -15.716  -1.413  0.00  0.00     0.034 A 
ATOM     10  C   UNL d   1      24.868 -15.731  -1.844  0.00  0.00     0.032 A 
ATOM     11  C   UNL d   1      24.031 -16.811  -1.486  0.00  0.00     0.039 A 
ATOM     12  C   UNL d   1      24.526 -17.905  -0.766  0.00  0.00     0.068 A 
ATOM     13  C   UNL d   1      25.848 -17.879  -0.342  0.00  0.00     0.039 A 
ATOM     14  C   UNL d   1      26.645 -16.776  -0.617  0.00  0.00     0.032 A 
BRANCH  12  15
ATOM     15  O   UNL d   1      23.650 -18.936  -0.523  0.00  0.00    -0.351 OA
BRANCH  15  16
ATOM     16  C   UNL d   1      22.489 -18.551   0.220  0.00  0.00     0.180 C 
BRANCH  16  17
ATOM     17  C   UNL d   1      21.209 -18.744  -0.589  0.00  0.00     0.065 C 
BRANCH  17  18
ATOM     18  C   UNL d   1      20.179 -19.575   0.152  0.00  0.00    -0.056 A 
ATOM     19  C   UNL d   1      19.081 -20.139  -0.519  0.00  0.00     0.007 A 
ATOM     20  C   UNL d   1      18.081 -20.816   0.173  0.00  0.00     0.001 A 
ATOM     21  C   UNL d   1      18.194 -20.997   1.545  0.00  0.00     0.000 A 
ATOM     22  C   UNL d   1      19.283 -20.456   2.229  0.00  0.00     0.001 A 
ATOM     23  C   UNL d   1      20.263 -19.735   1.541  0.00  0.00     0.007 A 
ENDBRANCH  17  18
ENDBRANCH  16  17
ENDBRANCH  15  16
ENDBRANCH  12  15
ENDBRANCH   7   9
ENDBRANCH   5   7
ENDBRANCH   3   5
BRANCH   2  24
ATOM     24  C   UNL d   1      29.731 -16.198  -1.958  0.00  0.00     0.103 C 
BRANCH  24  25
ATOM     25  C   UNL d   1      29.207 -16.642  -3.298  0.00  0.00     0.019 C 
BRANCH  25  26
ATOM     26  C   UNL d   1      29.507 -15.587  -4.382  0.00  0.00     0.111 C 
BRANCH  26  27
ATOM     27  C   UNL d   1      28.250 -15.335  -5.170  0.00  0.00     0.258 C 
ATOM     28  O   UNL d   1      28.237 -14.870  -6.314  0.00  0.00    -0.265 OA
BRANCH  27  29
ATOM     29  O   UNL d   1      27.131 -15.680  -4.483  0.00  0.00    -0.321 OA
BRANCH  29  30
ATOM     30  C   UNL d   1      25.929 -15.209  -5.119  0.00  0.00     0.179 C 
BRANCH  30  31
ATOM     31  C   UNL d   1      25.395 -14.018  -4.345  0.00  0.00     0.031 C 
BRANCH  31  32
ATOM     32  C   UNL d   1      25.967 -12.695  -4.857  0.00  0.00     0.041 C 
BRANCH  32  33
ATOM     33  C   UNL d   1      26.975 -12.077  -3.915  0.00  0.00    -0.058 A 
ATOM     34  C   UNL d   1      26.548 -11.436  -2.745  0.00  0.00     0.007 A 
ATOM     35  C   UNL d   1      27.461 -10.733  -1.954  0.00  0.00     0.001 A 
ATOM     36  C   UNL d   1      28.816 -10.729  -2.281  0.00  0.00     0.000 A 
ATOM     37  C   UNL d   1      29.256 -11.388  -3.422  0.00  0.00     0.001 A 
ATOM     38  C   UNL d   1      28.339 -12.037  -4.241  0.00  0.00     0.007 A 
ENDBRANCH  32  33
ENDBRANCH  31  32
ENDBRANCH  30  31
ENDBRANCH  29  30
ENDBRANCH  27  29
ENDBRANCH  26  27
ENDBRANCH  25  26
ENDBRANCH  24  25
ENDBRANCH   2  24
TORSDOF 16
ENDMDL
MODEL 9
REMARK VINA RESULT:    -7.405      2.652      4.908
REMARK INTER + INTRA:         -16.364
REMARK INTER:                 -12.178
REMARK INTRA:                  -4.186
REMARK CONF_INDEPENDENT:        4.773
REMARK UNBOUND:                -4.186
REMARK  16 active torsions:
REMARK  status: ('A' for Active; 'I' for Inactive)
REMARK    1  A    between atoms: C_2  and  C_3 
REMARK       I    between atoms: C_2  and  N_18 
REMARK    2  A    between atoms: C_3  and  C_4 
REMARK    3  A    between atoms: C_4  and  C_5 
REMARK    4  A    between atoms: C_5  and  C_6 
REMARK    5  A    between atoms: C_6  and  O_8 
REMARK    6  A    between atoms: O_8  and  C_9 
REMARK    7  A    between atoms: C_9  and  C_10 
REMARK    8  A    between atoms: C_10  and  C_11 
REMARK    9  A    between atoms: C_11  and  C_12 
REMARK   10  A    between atoms: N_18  and  C_19 
REMARK   11  A    between atoms: C_19  and  N_21 
REMARK   12  A    between atoms: N_21  and  C_22 
REMARK   13  A    between atoms: C_25  and  O_26 
REMARK   14  A    between atoms: O_26  and  C_27 
REMARK   15  A    between atoms: C_27  and  C_28 
REMARK   16  A    between atoms: C_28  and  C_29 
ROOT
ATOM      1  O   UNL d   1      28.332 -15.200  -6.738  0.00  0.00    -0.273 OA
ATOM      2  C   UNL d   1      27.805 -14.465  -5.905  0.00  0.00     0.223 C 
ATOM      3  N   UNL d   1      26.870 -14.983  -4.988  0.00  0.00    -0.304 N 
ATOM      4  H   UNL d   1      26.717 -15.969  -5.166  0.00  0.00     0.171 HD
ENDROOT
BRANCH   3   5
ATOM      5  C   UNL d   1      26.221 -14.398  -3.873  0.00  0.00     0.178 C 
ATOM      6  S   UNL d   1      25.087 -13.138  -3.973  0.00  0.00    -0.040 SA
BRANCH   5   7
ATOM      7  N   UNL d   1      26.618 -14.940  -2.632  0.00  0.00    -0.333 N 
ATOM      8  H   UNL d   1      27.329 -14.469  -2.085  0.00  0.00     0.168 HD
BRANCH   7   9
ATOM      9  C   UNL d   1      25.792 -15.876  -1.930  0.00  0.00     0.034 A 
ATOM     10  C   UNL d   1      26.310 -16.953  -1.212  0.00  0.00     0.032 A 
ATOM     11  C   UNL d   1      25.435 -17.790  -0.485  0.00  0.00     0.039 A 
ATOM     12  C   UNL d   1      24.064 -17.517  -0.410  0.00  0.00     0.068 A 
ATOM     13  C   UNL d   1      23.560 -16.441  -1.129  0.00  0.00     0.039 A 
ATOM     14  C   UNL d   1      24.407 -15.673  -1.916  0.00  0.00     0.032 A 
BRANCH  12  15
ATOM     15  O   UNL d   1      23.307 -18.352   0.377  0.00  0.00    -0.351 OA
BRANCH  15  16
ATOM     16  C   UNL d   1      22.557 -19.324  -0.360  0.00  0.00     0.180 C 
BRANCH  16  17
ATOM     17  C   UNL d   1      21.150 -18.827  -0.684  0.00  0.00     0.065 C 
BRANCH  17  18
ATOM     18  C   UNL d   1      20.086 -19.542   0.126  0.00  0.00    -0.056 A 
ATOM     19  C   UNL d   1      20.219 -19.708   1.516  0.00  0.00     0.007 A 
ATOM     20  C   UNL d   1      19.296 -20.450   2.246  0.00  0.00     0.001 A 
ATOM     21  C   UNL d   1      18.186 -20.989   1.610  0.00  0.00     0.000 A 
ATOM     22  C   UNL d   1      18.028 -20.826   0.233  0.00  0.00     0.001 A 
ATOM     23  C   UNL d   1      18.979 -20.120  -0.509  0.00  0.00     0.007 A 
ENDBRANCH  17  18
ENDBRANCH  16  17
ENDBRANCH  15  16
ENDBRANCH  12  15
ENDBRANCH   7   9
ENDBRANCH   5   7
ENDBRANCH   3   5
BRANCH   2  24
ATOM     24  C   UNL d   1      28.114 -12.981  -5.805  0.00  0.00     0.103 C 
BRANCH  24  25
ATOM     25  C   UNL d   1      29.331 -12.547  -5.032  0.00  0.00     0.019 C 
BRANCH  25  26
ATOM     26  C   UNL d   1      28.932 -11.949  -3.668  0.00  0.00     0.111 C 
BRANCH  26  27
ATOM     27  C   UNL d   1      28.919 -13.052  -2.644  0.00  0.00     0.258 C 
ATOM     28  O   UNL d   1      28.746 -12.866  -1.435  0.00  0.00    -0.265 OA
BRANCH  27  29
ATOM     29  O   UNL d   1      29.115 -14.275  -3.199  0.00  0.00    -0.321 OA
BRANCH  29  30
ATOM     30  C   UNL d   1      30.134 -15.030  -2.518  0.00  0.00     0.179 C 
BRANCH  30  31
ATOM     31  C   UNL d   1      29.513 -16.285  -1.934  0.00  0.00     0.031 C 
BRANCH  31  32
ATOM     32  C   UNL d   1      29.775 -16.410  -0.431  0.00  0.00     0.041 C 
BRANCH  32  33
ATOM     33  C   UNL d   1      29.244 -15.240   0.365  0.00  0.00    -0.058 A 
ATOM     34  C   UNL d   1      30.123 -14.399   1.058  0.00  0.00     0.007 A 
ATOM     35  C   UNL d   1      29.627 -13.414   1.916  0.00  0.00     0.001 A 
ATOM     36  C   UNL d   1      28.252 -13.210   2.030  0.00  0.00     0.000 A 
ATOM     37  C   UNL d   1      27.370 -14.018   1.323  0.00  0.00     0.001 A 
ATOM     38  C   UNL d   1      27.864 -15.036   0.515  0.00  0.00     0.007 A 
ENDBRANCH  32  33
ENDBRANCH  31  32
ENDBRANCH  30  31
ENDBRANCH  29  30
ENDBRANCH  27  29
ENDBRANCH  26  27
ENDBRANCH  25  26
ENDBRANCH  24  25
ENDBRANCH   2  24
TORSDOF 16
ENDMDL
