MODEL 1
REMARK VINA RESULT:    -9.726      0.000      0.000
REMARK INTER + INTRA:         -15.499
REMARK INTER:                 -13.902
REMARK INTRA:                  -1.597
REMARK CONF_INDEPENDENT:        4.176
REMARK UNBOUND:                -1.597
REMARK  14 active torsions:
REMARK  status: ('A' for Active; 'I' for Inactive)
REMARK    1  A    between atoms: C_2  and  C_4 
REMARK    2  A    between atoms: C_4  and  C_5 
REMARK    3  A    between atoms: C_5  and  O_6 
REMARK    4  A    between atoms: O_6  and  C_7 
REMARK    5  A    between atoms: C_11  and  C_12 
REMARK       I    between atoms: C_12  and  N_14 
REMARK    6  A    between atoms: N_14  and  C_15 
REMARK    7  A    between atoms: C_15  and  N_17 
REMARK    8  A    between atoms: C_23  and  C_24 
REMARK    9  A    between atoms: C_24  and  C_25 
REMARK   10  A    between atoms: C_25  and  O_27 
REMARK   11  A    between atoms: O_27  and  C_28 
REMARK   12  A    between atoms: C_28  and  C_29 
REMARK   13  A    between atoms: C_29  and  C_30 
REMARK   14  A    between atoms: C_30  and  C_31 
ROOT
ATOM      1  N   UNL d   1      27.519 -15.381  -0.193  0.00  0.00    -0.343 N 
ATOM      2  C   UNL d   1      28.610 -15.636  -1.145  0.00  0.00     0.146 C 
ATOM      3  C   UNL d   1      29.531 -16.649  -0.497  0.00  0.00     0.142 C 
ATOM      4  N   UNL d   1      28.818 -17.878  -0.223  0.00  0.00    -0.358 N 
ATOM      5  C   UNL d   1      27.497 -17.901   0.164  0.00  0.00     0.241 C 
ATOM      6  O   UNL d   1      26.994 -18.974   0.500  0.00  0.00    -0.271 OA
ATOM      7  C   UNL d   1      26.632 -16.601  -0.057  0.00  0.00     0.188 C 
ATOM      8  H   UNL d   1      29.338 -18.741  -0.100  0.00  0.00     0.162 HD
ENDROOT
BRANCH   1   9
ATOM      9  C   UNL d   1      27.208 -14.025   0.139  0.00  0.00     0.177 C 
ATOM     10  S   UNL d   1      26.944 -12.842  -1.064  0.00  0.00    -0.041 SA
BRANCH   9  11
ATOM     11  N   UNL d   1      27.243 -13.714   1.509  0.00  0.00    -0.299 N 
ATOM     12  C   UNL d   1      28.420 -13.620   2.291  0.00  0.00     0.257 C 
ATOM     13  O   UNL d   1      29.555 -13.496   1.834  0.00  0.00    -0.267 OA
ATOM     14  H   UNL d   1      26.360 -13.794   1.983  0.00  0.00     0.171 HD
BRANCH  12  15
ATOM     15  C   UNL d   1      28.364 -13.597   3.783  0.00  0.00     0.035 A 
ATOM     16  C   UNL d   1      28.475 -14.829   4.464  0.00  0.00     0.017 A 
ATOM     17  C   UNL d   1      28.531 -14.884   5.856  0.00  0.00     0.004 A 
ATOM     18  C   UNL d   1      28.405 -13.710   6.587  0.00  0.00     0.037 A 
ATOM     19  C   UNL d   1      28.291 -12.486   5.928  0.00  0.00     0.069 A 
ATOM     20  C   UNL d   1      28.269 -12.428   4.529  0.00  0.00     0.053 A 
BRANCH  19  21
ATOM     21  O   UNL d   1      28.318 -11.379   6.737  0.00  0.00    -0.351 OA
BRANCH  21  22
ATOM     22  C   UNL d   1      28.168 -11.663   8.124  0.00  0.00     0.176 C 
BRANCH  22  23
ATOM     23  C   UNL d   1      29.543 -11.696   8.779  0.00  0.00     0.030 C 
BRANCH  23  24
ATOM     24  C   UNL d   1      29.557 -12.599  10.020  0.00  0.00    -0.021 C 
ATOM     25  C   UNL d   1      28.190 -12.578  10.700  0.00  0.00     0.009 C 
ATOM     26  C   UNL d   1      29.929 -14.041   9.670  0.00  0.00     0.009 C 
ENDBRANCH  23  24
ENDBRANCH  22  23
ENDBRANCH  21  22
ENDBRANCH  19  21
ENDBRANCH  12  15
ENDBRANCH   9  11
ENDBRANCH   1   9
BRANCH   7  27
ATOM     27  C   UNL d   1      25.764 -16.938  -1.330  0.00  0.00     0.146 C 
BRANCH  27  28
ATOM     28  C   UNL d   1      24.631 -15.987  -1.576  0.00  0.00     0.261 C 
ATOM     29  O   UNL d   1      24.747 -14.941  -2.203  0.00  0.00    -0.265 OA
BRANCH  28  30
ATOM     30  O   UNL d   1      23.434 -16.323  -1.047  0.00  0.00    -0.321 OA
BRANCH  30  31
ATOM     31  C   UNL d   1      23.335 -17.769  -0.981  0.00  0.00     0.179 C 
BRANCH  31  32
ATOM     32  C   UNL d   1      22.135 -18.115  -0.157  0.00  0.00     0.031 C 
BRANCH  32  33
ATOM     33  C   UNL d   1      21.003 -18.785  -0.947  0.00  0.00     0.041 C 
BRANCH  33  34
ATOM     34  C   UNL d   1      20.034 -19.462   0.000  0.00  0.00    -0.058 A 
ATOM     35  C   UNL d   1      20.296 -19.544   1.371  0.00  0.00     0.007 A 
ATOM     36  C   UNL d   1      19.493 -20.353   2.183  0.00  0.00     0.001 A 
ATOM     37  C   UNL d   1      18.374 -20.999   1.656  0.00  0.00     0.000 A 
ATOM     38  C   UNL d   1      18.061 -20.859   0.315  0.00  0.00     0.001 A 
ATOM     39  C   UNL d   1      18.875 -20.084  -0.494  0.00  0.00     0.007 A 
ENDBRANCH  33  34
ENDBRANCH  32  33
ENDBRANCH  31  32
ENDBRANCH  30  31
ENDBRANCH  28  30
ENDBRANCH  27  28
ENDBRANCH   7  27
TORSDOF 14
ENDMDL
MODEL 2
REMARK VINA RESULT:    -9.487      2.104      2.995
REMARK INTER + INTRA:         -15.816
REMARK INTER:                 -13.663
REMARK INTRA:                  -2.153
REMARK CONF_INDEPENDENT:        4.176
REMARK UNBOUND:                -2.153
REMARK  14 active torsions:
REMARK  status: ('A' for Active; 'I' for Inactive)
REMARK    1  A    between atoms: C_2  and  C_4 
REMARK    2  A    between atoms: C_4  and  C_5 
REMARK    3  A    between atoms: C_5  and  O_6 
REMARK    4  A    between atoms: O_6  and  C_7 
REMARK    5  A    between atoms: C_11  and  C_12 
REMARK       I    between atoms: C_12  and  N_14 
REMARK    6  A    between atoms: N_14  and  C_15 
REMARK    7  A    between atoms: C_15  and  N_17 
REMARK    8  A    between atoms: C_23  and  C_24 
REMARK    9  A    between atoms: C_24  and  C_25 
REMARK   10  A    between atoms: C_25  and  O_27 
REMARK   11  A    between atoms: O_27  and  C_28 
REMARK   12  A    between atoms: C_28  and  C_29 
REMARK   13  A    between atoms: C_29  and  C_30 
REMARK   14  A    between atoms: C_30  and  C_31 
ROOT
ATOM      1  N   UNL d   1      26.993 -13.523  -2.350  0.00  0.00    -0.343 N 
ATOM      2  C   UNL d   1      25.900 -12.541  -2.394  0.00  0.00     0.146 C 
ATOM      3  C   UNL d   1      25.655 -12.222  -3.854  0.00  0.00     0.142 C 
ATOM      4  N   UNL d   1      25.273 -13.417  -4.576  0.00  0.00    -0.358 N 
ATOM      5  C   UNL d   1      25.797 -14.658  -4.289  0.00  0.00     0.241 C 
ATOM      6  O   UNL d   1      25.520 -15.604  -5.026  0.00  0.00    -0.271 OA
ATOM      7  C   UNL d   1      26.539 -14.855  -2.912  0.00  0.00     0.188 C 
ATOM      8  H   UNL d   1      24.772 -13.332  -5.454  0.00  0.00     0.162 HD
ENDROOT
BRANCH   1   9
ATOM      9  C   UNL d   1      28.107 -13.264  -1.490  0.00  0.00     0.177 C 
ATOM     10  S   UNL d   1      29.600 -12.699  -2.097  0.00  0.00    -0.041 SA
BRANCH   9  11
ATOM     11  N   UNL d   1      27.922 -13.607  -0.140  0.00  0.00    -0.299 N 
ATOM     12  C   UNL d   1      27.529 -12.707   0.881  0.00  0.00     0.257 C 
ATOM     13  O   UNL d   1      27.014 -11.608   0.684  0.00  0.00    -0.267 OA
ATOM     14  H   UNL d   1      28.318 -14.491   0.129  0.00  0.00     0.171 HD
BRANCH  12  15
ATOM     15  C   UNL d   1      27.656 -13.065   2.325  0.00  0.00     0.035 A 
ATOM     16  C   UNL d   1      27.828 -14.428   2.651  0.00  0.00     0.017 A 
ATOM     17  C   UNL d   1      28.052 -14.835   3.966  0.00  0.00     0.004 A 
ATOM     18  C   UNL d   1      28.038 -13.887   4.982  0.00  0.00     0.037 A 
ATOM     19  C   UNL d   1      27.865 -12.537   4.675  0.00  0.00     0.069 A 
ATOM     20  C   UNL d   1      27.674 -12.126   3.349  0.00  0.00     0.053 A 
BRANCH  19  21
ATOM     21  O   UNL d   1      28.010 -11.673   5.728  0.00  0.00    -0.351 OA
BRANCH  21  22
ATOM     22  C   UNL d   1      27.984 -12.297   7.007  0.00  0.00     0.176 C 
BRANCH  22  23
ATOM     23  C   UNL d   1      29.404 -12.679   7.405  0.00  0.00     0.030 C 
BRANCH  23  24
ATOM     24  C   UNL d   1      29.415 -13.777   8.478  0.00  0.00    -0.021 C 
ATOM     25  C   UNL d   1      30.846 -14.233   8.750  0.00  0.00     0.009 C 
ATOM     26  C   UNL d   1      28.777 -13.301   9.786  0.00  0.00     0.009 C 
ENDBRANCH  23  24
ENDBRANCH  22  23
ENDBRANCH  21  22
ENDBRANCH  19  21
ENDBRANCH  12  15
ENDBRANCH   9  11
ENDBRANCH   1   9
BRANCH   7  27
ATOM     27  C   UNL d   1      25.489 -15.627  -2.025  0.00  0.00     0.146 C 
BRANCH  27  28
ATOM     28  C   UNL d   1      26.092 -16.448  -0.924  0.00  0.00     0.261 C 
ATOM     29  O   UNL d   1      26.756 -15.974  -0.011  0.00  0.00    -0.265 OA
BRANCH  28  30
ATOM     30  O   UNL d   1      25.887 -17.781  -0.984  0.00  0.00    -0.321 OA
BRANCH  30  31
ATOM     31  C   UNL d   1      24.858 -18.146  -0.028  0.00  0.00     0.179 C 
BRANCH  31  32
ATOM     32  C   UNL d   1      23.548 -17.634  -0.538  0.00  0.00     0.031 C 
BRANCH  32  33
ATOM     33  C   UNL d   1      22.714 -18.679  -1.289  0.00  0.00     0.041 C 
BRANCH  33  34
ATOM     34  C   UNL d   1      21.429 -18.962  -0.538  0.00  0.00    -0.058 A 
ATOM     35  C   UNL d   1      21.387 -18.951   0.859  0.00  0.00     0.007 A 
ATOM     36  C   UNL d   1      20.248 -19.419   1.522  0.00  0.00     0.001 A 
ATOM     37  C   UNL d   1      19.114 -19.802   0.803  0.00  0.00     0.000 A 
ATOM     38  C   UNL d   1      19.119 -19.741  -0.580  0.00  0.00     0.001 A 
ATOM     39  C   UNL d   1      20.260 -19.308  -1.236  0.00  0.00     0.007 A 
ENDBRANCH  33  34
ENDBRANCH  32  33
ENDBRANCH  31  32
ENDBRANCH  30  31
ENDBRANCH  28  30
ENDBRANCH  27  28
ENDBRANCH   7  27
TORSDOF 14
ENDMDL
MODEL 3
REMARK VINA RESULT:    -9.368      3.112      9.226
REMARK INTER + INTRA:         -16.523
REMARK INTER:                 -13.544
REMARK INTRA:                  -2.979
REMARK CONF_INDEPENDENT:        4.176
REMARK UNBOUND:                -2.979
REMARK  14 active torsions:
REMARK  status: ('A' for Active; 'I' for Inactive)
REMARK    1  A    between atoms: C_2  and  C_4 
REMARK    2  A    between atoms: C_4  and  C_5 
REMARK    3  A    between atoms: C_5  and  O_6 
REMARK    4  A    between atoms: O_6  and  C_7 
REMARK    5  A    between atoms: C_11  and  C_12 
REMARK       I    between atoms: C_12  and  N_14 
REMARK    6  A    between atoms: N_14  and  C_15 
REMARK    7  A    between atoms: C_15  and  N_17 
REMARK    8  A    between atoms: C_23  and  C_24 
REMARK    9  A    between atoms: C_24  and  C_25 
REMARK   10  A    between atoms: C_25  and  O_27 
REMARK   11  A    between atoms: O_27  and  C_28 
REMARK   12  A    between atoms: C_28  and  C_29 
REMARK   13  A    between atoms: C_29  and  C_30 
REMARK   14  A    between atoms: C_30  and  C_31 
ROOT
ATOM      1  N   UNL d   1      28.556 -15.818  -2.712  0.00  0.00    -0.343 N 
ATOM      2  C   UNL d   1      29.771 -14.991  -2.670  0.00  0.00     0.146 C 
ATOM      3  C   UNL d   1      30.611 -15.383  -3.868  0.00  0.00     0.142 C 
ATOM      4  N   UNL d   1      29.888 -15.134  -5.096  0.00  0.00    -0.358 N 
ATOM      5  C   UNL d   1      28.527 -15.311  -5.206  0.00  0.00     0.241 C 
ATOM      6  O   UNL d   1      28.001 -15.201  -6.314  0.00  0.00    -0.271 OA
ATOM      7  C   UNL d   1      27.679 -15.421  -3.881  0.00  0.00     0.188 C 
ATOM      8  H   UNL d   1      30.401 -15.033  -5.966  0.00  0.00     0.162 HD
ENDROOT
BRANCH   1   9
ATOM      9  C   UNL d   1      28.181 -16.537  -1.534  0.00  0.00     0.177 C 
ATOM     10  S   UNL d   1      29.301 -17.486  -0.662  0.00  0.00    -0.041 SA
BRANCH   9  11
ATOM     11  N   UNL d   1      26.813 -16.496  -1.210  0.00  0.00    -0.299 N 
ATOM     12  C   UNL d   1      26.072 -17.578  -0.674  0.00  0.00     0.257 C 
ATOM     13  O   UNL d   1      26.568 -18.571  -0.146  0.00  0.00    -0.267 OA
ATOM     14  H   UNL d   1      26.309 -15.720  -1.603  0.00  0.00     0.171 HD
BRANCH  12  15
ATOM     15  C   UNL d   1      24.580 -17.561  -0.649  0.00  0.00     0.035 A 
ATOM     16  C   UNL d   1      23.933 -16.315  -0.807  0.00  0.00     0.017 A 
ATOM     17  C   UNL d   1      22.544 -16.226  -0.895  0.00  0.00     0.004 A 
ATOM     18  C   UNL d   1      21.780 -17.378  -0.755  0.00  0.00     0.037 A 
ATOM     19  C   UNL d   1      22.404 -18.615  -0.595  0.00  0.00     0.069 A 
ATOM     20  C   UNL d   1      23.801 -18.708  -0.541  0.00  0.00     0.053 A 
BRANCH  19  21
ATOM     21  O   UNL d   1      21.568 -19.701  -0.611  0.00  0.00    -0.351 OA
BRANCH  21  22
ATOM     22  C   UNL d   1      20.326 -19.474  -1.268  0.00  0.00     0.176 C 
BRANCH  22  23
ATOM     23  C   UNL d   1      19.203 -19.508  -0.240  0.00  0.00     0.030 C 
BRANCH  23  24
ATOM     24  C   UNL d   1      19.401 -20.640   0.778  0.00  0.00    -0.021 C 
ATOM     25  C   UNL d   1      19.904 -20.074   2.102  0.00  0.00     0.009 C 
ATOM     26  C   UNL d   1      18.106 -21.421   1.018  0.00  0.00     0.009 C 
ENDBRANCH  23  24
ENDBRANCH  22  23
ENDBRANCH  21  22
ENDBRANCH  19  21
ENDBRANCH  12  15
ENDBRANCH   9  11
ENDBRANCH   1   9
BRANCH   7  27
ATOM     27  C   UNL d   1      26.998 -14.005  -3.750  0.00  0.00     0.146 C 
BRANCH  27  28
ATOM     28  C   UNL d   1      25.715 -14.003  -2.975  0.00  0.00     0.261 C 
ATOM     29  O   UNL d   1      24.819 -14.820  -3.146  0.00  0.00    -0.265 OA
BRANCH  28  30
ATOM     30  O   UNL d   1      25.564 -13.023  -2.058  0.00  0.00    -0.321 OA
BRANCH  30  31
ATOM     31  C   UNL d   1      26.872 -12.625  -1.570  0.00  0.00     0.179 C 
BRANCH  31  32
ATOM     32  C   UNL d   1      27.327 -13.646  -0.577  0.00  0.00     0.031 C 
BRANCH  32  33
ATOM     33  C   UNL d   1      28.516 -13.199   0.284  0.00  0.00     0.041 C 
BRANCH  33  34
ATOM     34  C   UNL d   1      28.144 -13.241   1.752  0.00  0.00    -0.058 A 
ATOM     35  C   UNL d   1      27.776 -12.082   2.442  0.00  0.00     0.007 A 
ATOM     36  C   UNL d   1      27.645 -12.116   3.834  0.00  0.00     0.001 A 
ATOM     37  C   UNL d   1      27.780 -13.318   4.531  0.00  0.00     0.000 A 
ATOM     38  C   UNL d   1      28.066 -14.487   3.846  0.00  0.00     0.001 A 
ATOM     39  C   UNL d   1      28.228 -14.445   2.471  0.00  0.00     0.007 A 
ENDBRANCH  33  34
ENDBRANCH  32  33
ENDBRANCH  31  32
ENDBRANCH  30  31
ENDBRANCH  28  30
ENDBRANCH  27  28
ENDBRANCH   7  27
TORSDOF 14
ENDMDL
MODEL 4
REMARK VINA RESULT:    -9.282      5.328      9.971
REMARK INTER + INTRA:         -15.912
REMARK INTER:                 -13.459
REMARK INTRA:                  -2.453
REMARK CONF_INDEPENDENT:        4.176
REMARK UNBOUND:                -2.453
REMARK  14 active torsions:
REMARK  status: ('A' for Active; 'I' for Inactive)
REMARK    1  A    between atoms: C_2  and  C_4 
REMARK    2  A    between atoms: C_4  and  C_5 
REMARK    3  A    between atoms: C_5  and  O_6 
REMARK    4  A    between atoms: O_6  and  C_7 
REMARK    5  A    between atoms: C_11  and  C_12 
REMARK       I    between atoms: C_12  and  N_14 
REMARK    6  A    between atoms: N_14  and  C_15 
REMARK    7  A    between atoms: C_15  and  N_17 
REMARK    8  A    between atoms: C_23  and  C_24 
REMARK    9  A    between atoms: C_24  and  C_25 
REMARK   10  A    between atoms: C_25  and  O_27 
REMARK   11  A    between atoms: O_27  and  C_28 
REMARK   12  A    between atoms: C_28  and  C_29 
REMARK   13  A    between atoms: C_29  and  C_30 
REMARK   14  A    between atoms: C_30  and  C_31 
ROOT
ATOM      1  N   UNL d   1      26.984 -12.403  -3.058  0.00  0.00    -0.343 N 
ATOM      2  C   UNL d   1      25.683 -11.725  -3.155  0.00  0.00     0.146 C 
ATOM      3  C   UNL d   1      25.970 -10.249  -3.340  0.00  0.00     0.142 C 
ATOM      4  N   UNL d   1      26.732 -10.030  -4.550  0.00  0.00    -0.358 N 
ATOM      5  C   UNL d   1      27.692 -10.911  -4.994  0.00  0.00     0.241 C 
ATOM      6  O   UNL d   1      28.386 -10.596  -5.962  0.00  0.00    -0.271 OA
ATOM      7  C   UNL d   1      27.707 -12.367  -4.388  0.00  0.00     0.188 C 
ATOM      8  H   UNL d   1      26.728  -9.112  -4.984  0.00  0.00     0.162 HD
ENDROOT
BRANCH   1   9
ATOM      9  C   UNL d   1      27.209 -13.289  -1.957  0.00  0.00     0.177 C 
ATOM     10  S   UNL d   1      28.602 -13.170  -0.976  0.00  0.00    -0.041 SA
BRANCH   9  11
ATOM     11  N   UNL d   1      26.267 -14.322  -1.809  0.00  0.00    -0.299 N 
ATOM     12  C   UNL d   1      25.901 -14.917  -0.576  0.00  0.00     0.257 C 
ATOM     13  O   UNL d   1      26.116 -14.424   0.529  0.00  0.00    -0.267 OA
ATOM     14  H   UNL d   1      26.028 -14.800  -2.660  0.00  0.00     0.171 HD
BRANCH  12  15
ATOM     15  C   UNL d   1      25.141 -16.201  -0.528  0.00  0.00     0.035 A 
ATOM     16  C   UNL d   1      25.861 -17.380  -0.233  0.00  0.00     0.017 A 
ATOM     17  C   UNL d   1      25.211 -18.604  -0.072  0.00  0.00     0.004 A 
ATOM     18  C   UNL d   1      23.838 -18.675  -0.273  0.00  0.00     0.037 A 
ATOM     19  C   UNL d   1      23.115 -17.519  -0.569  0.00  0.00     0.069 A 
ATOM     20  C   UNL d   1      23.764 -16.284  -0.697  0.00  0.00     0.053 A 
BRANCH  19  21
ATOM     21  O   UNL d   1      21.753 -17.672  -0.606  0.00  0.00    -0.351 OA
BRANCH  21  22
ATOM     22  C   UNL d   1      21.314 -18.851  -1.272  0.00  0.00     0.176 C 
BRANCH  22  23
ATOM     23  C   UNL d   1      19.895 -19.179  -0.823  0.00  0.00     0.030 C 
BRANCH  23  24
ATOM     24  C   UNL d   1      19.889 -20.082   0.418  0.00  0.00    -0.021 C 
ATOM     25  C   UNL d   1      20.497 -19.344   1.608  0.00  0.00     0.009 C 
ATOM     26  C   UNL d   1      18.475 -20.547   0.776  0.00  0.00     0.009 C 
ENDBRANCH  23  24
ENDBRANCH  22  23
ENDBRANCH  21  22
ENDBRANCH  19  21
ENDBRANCH  12  15
ENDBRANCH   9  11
ENDBRANCH   1   9
BRANCH   7  27
ATOM     27  C   UNL d   1      27.059 -13.253  -5.521  0.00  0.00     0.146 C 
BRANCH  27  28
ATOM     28  C   UNL d   1      26.327 -14.461  -5.020  0.00  0.00     0.261 C 
ATOM     29  O   UNL d   1      25.151 -14.448  -4.677  0.00  0.00    -0.265 OA
BRANCH  28  30
ATOM     30  O   UNL d   1      27.037 -15.607  -4.936  0.00  0.00    -0.321 OA
BRANCH  30  31
ATOM     31  C   UNL d   1      28.446 -15.283  -4.808  0.00  0.00     0.179 C 
BRANCH  31  32
ATOM     32  C   UNL d   1      29.130 -15.675  -6.079  0.00  0.00     0.031 C 
BRANCH  32  33
ATOM     33  C   UNL d   1      30.624 -15.988  -5.918  0.00  0.00     0.041 C 
BRANCH  33  34
ATOM     34  C   UNL d   1      30.917 -17.399  -6.382  0.00  0.00    -0.058 A 
ATOM     35  C   UNL d   1      31.170 -17.683  -7.728  0.00  0.00     0.007 A 
ATOM     36  C   UNL d   1      31.228 -19.013  -8.157  0.00  0.00     0.001 A 
ATOM     37  C   UNL d   1      31.134 -20.060  -7.239  0.00  0.00     0.000 A 
ATOM     38  C   UNL d   1      30.962 -19.787  -5.892  0.00  0.00     0.001 A 
ATOM     39  C   UNL d   1      30.873 -18.470  -5.474  0.00  0.00     0.007 A 
ENDBRANCH  33  34
ENDBRANCH  32  33
ENDBRANCH  31  32
ENDBRANCH  30  31
ENDBRANCH  28  30
ENDBRANCH  27  28
ENDBRANCH   7  27
TORSDOF 14
ENDMDL
MODEL 5
REMARK VINA RESULT:    -8.335      3.376      5.141
REMARK INTER + INTRA:         -15.510
REMARK INTER:                 -12.511
REMARK INTRA:                  -2.998
REMARK CONF_INDEPENDENT:        4.176
REMARK UNBOUND:                -2.998
REMARK  14 active torsions:
REMARK  status: ('A' for Active; 'I' for Inactive)
REMARK    1  A    between atoms: C_2  and  C_4 
REMARK    2  A    between atoms: C_4  and  C_5 
REMARK    3  A    between atoms: C_5  and  O_6 
REMARK    4  A    between atoms: O_6  and  C_7 
REMARK    5  A    between atoms: C_11  and  C_12 
REMARK       I    between atoms: C_12  and  N_14 
REMARK    6  A    between atoms: N_14  and  C_15 
REMARK    7  A    between atoms: C_15  and  N_17 
REMARK    8  A    between atoms: C_23  and  C_24 
REMARK    9  A    between atoms: C_24  and  C_25 
REMARK   10  A    between atoms: C_25  and  O_27 
REMARK   11  A    between atoms: O_27  and  C_28 
REMARK   12  A    between atoms: C_28  and  C_29 
REMARK   13  A    between atoms: C_29  and  C_30 
REMARK   14  A    between atoms: C_30  and  C_31 
ROOT
ATOM      1  N   UNL d   1      27.473 -12.662  -5.175  0.00  0.00    -0.343 N 
ATOM      2  C   UNL d   1      27.054 -12.195  -6.505  0.00  0.00     0.146 C 
ATOM      3  C   UNL d   1      28.264 -12.299  -7.409  0.00  0.00     0.142 C 
ATOM      4  N   UNL d   1      28.720 -13.670  -7.489  0.00  0.00    -0.358 N 
ATOM      5  C   UNL d   1      28.666 -14.534  -6.419  0.00  0.00     0.241 C 
ATOM      6  O   UNL d   1      29.187 -15.645  -6.526  0.00  0.00    -0.271 OA
ATOM      7  C   UNL d   1      27.750 -14.151  -5.194  0.00  0.00     0.188 C 
ATOM      8  H   UNL d   1      29.291 -13.962  -8.275  0.00  0.00     0.162 HD
ENDROOT
BRANCH   1   9
ATOM      9  C   UNL d   1      27.195 -11.832  -4.043  0.00  0.00     0.177 C 
ATOM     10  S   UNL d   1      27.148 -10.129  -4.165  0.00  0.00    -0.041 SA
BRANCH   9  11
ATOM     11  N   UNL d   1      27.074 -12.504  -2.815  0.00  0.00    -0.299 N 
ATOM     12  C   UNL d   1      27.924 -12.316  -1.698  0.00  0.00     0.257 C 
ATOM     13  O   UNL d   1      28.669 -11.351  -1.542  0.00  0.00    -0.267 OA
ATOM     14  H   UNL d   1      26.489 -13.321  -2.837  0.00  0.00     0.171 HD
BRANCH  12  15
ATOM     15  C   UNL d   1      27.931 -13.275  -0.554  0.00  0.00     0.035 A 
ATOM     16  C   UNL d   1      28.587 -14.513  -0.739  0.00  0.00     0.017 A 
ATOM     17  C   UNL d   1      28.724 -15.422   0.310  0.00  0.00     0.004 A 
ATOM     18  C   UNL d   1      28.143 -15.134   1.539  0.00  0.00     0.037 A 
ATOM     19  C   UNL d   1      27.488 -13.918   1.734  0.00  0.00     0.069 A 
ATOM     20  C   UNL d   1      27.381 -12.990   0.690  0.00  0.00     0.053 A 
BRANCH  19  21
ATOM     21  O   UNL d   1      27.078 -13.672   3.018  0.00  0.00    -0.351 OA
BRANCH  21  22
ATOM     22  C   UNL d   1      28.035 -14.014   4.015  0.00  0.00     0.176 C 
BRANCH  22  23
ATOM     23  C   UNL d   1      27.413 -13.824   5.392  0.00  0.00     0.030 C 
BRANCH  23  24
ATOM     24  C   UNL d   1      28.470 -13.465   6.446  0.00  0.00    -0.021 C 
ATOM     25  C   UNL d   1      29.850 -13.922   5.983  0.00  0.00     0.009 C 
ATOM     26  C   UNL d   1      28.502 -11.962   6.731  0.00  0.00     0.009 C 
ENDBRANCH  23  24
ENDBRANCH  22  23
ENDBRANCH  21  22
ENDBRANCH  19  21
ENDBRANCH  12  15
ENDBRANCH   9  11
ENDBRANCH   1   9
BRANCH   7  27
ATOM     27  C   UNL d   1      26.476 -15.062  -5.376  0.00  0.00     0.146 C 
BRANCH  27  28
ATOM     28  C   UNL d   1      25.530 -15.043  -4.213  0.00  0.00     0.261 C 
ATOM     29  O   UNL d   1      24.791 -14.101  -3.955  0.00  0.00    -0.265 OA
BRANCH  28  30
ATOM     30  O   UNL d   1      25.532 -16.133  -3.415  0.00  0.00    -0.321 OA
BRANCH  30  31
ATOM     31  C   UNL d   1      26.105 -15.778  -2.129  0.00  0.00     0.179 C 
BRANCH  31  32
ATOM     32  C   UNL d   1      26.513 -17.040  -1.438  0.00  0.00     0.031 C 
BRANCH  32  33
ATOM     33  C   UNL d   1      25.852 -17.249  -0.069  0.00  0.00     0.041 C 
BRANCH  33  34
ATOM     34  C   UNL d   1      24.391 -17.607  -0.243  0.00  0.00    -0.058 A 
ATOM     35  C   UNL d   1      23.955 -18.933  -0.169  0.00  0.00     0.007 A 
ATOM     36  C   UNL d   1      22.644 -19.253  -0.540  0.00  0.00     0.001 A 
ATOM     37  C   UNL d   1      21.738 -18.249  -0.887  0.00  0.00     0.000 A 
ATOM     38  C   UNL d   1      22.140 -16.924  -0.885  0.00  0.00     0.001 A 
ATOM     39  C   UNL d   1      23.447 -16.612  -0.549  0.00  0.00     0.007 A 
ENDBRANCH  33  34
ENDBRANCH  32  33
ENDBRANCH  31  32
ENDBRANCH  30  31
ENDBRANCH  28  30
ENDBRANCH  27  28
ENDBRANCH   7  27
TORSDOF 14
ENDMDL
MODEL 6
REMARK VINA RESULT:    -8.241      2.623      4.296
REMARK INTER + INTRA:         -15.848
REMARK INTER:                 -12.417
REMARK INTRA:                  -3.431
REMARK CONF_INDEPENDENT:        4.176
REMARK UNBOUND:                -3.431
REMARK  14 active torsions:
REMARK  status: ('A' for Active; 'I' for Inactive)
REMARK    1  A    between atoms: C_2  and  C_4 
REMARK    2  A    between atoms: C_4  and  C_5 
REMARK    3  A    between atoms: C_5  and  O_6 
REMARK    4  A    between atoms: O_6  and  C_7 
REMARK    5  A    between atoms: C_11  and  C_12 
REMARK       I    between atoms: C_12  and  N_14 
REMARK    6  A    between atoms: N_14  and  C_15 
REMARK    7  A    between atoms: C_15  and  N_17 
REMARK    8  A    between atoms: C_23  and  C_24 
REMARK    9  A    between atoms: C_24  and  C_25 
REMARK   10  A    between atoms: C_25  and  O_27 
REMARK   11  A    between atoms: O_27  and  C_28 
REMARK   12  A    between atoms: C_28  and  C_29 
REMARK   13  A    between atoms: C_29  and  C_30 
REMARK   14  A    between atoms: C_30  and  C_31 
ROOT
ATOM      1  N   UNL d   1      26.753 -13.599  -2.493  0.00  0.00    -0.343 N 
ATOM      2  C   UNL d   1      25.325 -13.948  -2.468  0.00  0.00     0.146 C 
ATOM      3  C   UNL d   1      24.781 -13.671  -3.854  0.00  0.00     0.142 C 
ATOM      4  N   UNL d   1      25.468 -14.479  -4.838  0.00  0.00    -0.358 N 
ATOM      5  C   UNL d   1      26.808 -14.783  -4.745  0.00  0.00     0.241 C 
ATOM      6  O   UNL d   1      27.351 -15.368  -5.683  0.00  0.00    -0.271 OA
ATOM      7  C   UNL d   1      27.527 -14.572  -3.358  0.00  0.00     0.188 C 
ATOM      8  H   UNL d   1      25.027 -14.658  -5.734  0.00  0.00     0.162 HD
ENDROOT
BRANCH   1   9
ATOM      9  C   UNL d   1      27.260 -12.730  -1.475  0.00  0.00     0.177 C 
ATOM     10  S   UNL d   1      27.249 -11.032  -1.654  0.00  0.00    -0.041 SA
BRANCH   9  11
ATOM     11  N   UNL d   1      27.860 -13.370  -0.377  0.00  0.00    -0.299 N 
ATOM     12  C   UNL d   1      27.349 -13.367   0.944  0.00  0.00     0.257 C 
ATOM     13  O   UNL d   1      26.193 -13.078   1.246  0.00  0.00    -0.267 OA
ATOM     14  H   UNL d   1      28.818 -13.641  -0.518  0.00  0.00     0.171 HD
BRANCH  12  15
ATOM     15  C   UNL d   1      28.187 -13.794   2.103  0.00  0.00     0.035 A 
ATOM     16  C   UNL d   1      29.590 -13.788   1.937  0.00  0.00     0.017 A 
ATOM     17  C   UNL d   1      30.446 -14.077   3.000  0.00  0.00     0.004 A 
ATOM     18  C   UNL d   1      29.906 -14.444   4.226  0.00  0.00     0.037 A 
ATOM     19  C   UNL d   1      28.522 -14.458   4.404  0.00  0.00     0.069 A 
ATOM     20  C   UNL d   1      27.664 -14.134   3.345  0.00  0.00     0.053 A 
BRANCH  19  21
ATOM     21  O   UNL d   1      28.097 -14.692   5.685  0.00  0.00    -0.351 OA
BRANCH  21  22
ATOM     22  C   UNL d   1      28.906 -14.089   6.690  0.00  0.00     0.176 C 
BRANCH  22  23
ATOM     23  C   UNL d   1      28.271 -12.772   7.119  0.00  0.00     0.030 C 
BRANCH  23  24
ATOM     24  C   UNL d   1      28.528 -12.478   8.604  0.00  0.00    -0.021 C 
ATOM     25  C   UNL d   1      29.086 -13.718   9.297  0.00  0.00     0.009 C 
ATOM     26  C   UNL d   1      29.499 -11.310   8.792  0.00  0.00     0.009 C 
ENDBRANCH  23  24
ENDBRANCH  22  23
ENDBRANCH  21  22
ENDBRANCH  19  21
ENDBRANCH  12  15
ENDBRANCH   9  11
ENDBRANCH   1   9
BRANCH   7  27
ATOM     27  C   UNL d   1      27.649 -16.031  -2.771  0.00  0.00     0.146 C 
BRANCH  27  28
ATOM     28  C   UNL d   1      28.922 -16.294  -2.024  0.00  0.00     0.261 C 
ATOM     29  O   UNL d   1      29.848 -16.956  -2.476  0.00  0.00    -0.265 OA
BRANCH  28  30
ATOM     30  O   UNL d   1      29.013 -15.773  -0.782  0.00  0.00    -0.321 OA
BRANCH  30  31
ATOM     31  C   UNL d   1      28.567 -16.764   0.181  0.00  0.00     0.179 C 
BRANCH  31  32
ATOM     32  C   UNL d   1      27.073 -16.714   0.239  0.00  0.00     0.031 C 
BRANCH  32  33
ATOM     33  C   UNL d   1      26.388 -18.063  -0.016  0.00  0.00     0.041 C 
BRANCH  33  34
ATOM     34  C   UNL d   1      24.899 -17.867  -0.211  0.00  0.00    -0.058 A 
ATOM     35  C   UNL d   1      24.011 -18.944  -0.148  0.00  0.00     0.007 A 
ATOM     36  C   UNL d   1      22.678 -18.767  -0.538  0.00  0.00     0.001 A 
ATOM     37  C   UNL d   1      22.204 -17.504  -0.893  0.00  0.00     0.000 A 
ATOM     38  C   UNL d   1      23.059 -16.415  -0.881  0.00  0.00     0.001 A 
ATOM     39  C   UNL d   1      24.386 -16.598  -0.526  0.00  0.00     0.007 A 
ENDBRANCH  33  34
ENDBRANCH  32  33
ENDBRANCH  31  32
ENDBRANCH  30  31
ENDBRANCH  28  30
ENDBRANCH  27  28
ENDBRANCH   7  27
TORSDOF 14
ENDMDL
MODEL 7
REMARK VINA RESULT:    -8.044      5.004      9.316
REMARK INTER + INTRA:         -16.182
REMARK INTER:                 -12.220
REMARK INTRA:                  -3.962
REMARK CONF_INDEPENDENT:        4.176
REMARK UNBOUND:                -3.962
REMARK  14 active torsions:
REMARK  status: ('A' for Active; 'I' for Inactive)
REMARK    1  A    between atoms: C_2  and  C_4 
REMARK    2  A    between atoms: C_4  and  C_5 
REMARK    3  A    between atoms: C_5  and  O_6 
REMARK    4  A    between atoms: O_6  and  C_7 
REMARK    5  A    between atoms: C_11  and  C_12 
REMARK       I    between atoms: C_12  and  N_14 
REMARK    6  A    between atoms: N_14  and  C_15 
REMARK    7  A    between atoms: C_15  and  N_17 
REMARK    8  A    between atoms: C_23  and  C_24 
REMARK    9  A    between atoms: C_24  and  C_25 
REMARK   10  A    between atoms: C_25  and  O_27 
REMARK   11  A    between atoms: O_27  and  C_28 
REMARK   12  A    between atoms: C_28  and  C_29 
REMARK   13  A    between atoms: C_29  and  C_30 
REMARK   14  A    between atoms: C_30  and  C_31 
ROOT
ATOM      1  N   UNL d   1      26.805 -11.858  -2.976  0.00  0.00    -0.343 N 
ATOM      2  C   UNL d   1      25.863 -10.762  -3.247  0.00  0.00     0.146 C 
ATOM      3  C   UNL d   1      26.654  -9.660  -3.921  0.00  0.00     0.142 C 
ATOM      4  N   UNL d   1      27.228 -10.134  -5.161  0.00  0.00    -0.358 N 
ATOM      5  C   UNL d   1      27.693 -11.421  -5.321  0.00  0.00     0.241 C 
ATOM      6  O   UNL d   1      28.281 -11.715  -6.362  0.00  0.00    -0.271 OA
ATOM      7  C   UNL d   1      27.254 -12.509  -4.268  0.00  0.00     0.188 C 
ATOM      8  H   UNL d   1      27.500  -9.466  -5.875  0.00  0.00     0.162 HD
ENDROOT
BRANCH   1   9
ATOM      9  C   UNL d   1      26.858 -12.399  -1.653  0.00  0.00     0.177 C 
ATOM     10  S   UNL d   1      27.809 -11.687  -0.427  0.00  0.00    -0.041 SA
BRANCH   9  11
ATOM     11  N   UNL d   1      26.165 -13.607  -1.465  0.00  0.00    -0.299 N 
ATOM     12  C   UNL d   1      26.360 -14.495  -0.378  0.00  0.00     0.257 C 
ATOM     13  O   UNL d   1      26.918 -14.198   0.676  0.00  0.00    -0.267 OA
ATOM     14  H   UNL d   1      25.679 -13.946  -2.277  0.00  0.00     0.171 HD
BRANCH  12  15
ATOM     15  C   UNL d   1      25.825 -15.889  -0.407  0.00  0.00     0.035 A 
ATOM     16  C   UNL d   1      26.579 -16.895   0.238  0.00  0.00     0.017 A 
ATOM     17  C   UNL d   1      26.101 -18.202   0.342  0.00  0.00     0.004 A 
ATOM     18  C   UNL d   1      24.894 -18.533  -0.259  0.00  0.00     0.037 A 
ATOM     19  C   UNL d   1      24.141 -17.550  -0.903  0.00  0.00     0.069 A 
ATOM     20  C   UNL d   1      24.605 -16.231  -0.977  0.00  0.00     0.053 A 
BRANCH  19  21
ATOM     21  O   UNL d   1      22.903 -17.949  -1.335  0.00  0.00    -0.351 OA
BRANCH  21  22
ATOM     22  C   UNL d   1      22.471 -19.198  -0.806  0.00  0.00     0.176 C 
BRANCH  22  23
ATOM     23  C   UNL d   1      21.409 -18.950   0.257  0.00  0.00     0.030 C 
BRANCH  23  24
ATOM     24  C   UNL d   1      20.221 -19.911   0.106  0.00  0.00    -0.021 C 
ATOM     25  C   UNL d   1      19.549 -20.134   1.458  0.00  0.00     0.009 C 
ATOM     26  C   UNL d   1      19.189 -19.385  -0.895  0.00  0.00     0.009 C 
ENDBRANCH  23  24
ENDBRANCH  22  23
ENDBRANCH  21  22
ENDBRANCH  19  21
ENDBRANCH  12  15
ENDBRANCH   9  11
ENDBRANCH   1   9
BRANCH   7  27
ATOM     27  C   UNL d   1      26.139 -13.333  -5.020  0.00  0.00     0.146 C 
BRANCH  27  28
ATOM     28  C   UNL d   1      26.123 -14.796  -4.692  0.00  0.00     0.261 C 
ATOM     29  O   UNL d   1      25.381 -15.295  -3.855  0.00  0.00    -0.265 OA
BRANCH  28  30
ATOM     30  O   UNL d   1      27.000 -15.575  -5.361  0.00  0.00    -0.321 OA
BRANCH  30  31
ATOM     31  C   UNL d   1      27.880 -14.730  -6.148  0.00  0.00     0.179 C 
BRANCH  31  32
ATOM     32  C   UNL d   1      29.235 -15.363  -6.168  0.00  0.00     0.031 C 
BRANCH  32  33
ATOM     33  C   UNL d   1      29.471 -16.380  -5.044  0.00  0.00     0.041 C 
BRANCH  33  34
ATOM     34  C   UNL d   1      29.471 -15.684  -3.699  0.00  0.00    -0.058 A 
ATOM     35  C   UNL d   1      29.935 -14.373  -3.561  0.00  0.00     0.007 A 
ATOM     36  C   UNL d   1      30.119 -13.834  -2.282  0.00  0.00     0.001 A 
ATOM     37  C   UNL d   1      29.750 -14.557  -1.147  0.00  0.00     0.000 A 
ATOM     38  C   UNL d   1      29.215 -15.828  -1.279  0.00  0.00     0.001 A 
ATOM     39  C   UNL d   1      29.063 -16.372  -2.544  0.00  0.00     0.007 A 
ENDBRANCH  33  34
ENDBRANCH  32  33
ENDBRANCH  31  32
ENDBRANCH  30  31
ENDBRANCH  28  30
ENDBRANCH  27  28
ENDBRANCH   7  27
TORSDOF 14
ENDMDL
MODEL 8
REMARK VINA RESULT:    -7.988      3.770      9.243
REMARK INTER + INTRA:         -15.502
REMARK INTER:                 -12.164
REMARK INTRA:                  -3.338
REMARK CONF_INDEPENDENT:        4.176
REMARK UNBOUND:                -3.338
REMARK  14 active torsions:
REMARK  status: ('A' for Active; 'I' for Inactive)
REMARK    1  A    between atoms: C_2  and  C_4 
REMARK    2  A    between atoms: C_4  and  C_5 
REMARK    3  A    between atoms: C_5  and  O_6 
REMARK    4  A    between atoms: O_6  and  C_7 
REMARK    5  A    between atoms: C_11  and  C_12 
REMARK       I    between atoms: C_12  and  N_14 
REMARK    6  A    between atoms: N_14  and  C_15 
REMARK    7  A    between atoms: C_15  and  N_17 
REMARK    8  A    between atoms: C_23  and  C_24 
REMARK    9  A    between atoms: C_24  and  C_25 
REMARK   10  A    between atoms: C_25  and  O_27 
REMARK   11  A    between atoms: O_27  and  C_28 
REMARK   12  A    between atoms: C_28  and  C_29 
REMARK   13  A    between atoms: C_29  and  C_30 
REMARK   14  A    between atoms: C_30  and  C_31 
ROOT
ATOM      1  N   UNL d   1      28.529 -14.288  -5.052  0.00  0.00    -0.343 N 
ATOM      2  C   UNL d   1      27.862 -14.498  -6.345  0.00  0.00     0.146 C 
ATOM      3  C   UNL d   1      28.593 -13.644  -7.361  0.00  0.00     0.142 C 
ATOM      4  N   UNL d   1      29.981 -14.043  -7.451  0.00  0.00    -0.358 N 
ATOM      5  C   UNL d   1      30.705 -14.468  -6.360  0.00  0.00     0.241 C 
ATOM      6  O   UNL d   1      31.913 -14.671  -6.491  0.00  0.00    -0.271 OA
ATOM      7  C   UNL d   1      29.918 -14.892  -5.061  0.00  0.00     0.188 C 
ATOM      8  H   UNL d   1      30.515 -13.810  -8.283  0.00  0.00     0.162 HD
ENDROOT
BRANCH   1   9
ATOM      9  C   UNL d   1      27.725 -13.945  -3.919  0.00  0.00     0.177 C 
ATOM     10  S   UNL d   1      27.472 -12.323  -3.452  0.00  0.00    -0.041 SA
BRANCH   9  11
ATOM     11  N   UNL d   1      27.254 -15.032  -3.162  0.00  0.00    -0.299 N 
ATOM     12  C   UNL d   1      25.888 -15.333  -2.937  0.00  0.00     0.257 C 
ATOM     13  O   UNL d   1      24.955 -14.887  -3.602  0.00  0.00    -0.267 OA
ATOM     14  H   UNL d   1      27.942 -15.465  -2.571  0.00  0.00     0.171 HD
BRANCH  12  15
ATOM     15  C   UNL d   1      25.469 -16.302  -1.881  0.00  0.00     0.035 A 
ATOM     16  C   UNL d   1      26.484 -16.929  -1.125  0.00  0.00     0.017 A 
ATOM     17  C   UNL d   1      26.175 -17.770  -0.055  0.00  0.00     0.004 A 
ATOM     18  C   UNL d   1      24.843 -18.048   0.226  0.00  0.00     0.037 A 
ATOM     19  C   UNL d   1      23.830 -17.439  -0.515  0.00  0.00     0.069 A 
ATOM     20  C   UNL d   1      24.141 -16.568  -1.567  0.00  0.00     0.053 A 
BRANCH  19  21
ATOM     21  O   UNL d   1      22.556 -17.668  -0.066  0.00  0.00    -0.351 OA
BRANCH  21  22
ATOM     22  C   UNL d   1      22.097 -19.001  -0.258  0.00  0.00     0.176 C 
BRANCH  22  23
ATOM     23  C   UNL d   1      20.978 -19.293   0.734  0.00  0.00     0.030 C 
BRANCH  23  24
ATOM     24  C   UNL d   1      19.905 -20.206   0.125  0.00  0.00    -0.021 C 
ATOM     25  C   UNL d   1      19.006 -20.767   1.223  0.00  0.00     0.009 C 
ATOM     26  C   UNL d   1      19.048 -19.467  -0.906  0.00  0.00     0.009 C 
ENDBRANCH  23  24
ENDBRANCH  22  23
ENDBRANCH  21  22
ENDBRANCH  19  21
ENDBRANCH  12  15
ENDBRANCH   9  11
ENDBRANCH   1   9
BRANCH   7  27
ATOM     27  C   UNL d   1      29.956 -16.469  -5.096  0.00  0.00     0.146 C 
BRANCH  27  28
ATOM     28  C   UNL d   1      30.152 -17.113  -3.756  0.00  0.00     0.261 C 
ATOM     29  O   UNL d   1      30.914 -18.051  -3.560  0.00  0.00    -0.265 OA
BRANCH  28  30
ATOM     30  O   UNL d   1      29.419 -16.619  -2.735  0.00  0.00    -0.321 OA
BRANCH  30  31
ATOM     31  C   UNL d   1      30.290 -16.383  -1.598  0.00  0.00     0.179 C 
BRANCH  31  32
ATOM     32  C   UNL d   1      29.444 -15.919  -0.454  0.00  0.00     0.031 C 
BRANCH  32  33
ATOM     33  C   UNL d   1      28.818 -14.533  -0.657  0.00  0.00     0.041 C 
BRANCH  33  34
ATOM     34  C   UNL d   1      28.121 -14.082   0.610  0.00  0.00    -0.058 A 
ATOM     35  C   UNL d   1      27.379 -12.898   0.649  0.00  0.00     0.007 A 
ATOM     36  C   UNL d   1      26.927 -12.403   1.877  0.00  0.00     0.001 A 
ATOM     37  C   UNL d   1      27.124 -13.131   3.052  0.00  0.00     0.000 A 
ATOM     38  C   UNL d   1      27.790 -14.344   3.012  0.00  0.00     0.001 A 
ATOM     39  C   UNL d   1      28.265 -14.817   1.799  0.00  0.00     0.007 A 
ENDBRANCH  33  34
ENDBRANCH  32  33
ENDBRANCH  31  32
ENDBRANCH  30  31
ENDBRANCH  28  30
ENDBRANCH  27  28
ENDBRANCH   7  27
TORSDOF 14
ENDMDL
MODEL 9
REMARK VINA RESULT:    -7.107      3.576      8.035
REMARK INTER + INTRA:         -15.571
REMARK INTER:                 -11.283
REMARK INTRA:                  -4.288
REMARK CONF_INDEPENDENT:        4.176
REMARK UNBOUND:                -4.288
REMARK  14 active torsions:
REMARK  status: ('A' for Active; 'I' for Inactive)
REMARK    1  A    between atoms: C_2  and  C_4 
REMARK    2  A    between atoms: C_4  and  C_5 
REMARK    3  A    between atoms: C_5  and  O_6 
REMARK    4  A    between atoms: O_6  and  C_7 
REMARK    5  A    between atoms: C_11  and  C_12 
REMARK       I    between atoms: C_12  and  N_14 
REMARK    6  A    between atoms: N_14  and  C_15 
REMARK    7  A    between atoms: C_15  and  N_17 
REMARK    8  A    between atoms: C_23  and  C_24 
REMARK    9  A    between atoms: C_24  and  C_25 
REMARK   10  A    between atoms: C_25  and  O_27 
REMARK   11  A    between atoms: O_27  and  C_28 
REMARK   12  A    between atoms: C_28  and  C_29 
REMARK   13  A    between atoms: C_29  and  C_30 
REMARK   14  A    between atoms: C_30  and  C_31 
ROOT
ATOM      1  N   UNL d   1      28.638 -12.528   2.260  0.00  0.00    -0.343 N 
ATOM      2  C   UNL d   1      30.002 -12.832   1.804  0.00  0.00     0.146 C 
ATOM      3  C   UNL d   1      30.895 -12.777   3.026  0.00  0.00     0.142 C 
ATOM      4  N   UNL d   1      30.474 -13.753   4.006  0.00  0.00    -0.358 N 
ATOM      5  C   UNL d   1      29.151 -14.072   4.217  0.00  0.00     0.241 C 
ATOM      6  O   UNL d   1      28.861 -14.818   5.153  0.00  0.00    -0.271 OA
ATOM      7  C   UNL d   1      28.098 -13.651   3.121  0.00  0.00     0.188 C 
ATOM      8  H   UNL d   1      31.130 -14.068   4.713  0.00  0.00     0.162 HD
ENDROOT
BRANCH   1   9
ATOM      9  C   UNL d   1      27.900 -11.515   1.570  0.00  0.00     0.177 C 
ATOM     10  S   UNL d   1      27.708  -9.945   2.213  0.00  0.00    -0.041 SA
BRANCH   9  11
ATOM     11  N   UNL d   1      27.259 -11.931   0.390  0.00  0.00    -0.299 N 
ATOM     12  C   UNL d   1      27.814 -11.843  -0.911  0.00  0.00     0.257 C 
ATOM     13  O   UNL d   1      29.009 -11.685  -1.151  0.00  0.00    -0.267 OA
ATOM     14  H   UNL d   1      26.269 -12.080   0.477  0.00  0.00     0.171 HD
BRANCH  12  15
ATOM     15  C   UNL d   1      26.969 -12.009  -2.130  0.00  0.00     0.035 A 
ATOM     16  C   UNL d   1      26.896 -10.924  -3.032  0.00  0.00     0.017 A 
ATOM     17  C   UNL d   1      26.210 -11.033  -4.241  0.00  0.00     0.004 A 
ATOM     18  C   UNL d   1      25.529 -12.208  -4.532  0.00  0.00     0.037 A 
ATOM     19  C   UNL d   1      25.589 -13.287  -3.649  0.00  0.00     0.069 A 
ATOM     20  C   UNL d   1      26.307 -13.188  -2.450  0.00  0.00     0.053 A 
BRANCH  19  21
ATOM     21  O   UNL d   1      25.004 -14.443  -4.095  0.00  0.00    -0.351 OA
BRANCH  21  22
ATOM     22  C   UNL d   1      25.909 -15.528  -4.269  0.00  0.00     0.176 C 
BRANCH  22  23
ATOM     23  C   UNL d   1      26.873 -15.198  -5.402  0.00  0.00     0.030 C 
BRANCH  23  24
ATOM     24  C   UNL d   1      28.323 -15.110  -4.903  0.00  0.00    -0.021 C 
ATOM     25  C   UNL d   1      28.823 -13.671  -4.995  0.00  0.00     0.009 C 
ATOM     26  C   UNL d   1      28.459 -15.605  -3.461  0.00  0.00     0.009 C 
ENDBRANCH  23  24
ENDBRANCH  22  23
ENDBRANCH  21  22
ENDBRANCH  19  21
ENDBRANCH  12  15
ENDBRANCH   9  11
ENDBRANCH   1   9
BRANCH   7  27
ATOM     27  C   UNL d   1      27.798 -14.994   2.351  0.00  0.00     0.146 C 
BRANCH  27  28
ATOM     28  C   UNL d   1      27.381 -14.809   0.923  0.00  0.00     0.261 C 
ATOM     29  O   UNL d   1      26.272 -14.414   0.586  0.00  0.00    -0.265 OA
BRANCH  28  30
ATOM     30  O   UNL d   1      28.296 -15.123  -0.020  0.00  0.00    -0.321 OA
BRANCH  30  31
ATOM     31  C   UNL d   1      28.790 -16.465   0.227  0.00  0.00     0.179 C 
BRANCH  31  32
ATOM     32  C   UNL d   1      28.021 -17.409  -0.642  0.00  0.00     0.031 C 
BRANCH  32  33
ATOM     33  C   UNL d   1      26.933 -18.200   0.097  0.00  0.00     0.041 C 
BRANCH  33  34
ATOM     34  C   UNL d   1      25.560 -17.740  -0.344  0.00  0.00    -0.058 A 
ATOM     35  C   UNL d   1      25.405 -16.719  -1.287  0.00  0.00     0.007 A 
ATOM     36  C   UNL d   1      24.136 -16.174  -1.516  0.00  0.00     0.001 A 
ATOM     37  C   UNL d   1      23.010 -16.706  -0.886  0.00  0.00     0.000 A 
ATOM     38  C   UNL d   1      23.145 -17.770  -0.010  0.00  0.00     0.001 A 
ATOM     39  C   UNL d   1      24.406 -18.287   0.240  0.00  0.00     0.007 A 
ENDBRANCH  33  34
ENDBRANCH  32  33
ENDBRANCH  31  32
ENDBRANCH  30  31
ENDBRANCH  28  30
ENDBRANCH  27  28
ENDBRANCH   7  27
TORSDOF 14
ENDMDL
