MODEL 1
REMARK VINA RESULT:    -7.643      0.000      0.000
REMARK INTER + INTRA:         -10.973
REMARK INTER:                  -9.432
REMARK INTRA:                  -1.541
REMARK CONF_INDEPENDENT:        1.790
REMARK UNBOUND:                -1.541
REMARK  6 active torsions:
REMARK  status: ('A' for Active; 'I' for Inactive)
REMARK    1  A    between atoms: C_2  and  O_3 
REMARK    2  A    between atoms: C_2  and  C_10 
REMARK    3  A    between atoms: O_3  and  C_4 
REMARK       I    between atoms: C_10  and  N_12 
REMARK    4  A    between atoms: N_12  and  N_13 
REMARK       I    between atoms: N_13  and  C_14 
REMARK    5  A    between atoms: C_14  and  C_16 
REMARK    6  A    between atoms: C_20  and  N_21 
ROOT
ATOM      1  C   UNL d   1      24.431 -17.055  -1.244  0.00  0.00     0.265 C 
ATOM      2  O   UNL d   1      25.388 -17.839  -1.210  0.00  0.00    -0.269 OA
ATOM      3  N   UNL d   1      24.474 -15.956  -2.084  0.00  0.00    -0.265 N 
ATOM      4  H   UNL d   1      23.748 -15.245  -2.135  0.00  0.00     0.190 HD
ENDROOT
BRANCH   3   5
ATOM      5  N   UNL d   1      25.649 -15.744  -2.865  0.00  0.00    -0.263 N 
ATOM      6  C   UNL d   1      25.652 -14.776  -3.855  0.00  0.00     0.270 C 
ATOM      7  O   UNL d   1      24.659 -14.092  -4.117  0.00  0.00    -0.266 OA
ATOM      8  H   UNL d   1      26.482 -16.256  -2.569  0.00  0.00     0.190 HD
BRANCH   6   9
ATOM      9  C   UNL d   1      26.912 -14.582  -4.642  0.00  0.00     0.035 A 
ATOM     10  C   UNL d   1      27.046 -13.485  -5.492  0.00  0.00     0.017 A 
ATOM     11  C   UNL d   1      28.149 -13.400  -6.337  0.00  0.00     0.003 A 
ATOM     12  C   UNL d   1      29.141 -14.386  -6.302  0.00  0.00     0.029 A 
ATOM     13  C   UNL d   1      29.051 -15.519  -5.474  0.00  0.00     0.030 A 
ATOM     14  C   UNL d   1      27.907 -15.574  -4.645  0.00  0.00     0.046 A 
BRANCH  13  15
ATOM     15  N   UNL d   1      30.009 -16.524  -5.486  0.00  0.00    -0.390 N 
ATOM     16  C   UNL d   1      30.617 -17.074  -4.270  0.00  0.00     0.149 C 
ATOM     17  C   UNL d   1      30.577 -17.057  -6.725  0.00  0.00     0.149 C 
ENDBRANCH  13  15
ENDBRANCH   6   9
ENDBRANCH   3   5
BRANCH   1  18
ATOM     18  C   UNL d   1      23.114 -17.290  -0.419  0.00  0.00     0.218 C 
ATOM     19  C   UNL d   1      22.154 -16.176  -0.859  0.00  0.00     0.050 C 
BRANCH  18  20
ATOM     20  O   UNL d   1      22.641 -18.641  -0.598  0.00  0.00    -0.337 OA
BRANCH  20  21
ATOM     21  C   UNL d   1      21.340 -18.989  -0.318  0.00  0.00     0.070 A 
ATOM     22  C   UNL d   1      21.031 -19.305   1.010  0.00  0.00     0.037 A 
ATOM     23  C   UNL d   1      19.784 -19.868   1.346  0.00  0.00     0.003 A 
ATOM     24  C   UNL d   1      18.795 -20.032   0.378  0.00  0.00     0.000 A 
ATOM     25  C   UNL d   1      19.078 -19.699  -0.933  0.00  0.00     0.003 A 
ATOM     26  C   UNL d   1      20.352 -19.241  -1.270  0.00  0.00     0.037 A 
ENDBRANCH  20  21
ENDBRANCH  18  20
ENDBRANCH   1  18
TORSDOF 6
ENDMDL
MODEL 2
REMARK VINA RESULT:    -7.554      2.793      3.998
REMARK INTER + INTRA:         -10.821
REMARK INTER:                  -9.344
REMARK INTRA:                  -1.478
REMARK CONF_INDEPENDENT:        1.790
REMARK UNBOUND:                -1.478
REMARK  6 active torsions:
REMARK  status: ('A' for Active; 'I' for Inactive)
REMARK    1  A    between atoms: C_2  and  O_3 
REMARK    2  A    between atoms: C_2  and  C_10 
REMARK    3  A    between atoms: O_3  and  C_4 
REMARK       I    between atoms: C_10  and  N_12 
REMARK    4  A    between atoms: N_12  and  N_13 
REMARK       I    between atoms: N_13  and  C_14 
REMARK    5  A    between atoms: C_14  and  C_16 
REMARK    6  A    between atoms: C_20  and  N_21 
ROOT
ATOM      1  C   UNL d   1      23.400 -16.870  -1.127  0.00  0.00     0.265 C 
ATOM      2  O   UNL d   1      23.226 -16.011  -0.254  0.00  0.00    -0.269 OA
ATOM      3  N   UNL d   1      24.336 -16.654  -2.124  0.00  0.00    -0.265 N 
ATOM      4  H   UNL d   1      24.504 -17.291  -2.900  0.00  0.00     0.190 HD
ENDROOT
BRANCH   3   5
ATOM      5  N   UNL d   1      25.051 -15.419  -2.130  0.00  0.00    -0.263 N 
ATOM      6  C   UNL d   1      25.602 -14.948  -3.310  0.00  0.00     0.270 C 
ATOM      7  O   UNL d   1      25.526 -15.570  -4.372  0.00  0.00    -0.266 OA
ATOM      8  H   UNL d   1      25.021 -14.881  -1.262  0.00  0.00     0.190 HD
BRANCH   6   9
ATOM      9  C   UNL d   1      26.335 -13.642  -3.267  0.00  0.00     0.035 A 
ATOM     10  C   UNL d   1      27.479 -13.505  -2.481  0.00  0.00     0.017 A 
ATOM     11  C   UNL d   1      28.057 -12.249  -2.322  0.00  0.00     0.003 A 
ATOM     12  C   UNL d   1      27.524 -11.138  -2.984  0.00  0.00     0.029 A 
ATOM     13  C   UNL d   1      26.367 -11.217  -3.780  0.00  0.00     0.030 A 
ATOM     14  C   UNL d   1      25.802 -12.507  -3.900  0.00  0.00     0.046 A 
BRANCH  13  15
ATOM     15  N   UNL d   1      25.809 -10.101  -4.387  0.00  0.00    -0.390 N 
ATOM     16  C   UNL d   1      25.280  -8.955  -3.641  0.00  0.00     0.149 C 
ATOM     17  C   UNL d   1      25.604 -10.011  -5.834  0.00  0.00     0.149 C 
ENDBRANCH  13  15
ENDBRANCH   6   9
ENDBRANCH   3   5
BRANCH   1  18
ATOM     18  C   UNL d   1      22.650 -18.250  -1.119  0.00  0.00     0.218 C 
ATOM     19  C   UNL d   1      23.444 -19.140  -0.153  0.00  0.00     0.050 C 
BRANCH  18  20
ATOM     20  O   UNL d   1      21.255 -18.064  -0.807  0.00  0.00    -0.337 OA
BRANCH  20  21
ATOM     21  C   UNL d   1      20.534 -19.027  -0.140  0.00  0.00     0.070 A 
ATOM     22  C   UNL d   1      19.466 -19.619  -0.824  0.00  0.00     0.037 A 
ATOM     23  C   UNL d   1      18.555 -20.457  -0.151  0.00  0.00     0.003 A 
ATOM     24  C   UNL d   1      18.752 -20.792   1.188  0.00  0.00     0.000 A 
ATOM     25  C   UNL d   1      19.817 -20.234   1.868  0.00  0.00     0.003 A 
ATOM     26  C   UNL d   1      20.652 -19.324   1.219  0.00  0.00     0.037 A 
ENDBRANCH  20  21
ENDBRANCH  18  20
ENDBRANCH   1  18
TORSDOF 6
ENDMDL
MODEL 3
REMARK VINA RESULT:    -7.310      1.244      2.405
REMARK INTER + INTRA:         -10.740
REMARK INTER:                  -9.100
REMARK INTRA:                  -1.640
REMARK CONF_INDEPENDENT:        1.790
REMARK UNBOUND:                -1.640
REMARK  6 active torsions:
REMARK  status: ('A' for Active; 'I' for Inactive)
REMARK    1  A    between atoms: C_2  and  O_3 
REMARK    2  A    between atoms: C_2  and  C_10 
REMARK    3  A    between atoms: O_3  and  C_4 
REMARK       I    between atoms: C_10  and  N_12 
REMARK    4  A    between atoms: N_12  and  N_13 
REMARK       I    between atoms: N_13  and  C_14 
REMARK    5  A    between atoms: C_14  and  C_16 
REMARK    6  A    between atoms: C_20  and  N_21 
ROOT
ATOM      1  C   UNL d   1      24.632 -17.286  -0.973  0.00  0.00     0.265 C 
ATOM      2  O   UNL d   1      25.681 -17.872  -0.678  0.00  0.00    -0.269 OA
ATOM      3  N   UNL d   1      24.620 -16.391  -2.028  0.00  0.00    -0.265 N 
ATOM      4  H   UNL d   1      23.810 -15.839  -2.303  0.00  0.00     0.190 HD
ENDROOT
BRANCH   3   5
ATOM      5  N   UNL d   1      25.841 -16.147  -2.726  0.00  0.00    -0.263 N 
ATOM      6  C   UNL d   1      25.849 -15.305  -3.826  0.00  0.00     0.270 C 
ATOM      7  O   UNL d   1      24.825 -14.767  -4.257  0.00  0.00    -0.266 OA
ATOM      8  H   UNL d   1      26.685 -16.529  -2.298  0.00  0.00     0.190 HD
BRANCH   6   9
ATOM      9  C   UNL d   1      27.155 -15.072  -4.520  0.00  0.00     0.035 A 
ATOM     10  C   UNL d   1      28.311 -15.710  -4.070  0.00  0.00     0.017 A 
ATOM     11  C   UNL d   1      29.545 -15.364  -4.616  0.00  0.00     0.003 A 
ATOM     12  C   UNL d   1      29.620 -14.416  -5.643  0.00  0.00     0.029 A 
ATOM     13  C   UNL d   1      28.489 -13.734  -6.126  0.00  0.00     0.030 A 
ATOM     14  C   UNL d   1      27.260 -14.103  -5.532  0.00  0.00     0.046 A 
BRANCH  13  15
ATOM     15  N   UNL d   1      28.577 -12.753  -7.104  0.00  0.00    -0.390 N 
ATOM     16  C   UNL d   1      27.491 -11.816  -7.407  0.00  0.00     0.149 C 
ATOM     17  C   UNL d   1      29.732 -12.629  -7.994  0.00  0.00     0.149 C 
ENDBRANCH  13  15
ENDBRANCH   6   9
ENDBRANCH   3   5
BRANCH   1  18
ATOM     18  C   UNL d   1      23.270 -17.567  -0.241  0.00  0.00     0.218 C 
ATOM     19  C   UNL d   1      22.396 -16.336  -0.520  0.00  0.00     0.050 C 
BRANCH  18  20
ATOM     20  O   UNL d   1      22.728 -18.837  -0.656  0.00  0.00    -0.337 OA
BRANCH  20  21
ATOM     21  C   UNL d   1      21.475 -19.245  -0.262  0.00  0.00     0.070 A 
ATOM     22  C   UNL d   1      20.507 -19.405  -1.261  0.00  0.00     0.037 A 
ATOM     23  C   UNL d   1      19.155 -19.617  -0.927  0.00  0.00     0.003 A 
ATOM     24  C   UNL d   1      18.766 -19.769   0.403  0.00  0.00     0.000 A 
ATOM     25  C   UNL d   1      19.716 -19.639   1.397  0.00  0.00     0.003 A 
ATOM     26  C   UNL d   1      21.033 -19.325   1.059  0.00  0.00     0.037 A 
ENDBRANCH  20  21
ENDBRANCH  18  20
ENDBRANCH   1  18
TORSDOF 6
ENDMDL
MODEL 4
REMARK VINA RESULT:    -7.058      4.184      5.557
REMARK INTER + INTRA:         -10.400
REMARK INTER:                  -8.848
REMARK INTRA:                  -1.552
REMARK CONF_INDEPENDENT:        1.790
REMARK UNBOUND:                -1.552
REMARK  6 active torsions:
REMARK  status: ('A' for Active; 'I' for Inactive)
REMARK    1  A    between atoms: C_2  and  O_3 
REMARK    2  A    between atoms: C_2  and  C_10 
REMARK    3  A    between atoms: O_3  and  C_4 
REMARK       I    between atoms: C_10  and  N_12 
REMARK    4  A    between atoms: N_12  and  N_13 
REMARK       I    between atoms: N_13  and  C_14 
REMARK    5  A    between atoms: C_14  and  C_16 
REMARK    6  A    between atoms: C_20  and  N_21 
ROOT
ATOM      1  C   UNL d   1      23.384 -17.129  -0.819  0.00  0.00     0.265 C 
ATOM      2  O   UNL d   1      22.879 -16.012  -0.651  0.00  0.00    -0.269 OA
ATOM      3  N   UNL d   1      24.730 -17.318  -0.563  0.00  0.00    -0.265 N 
ATOM      4  H   UNL d   1      25.227 -18.193  -0.719  0.00  0.00     0.190 HD
ENDROOT
BRANCH   3   5
ATOM      5  N   UNL d   1      25.506 -16.197  -0.141  0.00  0.00    -0.263 N 
ATOM      6  C   UNL d   1      26.829 -16.375   0.230  0.00  0.00     0.270 C 
ATOM      7  O   UNL d   1      27.372 -17.483   0.238  0.00  0.00    -0.266 OA
ATOM      8  H   UNL d   1      25.063 -15.282  -0.244  0.00  0.00     0.190 HD
BRANCH   6   9
ATOM      9  C   UNL d   1      27.605 -15.167   0.655  0.00  0.00     0.035 A 
ATOM     10  C   UNL d   1      28.281 -14.399  -0.293  0.00  0.00     0.017 A 
ATOM     11  C   UNL d   1      29.129 -13.377   0.128  0.00  0.00     0.003 A 
ATOM     12  C   UNL d   1      29.266 -13.091   1.491  0.00  0.00     0.029 A 
ATOM     13  C   UNL d   1      28.617 -13.840   2.489  0.00  0.00     0.030 A 
ATOM     14  C   UNL d   1      27.780 -14.878   2.019  0.00  0.00     0.046 A 
BRANCH  13  15
ATOM     15  N   UNL d   1      28.802 -13.589   3.842  0.00  0.00    -0.390 N 
ATOM     16  C   UNL d   1      28.174 -12.469   4.548  0.00  0.00     0.149 C 
ATOM     17  C   UNL d   1      29.727 -14.367   4.668  0.00  0.00     0.149 C 
ENDBRANCH  13  15
ENDBRANCH   6   9
ENDBRANCH   3   5
BRANCH   1  18
ATOM     18  C   UNL d   1      22.541 -18.384  -1.248  0.00  0.00     0.218 C 
ATOM     19  C   UNL d   1      23.202 -19.578  -0.545  0.00  0.00     0.050 C 
BRANCH  18  20
ATOM     20  O   UNL d   1      21.143 -18.174  -0.961  0.00  0.00    -0.337 OA
BRANCH  20  21
ATOM     21  C   UNL d   1      20.415 -19.089  -0.237  0.00  0.00     0.070 A 
ATOM     22  C   UNL d   1      19.321 -19.688  -0.873  0.00  0.00     0.037 A 
ATOM     23  C   UNL d   1      18.405 -20.473  -0.145  0.00  0.00     0.003 A 
ATOM     24  C   UNL d   1      18.621 -20.750   1.204  0.00  0.00     0.000 A 
ATOM     25  C   UNL d   1      19.710 -20.185   1.837  0.00  0.00     0.003 A 
ATOM     26  C   UNL d   1      20.553 -19.325   1.132  0.00  0.00     0.037 A 
ENDBRANCH  20  21
ENDBRANCH  18  20
ENDBRANCH   1  18
TORSDOF 6
ENDMDL
MODEL 5
REMARK VINA RESULT:    -6.794      4.463      6.512
REMARK INTER + INTRA:         -10.279
REMARK INTER:                  -8.584
REMARK INTRA:                  -1.695
REMARK CONF_INDEPENDENT:        1.790
REMARK UNBOUND:                -1.695
REMARK  6 active torsions:
REMARK  status: ('A' for Active; 'I' for Inactive)
REMARK    1  A    between atoms: C_2  and  O_3 
REMARK    2  A    between atoms: C_2  and  C_10 
REMARK    3  A    between atoms: O_3  and  C_4 
REMARK       I    between atoms: C_10  and  N_12 
REMARK    4  A    between atoms: N_12  and  N_13 
REMARK       I    between atoms: N_13  and  C_14 
REMARK    5  A    between atoms: C_14  and  C_16 
REMARK    6  A    between atoms: C_20  and  N_21 
ROOT
ATOM      1  C   UNL d   1      25.376 -14.486  -3.468  0.00  0.00     0.265 C 
ATOM      2  O   UNL d   1      24.812 -14.714  -4.545  0.00  0.00    -0.269 OA
ATOM      3  N   UNL d   1      25.675 -13.182  -3.112  0.00  0.00    -0.265 N 
ATOM      4  H   UNL d   1      26.176 -12.918  -2.267  0.00  0.00     0.190 HD
ENDROOT
BRANCH   3   5
ATOM      5  N   UNL d   1      25.348 -12.136  -4.028  0.00  0.00    -0.263 N 
ATOM      6  C   UNL d   1      25.919 -10.884  -3.874  0.00  0.00     0.270 C 
ATOM      7  O   UNL d   1      26.692 -10.616  -2.950  0.00  0.00    -0.266 OA
ATOM      8  H   UNL d   1      24.781 -12.407  -4.832  0.00  0.00     0.190 HD
BRANCH   6   9
ATOM      9  C   UNL d   1      25.553  -9.822  -4.864  0.00  0.00     0.035 A 
ATOM     10  C   UNL d   1      26.156  -9.799  -6.122  0.00  0.00     0.017 A 
ATOM     11  C   UNL d   1      25.931  -8.720  -6.973  0.00  0.00     0.003 A 
ATOM     12  C   UNL d   1      25.070  -7.686  -6.588  0.00  0.00     0.029 A 
ATOM     13  C   UNL d   1      24.446  -7.653  -5.328  0.00  0.00     0.030 A 
ATOM     14  C   UNL d   1      24.714  -8.759  -4.490  0.00  0.00     0.046 A 
BRANCH  13  15
ATOM     15  N   UNL d   1      23.638  -6.596  -4.930  0.00  0.00    -0.390 N 
ATOM     16  C   UNL d   1      22.252  -6.427  -5.376  0.00  0.00     0.149 C 
ATOM     17  C   UNL d   1      24.133  -5.495  -4.102  0.00  0.00     0.149 C 
ENDBRANCH  13  15
ENDBRANCH   6   9
ENDBRANCH   3   5
BRANCH   1  18
ATOM     18  C   UNL d   1      25.712 -15.618  -2.431  0.00  0.00     0.218 C 
ATOM     19  C   UNL d   1      27.220 -15.494  -2.167  0.00  0.00     0.050 C 
BRANCH  18  20
ATOM     20  O   UNL d   1      24.856 -15.514  -1.276  0.00  0.00    -0.337 OA
BRANCH  20  21
ATOM     21  C   UNL d   1      24.108 -16.583  -0.839  0.00  0.00     0.070 A 
ATOM     22  C   UNL d   1      24.796 -17.752  -0.497  0.00  0.00     0.037 A 
ATOM     23  C   UNL d   1      24.100 -18.950  -0.240  0.00  0.00     0.003 A 
ATOM     24  C   UNL d   1      22.707 -18.973  -0.226  0.00  0.00     0.000 A 
ATOM     25  C   UNL d   1      22.015 -17.819  -0.538  0.00  0.00     0.003 A 
ATOM     26  C   UNL d   1      22.716 -16.666  -0.893  0.00  0.00     0.037 A 
ENDBRANCH  20  21
ENDBRANCH  18  20
ENDBRANCH   1  18
TORSDOF 6
ENDMDL
MODEL 6
REMARK VINA RESULT:    -6.783      8.016     10.143
REMARK INTER + INTRA:         -10.350
REMARK INTER:                  -8.573
REMARK INTRA:                  -1.777
REMARK CONF_INDEPENDENT:        1.790
REMARK UNBOUND:                -1.777
REMARK  6 active torsions:
REMARK  status: ('A' for Active; 'I' for Inactive)
REMARK    1  A    between atoms: C_2  and  O_3 
REMARK    2  A    between atoms: C_2  and  C_10 
REMARK    3  A    between atoms: O_3  and  C_4 
REMARK       I    between atoms: C_10  and  N_12 
REMARK    4  A    between atoms: N_12  and  N_13 
REMARK       I    between atoms: N_13  and  C_14 
REMARK    5  A    between atoms: C_14  and  C_16 
REMARK    6  A    between atoms: C_20  and  N_21 
ROOT
ATOM      1  C   UNL d   1      27.463 -14.423   1.675  0.00  0.00     0.265 C 
ATOM      2  O   UNL d   1      26.697 -13.455   1.758  0.00  0.00    -0.269 OA
ATOM      3  N   UNL d   1      28.190 -14.818   2.784  0.00  0.00    -0.265 N 
ATOM      4  H   UNL d   1      28.872 -15.574   2.783  0.00  0.00     0.190 HD
ENDROOT
BRANCH   3   5
ATOM      5  N   UNL d   1      28.055 -14.065   3.989  0.00  0.00    -0.263 N 
ATOM      6  C   UNL d   1      28.900 -14.319   5.058  0.00  0.00     0.270 C 
ATOM      7  O   UNL d   1      29.763 -15.200   5.026  0.00  0.00    -0.266 OA
ATOM      8  H   UNL d   1      27.398 -13.284   3.958  0.00  0.00     0.190 HD
BRANCH   6   9
ATOM      9  C   UNL d   1      28.726 -13.496   6.297  0.00  0.00     0.035 A 
ATOM     10  C   UNL d   1      28.528 -12.119   6.202  0.00  0.00     0.017 A 
ATOM     11  C   UNL d   1      28.530 -11.343   7.359  0.00  0.00     0.003 A 
ATOM     12  C   UNL d   1      28.682 -11.945   8.612  0.00  0.00     0.029 A 
ATOM     13  C   UNL d   1      28.897 -13.327   8.765  0.00  0.00     0.030 A 
ATOM     14  C   UNL d   1      28.905 -14.075   7.565  0.00  0.00     0.046 A 
BRANCH  13  15
ATOM     15  N   UNL d   1      29.106 -13.911  10.006  0.00  0.00    -0.390 N 
ATOM     16  C   UNL d   1      30.125 -14.936  10.255  0.00  0.00     0.149 C 
ATOM     17  C   UNL d   1      28.256 -13.628  11.164  0.00  0.00     0.149 C 
ENDBRANCH  13  15
ENDBRANCH   6   9
ENDBRANCH   3   5
BRANCH   1  18
ATOM     18  C   UNL d   1      27.599 -15.286   0.369  0.00  0.00     0.218 C 
ATOM     19  C   UNL d   1      29.073 -15.170  -0.044  0.00  0.00     0.050 C 
BRANCH  18  20
ATOM     20  O   UNL d   1      27.108 -16.623   0.595  0.00  0.00    -0.337 OA
BRANCH  20  21
ATOM     21  C   UNL d   1      25.923 -17.054   0.046  0.00  0.00     0.070 A 
ATOM     22  C   UNL d   1      25.264 -16.183  -0.829  0.00  0.00     0.037 A 
ATOM     23  C   UNL d   1      23.955 -16.457  -1.270  0.00  0.00     0.003 A 
ATOM     24  C   UNL d   1      23.323 -17.650  -0.922  0.00  0.00     0.000 A 
ATOM     25  C   UNL d   1      23.972 -18.531  -0.079  0.00  0.00     0.003 A 
ATOM     26  C   UNL d   1      25.226 -18.200   0.435  0.00  0.00     0.037 A 
ENDBRANCH  20  21
ENDBRANCH  18  20
ENDBRANCH   1  18
TORSDOF 6
ENDMDL
MODEL 7
REMARK VINA RESULT:    -6.275      4.007      9.197
REMARK INTER + INTRA:         -10.127
REMARK INTER:                  -8.065
REMARK INTRA:                  -2.063
REMARK CONF_INDEPENDENT:        1.790
REMARK UNBOUND:                -2.063
REMARK  6 active torsions:
REMARK  status: ('A' for Active; 'I' for Inactive)
REMARK    1  A    between atoms: C_2  and  O_3 
REMARK    2  A    between atoms: C_2  and  C_10 
REMARK    3  A    between atoms: O_3  and  C_4 
REMARK       I    between atoms: C_10  and  N_12 
REMARK    4  A    between atoms: N_12  and  N_13 
REMARK       I    between atoms: N_13  and  C_14 
REMARK    5  A    between atoms: C_14  and  C_16 
REMARK    6  A    between atoms: C_20  and  N_21 
ROOT
ATOM      1  C   UNL d   1      26.840 -11.468  -5.352  0.00  0.00     0.265 C 
ATOM      2  O   UNL d   1      27.985 -11.789  -5.012  0.00  0.00    -0.269 OA
ATOM      3  N   UNL d   1      25.750 -12.078  -4.756  0.00  0.00    -0.265 N 
ATOM      4  H   UNL d   1      24.782 -11.900  -5.012  0.00  0.00     0.190 HD
ENDROOT
BRANCH   3   5
ATOM      5  N   UNL d   1      25.989 -13.093  -3.781  0.00  0.00    -0.263 N 
ATOM      6  C   UNL d   1      25.027 -14.061  -3.545  0.00  0.00     0.270 C 
ATOM      7  O   UNL d   1      23.940 -14.072  -4.129  0.00  0.00    -0.266 OA
ATOM      8  H   UNL d   1      26.928 -13.116  -3.379  0.00  0.00     0.190 HD
BRANCH   6   9
ATOM      9  C   UNL d   1      25.327 -15.111  -2.520  0.00  0.00     0.035 A 
ATOM     10  C   UNL d   1      26.647 -15.383  -2.161  0.00  0.00     0.017 A 
ATOM     11  C   UNL d   1      26.925 -16.467  -1.332  0.00  0.00     0.003 A 
ATOM     12  C   UNL d   1      25.883 -17.251  -0.823  0.00  0.00     0.029 A 
ATOM     13  C   UNL d   1      24.537 -17.029  -1.162  0.00  0.00     0.030 A 
ATOM     14  C   UNL d   1      24.301 -15.929  -2.019  0.00  0.00     0.046 A 
BRANCH  13  15
ATOM     15  N   UNL d   1      23.513 -17.845  -0.701  0.00  0.00    -0.390 N 
ATOM     16  C   UNL d   1      23.661 -19.290  -0.501  0.00  0.00     0.149 C 
ATOM     17  C   UNL d   1      22.155 -17.351  -0.467  0.00  0.00     0.149 C 
ENDBRANCH  13  15
ENDBRANCH   6   9
ENDBRANCH   3   5
BRANCH   1  18
ATOM     18  C   UNL d   1      26.555 -10.328  -6.396  0.00  0.00     0.218 C 
ATOM     19  C   UNL d   1      27.039 -10.881  -7.744  0.00  0.00     0.050 C 
BRANCH  18  20
ATOM     20  O   UNL d   1      25.172  -9.924  -6.336  0.00  0.00    -0.337 OA
BRANCH  20  21
ATOM     21  C   UNL d   1      24.780  -8.810  -5.632  0.00  0.00     0.070 A 
ATOM     22  C   UNL d   1      23.656  -8.118  -6.097  0.00  0.00     0.037 A 
ATOM     23  C   UNL d   1      23.311  -6.861  -5.564  0.00  0.00     0.003 A 
ATOM     24  C   UNL d   1      24.026  -6.322  -4.496  0.00  0.00     0.000 A 
ATOM     25  C   UNL d   1      25.122  -7.007  -4.010  0.00  0.00     0.003 A 
ATOM     26  C   UNL d   1      25.516  -8.201  -4.615  0.00  0.00     0.037 A 
ENDBRANCH  20  21
ENDBRANCH  18  20
ENDBRANCH   1  18
TORSDOF 6
ENDMDL
MODEL 8
REMARK VINA RESULT:    -6.259      2.217      3.660
REMARK INTER + INTRA:         -10.137
REMARK INTER:                  -8.049
REMARK INTRA:                  -2.088
REMARK CONF_INDEPENDENT:        1.790
REMARK UNBOUND:                -2.088
REMARK  6 active torsions:
REMARK  status: ('A' for Active; 'I' for Inactive)
REMARK    1  A    between atoms: C_2  and  O_3 
REMARK    2  A    between atoms: C_2  and  C_10 
REMARK    3  A    between atoms: O_3  and  C_4 
REMARK       I    between atoms: C_10  and  N_12 
REMARK    4  A    between atoms: N_12  and  N_13 
REMARK       I    between atoms: N_13  and  C_14 
REMARK    5  A    between atoms: C_14  and  C_16 
REMARK    6  A    between atoms: C_20  and  N_21 
ROOT
ATOM      1  C   UNL d   1      25.689 -17.162  -1.459  0.00  0.00     0.265 C 
ATOM      2  O   UNL d   1      26.920 -17.274  -1.409  0.00  0.00    -0.269 OA
ATOM      3  N   UNL d   1      25.120 -16.219  -2.297  0.00  0.00    -0.265 N 
ATOM      4  H   UNL d   1      24.121 -16.036  -2.361  0.00  0.00     0.190 HD
ENDROOT
BRANCH   3   5
ATOM      5  N   UNL d   1      25.986 -15.374  -3.056  0.00  0.00    -0.263 N 
ATOM      6  C   UNL d   1      25.455 -14.327  -3.791  0.00  0.00     0.270 C 
ATOM      7  O   UNL d   1      24.243 -14.100  -3.842  0.00  0.00    -0.266 OA
ATOM      8  H   UNL d   1      26.987 -15.526  -2.924  0.00  0.00     0.190 HD
BRANCH   6   9
ATOM      9  C   UNL d   1      26.403 -13.463  -4.563  0.00  0.00     0.035 A 
ATOM     10  C   UNL d   1      27.768 -13.751  -4.569  0.00  0.00     0.017 A 
ATOM     11  C   UNL d   1      28.658 -12.853  -5.154  0.00  0.00     0.003 A 
ATOM     12  C   UNL d   1      28.182 -11.692  -5.774  0.00  0.00     0.029 A 
ATOM     13  C   UNL d   1      26.819 -11.347  -5.787  0.00  0.00     0.030 A 
ATOM     14  C   UNL d   1      25.953 -12.277  -5.167  0.00  0.00     0.046 A 
BRANCH  13  15
ATOM     15  N   UNL d   1      26.360 -10.165  -6.352  0.00  0.00    -0.390 N 
ATOM     16  C   UNL d   1      25.819  -9.052  -5.567  0.00  0.00     0.149 C 
ATOM     17  C   UNL d   1      26.280  -9.963  -7.799  0.00  0.00     0.149 C 
ENDBRANCH  13  15
ENDBRANCH   6   9
ENDBRANCH   3   5
BRANCH   1  18
ATOM     18  C   UNL d   1      24.719 -18.105  -0.659  0.00  0.00     0.218 C 
ATOM     19  C   UNL d   1      25.319 -18.204   0.751  0.00  0.00     0.050 C 
BRANCH  18  20
ATOM     20  O   UNL d   1      23.364 -17.618  -0.739  0.00  0.00    -0.337 OA
BRANCH  20  21
ATOM     21  C   UNL d   1      22.294 -18.418  -0.411  0.00  0.00     0.070 A 
ATOM     22  C   UNL d   1      21.542 -18.949  -1.465  0.00  0.00     0.037 A 
ATOM     23  C   UNL d   1      20.318 -19.602  -1.219  0.00  0.00     0.003 A 
ATOM     24  C   UNL d   1      19.877 -19.818   0.085  0.00  0.00     0.000 A 
ATOM     25  C   UNL d   1      20.623 -19.321   1.136  0.00  0.00     0.003 A 
ATOM     26  C   UNL d   1      21.780 -18.585   0.876  0.00  0.00     0.037 A 
ENDBRANCH  20  21
ENDBRANCH  18  20
ENDBRANCH   1  18
TORSDOF 6
ENDMDL
MODEL 9
REMARK VINA RESULT:    -6.132      3.376      9.129
REMARK INTER + INTRA:         -10.097
REMARK INTER:                  -7.921
REMARK INTRA:                  -2.176
REMARK CONF_INDEPENDENT:        1.790
REMARK UNBOUND:                -2.176
REMARK  6 active torsions:
REMARK  status: ('A' for Active; 'I' for Inactive)
REMARK    1  A    between atoms: C_2  and  O_3 
REMARK    2  A    between atoms: C_2  and  C_10 
REMARK    3  A    between atoms: O_3  and  C_4 
REMARK       I    between atoms: C_10  and  N_12 
REMARK    4  A    between atoms: N_12  and  N_13 
REMARK       I    between atoms: N_13  and  C_14 
REMARK    5  A    between atoms: C_14  and  C_16 
REMARK    6  A    between atoms: C_20  and  N_21 
ROOT
ATOM      1  C   UNL d   1      25.892 -10.603  -3.945  0.00  0.00     0.265 C 
ATOM      2  O   UNL d   1      26.498 -10.354  -2.896  0.00  0.00    -0.269 OA
ATOM      3  N   UNL d   1      25.327 -11.852  -4.131  0.00  0.00    -0.265 N 
ATOM      4  H   UNL d   1      24.854 -12.147  -4.982  0.00  0.00     0.190 HD
ENDROOT
BRANCH   3   5
ATOM      5  N   UNL d   1      25.496 -12.833  -3.107  0.00  0.00    -0.263 N 
ATOM      6  C   UNL d   1      25.243 -14.167  -3.384  0.00  0.00     0.270 C 
ATOM      7  O   UNL d   1      24.847 -14.552  -4.487  0.00  0.00    -0.266 OA
ATOM      8  H   UNL d   1      25.909 -12.502  -2.234  0.00  0.00     0.190 HD
BRANCH   6   9
ATOM      9  C   UNL d   1      25.443 -15.160  -2.280  0.00  0.00     0.035 A 
ATOM     10  C   UNL d   1      26.712 -15.358  -1.737  0.00  0.00     0.017 A 
ATOM     11  C   UNL d   1      26.917 -16.393  -0.829  0.00  0.00     0.003 A 
ATOM     12  C   UNL d   1      25.847 -17.201  -0.427  0.00  0.00     0.029 A 
ATOM     13  C   UNL d   1      24.551 -17.053  -0.951  0.00  0.00     0.030 A 
ATOM     14  C   UNL d   1      24.391 -16.001  -1.882  0.00  0.00     0.046 A 
BRANCH  13  15
ATOM     15  N   UNL d   1      23.506 -17.894  -0.593  0.00  0.00    -0.390 N 
ATOM     16  C   UNL d   1      23.678 -19.325  -0.328  0.00  0.00     0.149 C 
ATOM     17  C   UNL d   1      22.114 -17.445  -0.545  0.00  0.00     0.149 C 
ENDBRANCH  13  15
ENDBRANCH   6   9
ENDBRANCH   3   5
BRANCH   1  18
ATOM     18  C   UNL d   1      25.666  -9.527  -5.068  0.00  0.00     0.218 C 
ATOM     19  C   UNL d   1      26.875  -8.586  -4.980  0.00  0.00     0.050 C 
BRANCH  18  20
ATOM     20  O   UNL d   1      25.452 -10.167  -6.343  0.00  0.00    -0.337 OA
BRANCH  20  21
ATOM     21  C   UNL d   1      26.485 -10.762  -7.029  0.00  0.00     0.070 A 
ATOM     22  C   UNL d   1      26.654 -10.405  -8.372  0.00  0.00     0.037 A 
ATOM     23  C   UNL d   1      27.548 -11.114  -9.199  0.00  0.00     0.003 A 
ATOM     24  C   UNL d   1      28.354 -12.123  -8.674  0.00  0.00     0.000 A 
ATOM     25  C   UNL d   1      28.214 -12.468  -7.343  0.00  0.00     0.003 A 
ATOM     26  C   UNL d   1      27.252 -11.829  -6.560  0.00  0.00     0.037 A 
ENDBRANCH  20  21
ENDBRANCH  18  20
ENDBRANCH   1  18
TORSDOF 6
ENDMDL
