MODEL 1
REMARK VINA RESULT:    -8.760      0.000      0.000
REMARK INTER + INTRA:         -16.080
REMARK INTER:                 -12.936
REMARK INTRA:                  -3.144
REMARK CONF_INDEPENDENT:        4.176
REMARK UNBOUND:                -3.144
REMARK  14 active torsions:
REMARK  status: ('A' for Active; 'I' for Inactive)
REMARK    1  A    between atoms: C_2  and  C_3 
REMARK    2  A    between atoms: C_3  and  C_4 
REMARK    3  A    between atoms: C_4  and  N_5 
REMARK       I    between atoms: N_5  and  C_6 
REMARK    4  A    between atoms: C_6  and  C_8 
REMARK    5  A    between atoms: C_8  and  C_9 
REMARK    6  A    between atoms: C_8  and  N_18 
REMARK    7  A    between atoms: C_10  and  O_11 
REMARK    8  A    between atoms: C_13  and  O_14 
REMARK    9  A    between atoms: C_16  and  O_17 
REMARK   10  A    between atoms: N_18  and  C_19 
REMARK       I    between atoms: N_18  and  C_22 
REMARK   11  A    between atoms: C_19  and  C_20 
REMARK   12  A    between atoms: C_22  and  C_24 
REMARK   13  A    between atoms: C_24  and  N_25 
REMARK       I    between atoms: N_25  and  C_26 
REMARK   14  A    between atoms: C_26  and  C_28 
ROOT
ATOM      1  C   UNL d   1      25.830 -15.123  -0.626  0.00  0.00     0.212 C 
ENDROOT
BRANCH   1   2
ATOM      2  C   UNL d   1      26.830 -14.255   0.369  0.00  0.00     0.225 C 
ATOM      3  N   UNL d   1      27.949 -14.742   0.995  0.00  0.00    -0.261 NA
ATOM      4  H   UNL d   1      27.824 -15.708   1.284  0.00  0.00     0.130 HD
ATOM      5  O   UNL d   1      26.607 -13.116   0.777  0.00  0.00    -0.277 OA
BRANCH   3   6
ATOM      6  C   UNL d   1      28.431 -13.814   2.031  0.00  0.00     0.095 C 
BRANCH   6   7
ATOM      7  C   UNL d   1      28.622 -14.465   3.355  0.00  0.00     0.014 C 
BRANCH   7   8
ATOM      8  C   UNL d   1      28.687 -13.391   4.428  0.00  0.00    -0.003 C 
ATOM      9  C   UNL d   1      27.582 -13.665   5.417  0.00  0.00     0.005 C 
ENDBRANCH   7   8
ENDBRANCH   6   7
ENDBRANCH   3   6
ENDBRANCH   1   2
BRANCH   1  10
ATOM     10  C   UNL d   1      26.362 -15.024  -2.118  0.00  0.00     0.040 A 
ATOM     11  C   UNL d   1      27.717 -15.150  -2.505  0.00  0.00     0.080 A 
ATOM     12  C   UNL d   1      28.154 -15.190  -3.831  0.00  0.00     0.073 A 
ATOM     13  C   UNL d   1      27.254 -14.983  -4.845  0.00  0.00     0.071 A 
ATOM     14  C   UNL d   1      25.925 -14.801  -4.549  0.00  0.00     0.073 A 
ATOM     15  C   UNL d   1      25.488 -14.877  -3.221  0.00  0.00     0.080 A 
BRANCH  11  16
ATOM     16  O   UNL d   1      28.784 -15.147  -1.658  0.00  0.00    -0.360 OA
ATOM     17  H   UNL d   1      28.394 -15.400  -0.811  0.00  0.00     0.217 HD
ENDBRANCH  11  16
BRANCH  13  18
ATOM     18  O   UNL d   1      27.639 -14.940  -6.146  0.00  0.00    -0.361 OA
ATOM     19  H   UNL d   1      27.392 -14.067  -6.494  0.00  0.00     0.217 HD
ENDBRANCH  13  18
BRANCH  15  20
ATOM     20  O   UNL d   1      24.130 -14.825  -3.093  0.00  0.00    -0.360 OA
ATOM     21  H   UNL d   1      23.863 -15.383  -2.338  0.00  0.00     0.217 HD
ENDBRANCH  15  20
ENDBRANCH   1  10
BRANCH   1  22
ATOM     22  N   UNL d   1      25.383 -16.631  -0.230  0.00  0.00    -0.334 N 
ATOM     23  C   UNL d   1      24.097 -17.129  -0.621  0.00  0.00     0.238 C 
ATOM     24  O   UNL d   1      23.239 -16.421  -1.144  0.00  0.00    -0.272 OA
BRANCH  22  25
ATOM     25  C   UNL d   1      26.191 -17.568   0.621  0.00  0.00     0.127 C 
BRANCH  25  26
ATOM     26  C   UNL d   1      27.317 -18.201  -0.086  0.00  0.00     0.015 C 
ATOM     27  C   UNL d   1      28.625 -17.631  -0.520  0.00  0.00     0.006 C 
ENDBRANCH  25  26
ENDBRANCH  22  25
BRANCH  23  28
ATOM     28  C   UNL d   1      23.940 -18.696  -0.566  0.00  0.00     0.225 C 
BRANCH  28  29
ATOM     29  N   UNL d   1      22.748 -19.132   0.140  0.00  0.00    -0.348 N 
ATOM     30  C   UNL d   1      21.550 -19.333  -0.530  0.00  0.00     0.252 C 
ATOM     31  O   UNL d   1      21.403 -19.143  -1.717  0.00  0.00    -0.268 OA
ATOM     32  H   UNL d   1      22.831 -19.286   1.137  0.00  0.00     0.163 HD
BRANCH  30  33
ATOM     33  C   UNL d   1      20.414 -19.822   0.306  0.00  0.00     0.032 A 
ATOM     34  C   UNL d   1      19.296 -20.406  -0.306  0.00  0.00     0.017 A 
ATOM     35  C   UNL d   1      18.200 -20.802   0.470  0.00  0.00     0.001 A 
ATOM     36  C   UNL d   1      18.241 -20.663   1.858  0.00  0.00     0.000 A 
ATOM     37  C   UNL d   1      19.349 -20.072   2.466  0.00  0.00     0.001 A 
ATOM     38  C   UNL d   1      20.429 -19.641   1.691  0.00  0.00     0.017 A 
ENDBRANCH  30  33
ENDBRANCH  28  29
ENDBRANCH  23  28
ENDBRANCH   1  22
TORSDOF 14
ENDMDL
MODEL 2
REMARK VINA RESULT:    -8.609      0.515      1.557
REMARK INTER + INTRA:         -16.023
REMARK INTER:                 -12.785
REMARK INTRA:                  -3.237
REMARK CONF_INDEPENDENT:        4.176
REMARK UNBOUND:                -3.237
REMARK  14 active torsions:
REMARK  status: ('A' for Active; 'I' for Inactive)
REMARK    1  A    between atoms: C_2  and  C_3 
REMARK    2  A    between atoms: C_3  and  C_4 
REMARK    3  A    between atoms: C_4  and  N_5 
REMARK       I    between atoms: N_5  and  C_6 
REMARK    4  A    between atoms: C_6  and  C_8 
REMARK    5  A    between atoms: C_8  and  C_9 
REMARK    6  A    between atoms: C_8  and  N_18 
REMARK    7  A    between atoms: C_10  and  O_11 
REMARK    8  A    between atoms: C_13  and  O_14 
REMARK    9  A    between atoms: C_16  and  O_17 
REMARK   10  A    between atoms: N_18  and  C_19 
REMARK       I    between atoms: N_18  and  C_22 
REMARK   11  A    between atoms: C_19  and  C_20 
REMARK   12  A    between atoms: C_22  and  C_24 
REMARK   13  A    between atoms: C_24  and  N_25 
REMARK       I    between atoms: N_25  and  C_26 
REMARK   14  A    between atoms: C_26  and  C_28 
ROOT
ATOM      1  C   UNL d   1      26.006 -14.886  -0.870  0.00  0.00     0.212 C 
ENDROOT
BRANCH   1   2
ATOM      2  C   UNL d   1      26.965 -13.868   0.018  0.00  0.00     0.225 C 
ATOM      3  N   UNL d   1      28.063 -14.243   0.748  0.00  0.00    -0.261 NA
ATOM      4  H   UNL d   1      27.932 -15.156   1.174  0.00  0.00     0.130 HD
ATOM      5  O   UNL d   1      26.721 -12.682   0.242  0.00  0.00    -0.277 OA
BRANCH   3   6
ATOM      6  C   UNL d   1      28.502 -13.165   1.650  0.00  0.00     0.095 C 
BRANCH   6   7
ATOM      7  C   UNL d   1      28.000 -13.327   3.040  0.00  0.00     0.014 C 
BRANCH   7   8
ATOM      8  C   UNL d   1      28.767 -14.452   3.714  0.00  0.00    -0.003 C 
ATOM      9  C   UNL d   1      28.131 -14.700   5.058  0.00  0.00     0.005 C 
ENDBRANCH   7   8
ENDBRANCH   6   7
ENDBRANCH   3   6
ENDBRANCH   1   2
BRANCH   1  10
ATOM     10  C   UNL d   1      26.529 -14.923  -2.368  0.00  0.00     0.040 A 
ATOM     11  C   UNL d   1      25.733 -14.672  -3.511  0.00  0.00     0.080 A 
ATOM     12  C   UNL d   1      26.233 -14.582  -4.812  0.00  0.00     0.073 A 
ATOM     13  C   UNL d   1      27.556 -14.858  -5.048  0.00  0.00     0.071 A 
ATOM     14  C   UNL d   1      28.386 -15.162  -3.996  0.00  0.00     0.073 A 
ATOM     15  C   UNL d   1      27.892 -15.138  -2.686  0.00  0.00     0.080 A 
BRANCH  11  16
ATOM     16  O   UNL d   1      24.374 -14.588  -3.523  0.00  0.00    -0.360 OA
ATOM     17  H   UNL d   1      24.118 -15.019  -2.697  0.00  0.00     0.217 HD
ENDBRANCH  11  16
BRANCH  13  18
ATOM     18  O   UNL d   1      28.075 -14.855  -6.302  0.00  0.00    -0.361 OA
ATOM     19  H   UNL d   1      28.273 -13.932  -6.533  0.00  0.00     0.217 HD
ENDBRANCH  13  18
BRANCH  15  20
ATOM     20  O   UNL d   1      28.858 -15.312  -1.738  0.00  0.00    -0.360 OA
ATOM     21  H   UNL d   1      28.972 -14.476  -1.246  0.00  0.00     0.217 HD
ENDBRANCH  15  20
ENDBRANCH   1  10
BRANCH   1  22
ATOM     22  N   UNL d   1      25.635 -16.362  -0.311  0.00  0.00    -0.334 N 
ATOM     23  C   UNL d   1      24.363 -16.949  -0.612  0.00  0.00     0.238 C 
ATOM     24  O   UNL d   1      23.462 -16.334  -1.179  0.00  0.00    -0.272 OA
BRANCH  22  25
ATOM     25  C   UNL d   1      26.504 -17.174   0.606  0.00  0.00     0.127 C 
BRANCH  25  26
ATOM     26  C   UNL d   1      27.465 -18.044  -0.092  0.00  0.00     0.015 C 
ATOM     27  C   UNL d   1      28.865 -17.778  -0.530  0.00  0.00     0.006 C 
ENDBRANCH  25  26
ENDBRANCH  22  25
BRANCH  23  28
ATOM     28  C   UNL d   1      24.275 -18.507  -0.394  0.00  0.00     0.225 C 
BRANCH  28  29
ATOM     29  N   UNL d   1      23.027 -18.936   0.213  0.00  0.00    -0.348 N 
ATOM     30  C   UNL d   1      21.887 -19.134  -0.553  0.00  0.00     0.252 C 
ATOM     31  O   UNL d   1      21.838 -18.947  -1.748  0.00  0.00    -0.268 OA
ATOM     32  H   UNL d   1      23.027 -19.087   1.214  0.00  0.00     0.163 HD
BRANCH  30  33
ATOM     33  C   UNL d   1      20.684 -19.615   0.189  0.00  0.00     0.032 A 
ATOM     34  C   UNL d   1      19.563 -20.070  -0.519  0.00  0.00     0.017 A 
ATOM     35  C   UNL d   1      18.408 -20.457   0.173  0.00  0.00     0.001 A 
ATOM     36  C   UNL d   1      18.391 -20.438   1.568  0.00  0.00     0.000 A 
ATOM     37  C   UNL d   1      19.503 -19.975   2.272  0.00  0.00     0.001 A 
ATOM     38  C   UNL d   1      20.644 -19.552   1.584  0.00  0.00     0.017 A 
ENDBRANCH  30  33
ENDBRANCH  28  29
ENDBRANCH  23  28
ENDBRANCH   1  22
TORSDOF 14
ENDMDL
MODEL 3
REMARK VINA RESULT:    -7.834      1.299      1.993
REMARK INTER + INTRA:         -15.834
REMARK INTER:                 -12.010
REMARK INTRA:                  -3.824
REMARK CONF_INDEPENDENT:        4.176
REMARK UNBOUND:                -3.824
REMARK  14 active torsions:
REMARK  status: ('A' for Active; 'I' for Inactive)
REMARK    1  A    between atoms: C_2  and  C_3 
REMARK    2  A    between atoms: C_3  and  C_4 
REMARK    3  A    between atoms: C_4  and  N_5 
REMARK       I    between atoms: N_5  and  C_6 
REMARK    4  A    between atoms: C_6  and  C_8 
REMARK    5  A    between atoms: C_8  and  C_9 
REMARK    6  A    between atoms: C_8  and  N_18 
REMARK    7  A    between atoms: C_10  and  O_11 
REMARK    8  A    between atoms: C_13  and  O_14 
REMARK    9  A    between atoms: C_16  and  O_17 
REMARK   10  A    between atoms: N_18  and  C_19 
REMARK       I    between atoms: N_18  and  C_22 
REMARK   11  A    between atoms: C_19  and  C_20 
REMARK   12  A    between atoms: C_22  and  C_24 
REMARK   13  A    between atoms: C_24  and  N_25 
REMARK       I    between atoms: N_25  and  C_26 
REMARK   14  A    between atoms: C_26  and  C_28 
ROOT
ATOM      1  C   UNL d   1      25.995 -14.854  -0.987  0.00  0.00     0.212 C 
ENDROOT
BRANCH   1   2
ATOM      2  C   UNL d   1      26.943 -13.838  -0.085  0.00  0.00     0.225 C 
ATOM      3  N   UNL d   1      28.291 -13.651  -0.249  0.00  0.00    -0.261 NA
ATOM      4  H   UNL d   1      28.756 -14.514  -0.517  0.00  0.00     0.130 HD
ATOM      5  O   UNL d   1      26.577 -13.243   0.928  0.00  0.00    -0.277 OA
BRANCH   3   6
ATOM      6  C   UNL d   1      28.875 -12.927   0.892  0.00  0.00     0.095 C 
BRANCH   6   7
ATOM      7  C   UNL d   1      29.251 -11.527   0.562  0.00  0.00     0.014 C 
BRANCH   7   8
ATOM      8  C   UNL d   1      27.992 -10.741   0.234  0.00  0.00    -0.003 C 
ATOM      9  C   UNL d   1      27.916 -10.604  -1.265  0.00  0.00     0.005 C 
ENDBRANCH   7   8
ENDBRANCH   6   7
ENDBRANCH   3   6
ENDBRANCH   1   2
BRANCH   1  10
ATOM     10  C   UNL d   1      26.549 -14.905  -2.473  0.00  0.00     0.040 A 
ATOM     11  C   UNL d   1      27.875 -15.246  -2.832  0.00  0.00     0.080 A 
ATOM     12  C   UNL d   1      28.314 -15.412  -4.147  0.00  0.00     0.073 A 
ATOM     13  C   UNL d   1      27.463 -15.125  -5.184  0.00  0.00     0.071 A 
ATOM     14  C   UNL d   1      26.173 -14.736  -4.919  0.00  0.00     0.073 A 
ATOM     15  C   UNL d   1      25.717 -14.683  -3.596  0.00  0.00     0.080 A 
BRANCH  11  16
ATOM     16  O   UNL d   1      28.922 -15.359  -1.969  0.00  0.00    -0.360 OA
ATOM     17  H   UNL d   1      29.306 -14.472  -1.970  0.00  0.00     0.217 HD
ENDBRANCH  11  16
BRANCH  13  18
ATOM     18  O   UNL d   1      27.863 -15.200  -6.479  0.00  0.00    -0.361 OA
ATOM     19  H   UNL d   1      28.359 -14.388  -6.679  0.00  0.00     0.217 HD
ENDBRANCH  13  18
BRANCH  15  20
ATOM     20  O   UNL d   1      24.380 -14.428  -3.493  0.00  0.00    -0.360 OA
ATOM     21  H   UNL d   1      24.032 -14.882  -2.702  0.00  0.00     0.217 HD
ENDBRANCH  15  20
ENDBRANCH   1  10
BRANCH   1  22
ATOM     22  N   UNL d   1      25.599 -16.323  -0.426  0.00  0.00    -0.334 N 
ATOM     23  C   UNL d   1      24.318 -16.891  -0.730  0.00  0.00     0.238 C 
ATOM     24  O   UNL d   1      23.429 -16.263  -1.301  0.00  0.00    -0.272 OA
BRANCH  22  25
ATOM     25  C   UNL d   1      26.452 -17.146   0.495  0.00  0.00     0.127 C 
BRANCH  25  26
ATOM     26  C   UNL d   1      27.900 -16.989   0.274  0.00  0.00     0.015 C 
ATOM     27  C   UNL d   1      28.847 -17.811  -0.532  0.00  0.00     0.006 C 
ENDBRANCH  25  26
ENDBRANCH  22  25
BRANCH  23  28
ATOM     28  C   UNL d   1      24.206 -18.447  -0.510  0.00  0.00     0.225 C 
BRANCH  28  29
ATOM     29  N   UNL d   1      22.964 -18.852   0.125  0.00  0.00    -0.348 N 
ATOM     30  C   UNL d   1      21.828 -19.120  -0.624  0.00  0.00     0.252 C 
ATOM     31  O   UNL d   1      21.778 -19.017  -1.830  0.00  0.00    -0.268 OA
ATOM     32  H   UNL d   1      22.965 -18.934   1.135  0.00  0.00     0.163 HD
BRANCH  30  33
ATOM     33  C   UNL d   1      20.632 -19.567   0.149  0.00  0.00     0.032 A 
ATOM     34  C   UNL d   1      20.655 -19.539   1.550  0.00  0.00     0.017 A 
ATOM     35  C   UNL d   1      19.561 -20.023   2.278  0.00  0.00     0.001 A 
ATOM     36  C   UNL d   1      18.427 -20.485   1.609  0.00  0.00     0.000 A 
ATOM     37  C   UNL d   1      18.409 -20.523   0.215  0.00  0.00     0.001 A 
ATOM     38  C   UNL d   1      19.513 -20.077  -0.515  0.00  0.00     0.017 A 
ENDBRANCH  30  33
ENDBRANCH  28  29
ENDBRANCH  23  28
ENDBRANCH   1  22
TORSDOF 14
ENDMDL
MODEL 4
REMARK VINA RESULT:    -7.137      2.019      7.182
REMARK INTER + INTRA:         -14.786
REMARK INTER:                 -11.314
REMARK INTRA:                  -3.472
REMARK CONF_INDEPENDENT:        4.176
REMARK UNBOUND:                -3.472
REMARK  14 active torsions:
REMARK  status: ('A' for Active; 'I' for Inactive)
REMARK    1  A    between atoms: C_2  and  C_3 
REMARK    2  A    between atoms: C_3  and  C_4 
REMARK    3  A    between atoms: C_4  and  N_5 
REMARK       I    between atoms: N_5  and  C_6 
REMARK    4  A    between atoms: C_6  and  C_8 
REMARK    5  A    between atoms: C_8  and  C_9 
REMARK    6  A    between atoms: C_8  and  N_18 
REMARK    7  A    between atoms: C_10  and  O_11 
REMARK    8  A    between atoms: C_13  and  O_14 
REMARK    9  A    between atoms: C_16  and  O_17 
REMARK   10  A    between atoms: N_18  and  C_19 
REMARK       I    between atoms: N_18  and  C_22 
REMARK   11  A    between atoms: C_19  and  C_20 
REMARK   12  A    between atoms: C_22  and  C_24 
REMARK   13  A    between atoms: C_24  and  N_25 
REMARK       I    between atoms: N_25  and  C_26 
REMARK   14  A    between atoms: C_26  and  C_28 
ROOT
ATOM      1  C   UNL d   1      26.363 -16.350  -2.238  0.00  0.00     0.212 C 
ENDROOT
BRANCH   1   2
ATOM      2  C   UNL d   1      24.999 -16.951  -1.516  0.00  0.00     0.225 C 
ATOM      3  N   UNL d   1      23.996 -16.201  -0.959  0.00  0.00    -0.261 NA
ATOM      4  H   UNL d   1      24.361 -15.365  -0.510  0.00  0.00     0.130 HD
ATOM      5  O   UNL d   1      24.796 -18.139  -1.267  0.00  0.00    -0.277 OA
BRANCH   3   6
ATOM      6  C   UNL d   1      23.093 -17.032  -0.145  0.00  0.00     0.095 C 
BRANCH   6   7
ATOM      7  C   UNL d   1      21.898 -17.502  -0.895  0.00  0.00     0.014 C 
BRANCH   7   8
ATOM      8  C   UNL d   1      21.603 -18.940  -0.502  0.00  0.00    -0.003 C 
ATOM      9  C   UNL d   1      20.287 -19.325  -1.129  0.00  0.00     0.005 C 
ENDBRANCH   7   8
ENDBRANCH   6   7
ENDBRANCH   3   6
ENDBRANCH   1   2
BRANCH   1  10
ATOM     10  C   UNL d   1      26.119 -14.833  -2.635  0.00  0.00     0.040 A 
ATOM     11  C   UNL d   1      26.378 -13.724  -1.795  0.00  0.00     0.080 A 
ATOM     12  C   UNL d   1      26.280 -12.391  -2.202  0.00  0.00     0.073 A 
ATOM     13  C   UNL d   1      25.798 -12.101  -3.454  0.00  0.00     0.071 A 
ATOM     14  C   UNL d   1      25.475 -13.123  -4.313  0.00  0.00     0.073 A 
ATOM     15  C   UNL d   1      25.685 -14.453  -3.928  0.00  0.00     0.080 A 
BRANCH  11  16
ATOM     16  O   UNL d   1      26.653 -13.789  -0.464  0.00  0.00    -0.360 OA
ATOM     17  H   UNL d   1      27.540 -14.173  -0.439  0.00  0.00     0.217 HD
ENDBRANCH  11  16
BRANCH  13  18
ATOM     18  O   UNL d   1      25.616 -10.822  -3.871  0.00  0.00    -0.361 OA
ATOM     19  H   UNL d   1      24.750 -10.779  -4.310  0.00  0.00     0.217 HD
ENDBRANCH  13  18
BRANCH  15  20
ATOM     20  O   UNL d   1      25.461 -15.350  -4.931  0.00  0.00    -0.360 OA
ATOM     21  H   UNL d   1      25.213 -14.864  -5.740  0.00  0.00     0.217 HD
ENDBRANCH  15  20
ENDBRANCH   1  10
BRANCH   1  22
ATOM     22  N   UNL d   1      27.821 -16.583  -1.566  0.00  0.00    -0.334 N 
ATOM     23  C   UNL d   1      28.954 -15.834  -2.021  0.00  0.00     0.238 C 
ATOM     24  O   UNL d   1      28.914 -15.093  -3.002  0.00  0.00    -0.272 OA
BRANCH  22  25
ATOM     25  C   UNL d   1      28.127 -17.619  -0.524  0.00  0.00     0.127 C 
BRANCH  25  26
ATOM     26  C   UNL d   1      27.271 -17.539   0.673  0.00  0.00     0.015 C 
ATOM     27  C   UNL d   1      26.413 -18.575   1.315  0.00  0.00     0.006 C 
ENDBRANCH  25  26
ENDBRANCH  22  25
BRANCH  23  28
ATOM     28  C   UNL d   1      30.188 -15.824  -1.042  0.00  0.00     0.225 C 
BRANCH  28  29
ATOM     29  N   UNL d   1      29.827 -15.561   0.341  0.00  0.00    -0.348 N 
ATOM     30  C   UNL d   1      29.475 -14.287   0.761  0.00  0.00     0.252 C 
ATOM     31  O   UNL d   1      29.466 -13.317   0.036  0.00  0.00    -0.268 OA
ATOM     32  H   UNL d   1      29.839 -16.347   0.979  0.00  0.00     0.163 HD
BRANCH  30  33
ATOM     33  C   UNL d   1      29.085 -14.163   2.197  0.00  0.00     0.032 A 
ATOM     34  C   UNL d   1      30.075 -14.130   3.190  0.00  0.00     0.017 A 
ATOM     35  C   UNL d   1      29.710 -14.083   4.541  0.00  0.00     0.001 A 
ATOM     36  C   UNL d   1      28.362 -14.018   4.898  0.00  0.00     0.000 A 
ATOM     37  C   UNL d   1      27.378 -14.062   3.911  0.00  0.00     0.001 A 
ATOM     38  C   UNL d   1      27.737 -14.147   2.563  0.00  0.00     0.017 A 
ENDBRANCH  30  33
ENDBRANCH  28  29
ENDBRANCH  23  28
ENDBRANCH   1  22
TORSDOF 14
ENDMDL
MODEL 5
REMARK VINA RESULT:    -7.038      3.723      8.660
REMARK INTER + INTRA:         -15.116
REMARK INTER:                 -11.214
REMARK INTRA:                  -3.902
REMARK CONF_INDEPENDENT:        4.176
REMARK UNBOUND:                -3.902
REMARK  14 active torsions:
REMARK  status: ('A' for Active; 'I' for Inactive)
REMARK    1  A    between atoms: C_2  and  C_3 
REMARK    2  A    between atoms: C_3  and  C_4 
REMARK    3  A    between atoms: C_4  and  N_5 
REMARK       I    between atoms: N_5  and  C_6 
REMARK    4  A    between atoms: C_6  and  C_8 
REMARK    5  A    between atoms: C_8  and  C_9 
REMARK    6  A    between atoms: C_8  and  N_18 
REMARK    7  A    between atoms: C_10  and  O_11 
REMARK    8  A    between atoms: C_13  and  O_14 
REMARK    9  A    between atoms: C_16  and  O_17 
REMARK   10  A    between atoms: N_18  and  C_19 
REMARK       I    between atoms: N_18  and  C_22 
REMARK   11  A    between atoms: C_19  and  C_20 
REMARK   12  A    between atoms: C_22  and  C_24 
REMARK   13  A    between atoms: C_24  and  N_25 
REMARK       I    between atoms: N_25  and  C_26 
REMARK   14  A    between atoms: C_26  and  C_28 
ROOT
ATOM      1  C   UNL d   1      25.334 -15.040  -1.712  0.00  0.00     0.212 C 
ENDROOT
BRANCH   1   2
ATOM      2  C   UNL d   1      24.609 -16.530  -1.715  0.00  0.00     0.225 C 
ATOM      3  N   UNL d   1      23.851 -17.049  -0.698  0.00  0.00    -0.261 NA
ATOM      4  H   UNL d   1      24.208 -16.771   0.212  0.00  0.00     0.130 HD
ATOM      5  O   UNL d   1      24.784 -17.400  -2.568  0.00  0.00    -0.277 OA
BRANCH   3   6
ATOM      6  C   UNL d   1      23.612 -18.490  -0.887  0.00  0.00     0.095 C 
BRANCH   6   7
ATOM      7  C   UNL d   1      22.423 -18.986  -0.145  0.00  0.00     0.014 C 
BRANCH   7   8
ATOM      8  C   UNL d   1      21.166 -18.575  -0.894  0.00  0.00    -0.003 C 
ATOM      9  C   UNL d   1      20.116 -19.626  -0.639  0.00  0.00     0.005 C 
ENDBRANCH   7   8
ENDBRANCH   6   7
ENDBRANCH   3   6
ENDBRANCH   1   2
BRANCH   1  10
ATOM     10  C   UNL d   1      26.332 -14.947  -0.481  0.00  0.00     0.040 A 
ATOM     11  C   UNL d   1      26.804 -16.053   0.264  0.00  0.00     0.080 A 
ATOM     12  C   UNL d   1      27.780 -15.970   1.260  0.00  0.00     0.073 A 
ATOM     13  C   UNL d   1      28.250 -14.739   1.643  0.00  0.00     0.071 A 
ATOM     14  C   UNL d   1      27.801 -13.610   1.003  0.00  0.00     0.073 A 
ATOM     15  C   UNL d   1      26.907 -13.722  -0.069  0.00  0.00     0.080 A 
BRANCH  11  16
ATOM     16  O   UNL d   1      26.313 -17.321   0.194  0.00  0.00    -0.360 OA
ATOM     17  H   UNL d   1      26.074 -17.415  -0.739  0.00  0.00     0.217 HD
ENDBRANCH  11  16
BRANCH  13  18
ATOM     18  O   UNL d   1      29.144 -14.598   2.655  0.00  0.00    -0.361 OA
ATOM     19  H   UNL d   1      29.619 -15.441   2.744  0.00  0.00     0.217 HD
ENDBRANCH  13  18
BRANCH  15  20
ATOM     20  O   UNL d   1      26.666 -12.536  -0.701  0.00  0.00    -0.360 OA
ATOM     21  H   UNL d   1      26.449 -12.715  -1.635  0.00  0.00     0.217 HD
ENDBRANCH  15  20
ENDBRANCH   1  10
BRANCH   1  22
ATOM     22  N   UNL d   1      25.976 -14.435  -3.072  0.00  0.00    -0.334 N 
ATOM     23  C   UNL d   1      25.134 -13.821  -4.057  0.00  0.00     0.238 C 
ATOM     24  O   UNL d   1      23.907 -13.837  -3.988  0.00  0.00    -0.272 OA
BRANCH  22  25
ATOM     25  C   UNL d   1      27.423 -14.539  -3.456  0.00  0.00     0.127 C 
BRANCH  25  26
ATOM     26  C   UNL d   1      27.674 -15.392  -4.630  0.00  0.00     0.015 C 
ATOM     27  C   UNL d   1      28.595 -15.196  -5.785  0.00  0.00     0.006 C 
ENDBRANCH  25  26
ENDBRANCH  22  25
BRANCH  23  28
ATOM     28  C   UNL d   1      25.881 -12.910  -5.102  0.00  0.00     0.225 C 
BRANCH  28  29
ATOM     29  N   UNL d   1      25.530 -11.504  -4.999  0.00  0.00    -0.348 N 
ATOM     30  C   UNL d   1      26.004 -10.720  -3.958  0.00  0.00     0.252 C 
ATOM     31  O   UNL d   1      26.707 -11.140  -3.066  0.00  0.00    -0.268 OA
ATOM     32  H   UNL d   1      24.929 -11.123  -5.720  0.00  0.00     0.163 HD
BRANCH  30  33
ATOM     33  C   UNL d   1      25.602  -9.283  -3.993  0.00  0.00     0.032 A 
ATOM     34  C   UNL d   1      25.994  -8.422  -2.959  0.00  0.00     0.017 A 
ATOM     35  C   UNL d   1      25.560  -7.090  -2.954  0.00  0.00     0.001 A 
ATOM     36  C   UNL d   1      24.780  -6.607  -4.005  0.00  0.00     0.000 A 
ATOM     37  C   UNL d   1      24.380  -7.467  -5.028  0.00  0.00     0.001 A 
ATOM     38  C   UNL d   1      24.779  -8.806  -5.017  0.00  0.00     0.017 A 
ENDBRANCH  30  33
ENDBRANCH  28  29
ENDBRANCH  23  28
ENDBRANCH   1  22
TORSDOF 14
ENDMDL
MODEL 6
REMARK VINA RESULT:    -6.476      2.262      7.342
REMARK INTER + INTRA:         -14.978
REMARK INTER:                 -10.652
REMARK INTRA:                  -4.326
REMARK CONF_INDEPENDENT:        4.176
REMARK UNBOUND:                -4.326
REMARK  14 active torsions:
REMARK  status: ('A' for Active; 'I' for Inactive)
REMARK    1  A    between atoms: C_2  and  C_3 
REMARK    2  A    between atoms: C_3  and  C_4 
REMARK    3  A    between atoms: C_4  and  N_5 
REMARK       I    between atoms: N_5  and  C_6 
REMARK    4  A    between atoms: C_6  and  C_8 
REMARK    5  A    between atoms: C_8  and  C_9 
REMARK    6  A    between atoms: C_8  and  N_18 
REMARK    7  A    between atoms: C_10  and  O_11 
REMARK    8  A    between atoms: C_13  and  O_14 
REMARK    9  A    between atoms: C_16  and  O_17 
REMARK   10  A    between atoms: N_18  and  C_19 
REMARK       I    between atoms: N_18  and  C_22 
REMARK   11  A    between atoms: C_19  and  C_20 
REMARK   12  A    between atoms: C_22  and  C_24 
REMARK   13  A    between atoms: C_24  and  N_25 
REMARK       I    between atoms: N_25  and  C_26 
REMARK   14  A    between atoms: C_26  and  C_28 
ROOT
ATOM      1  C   UNL d   1      27.239 -15.925  -2.257  0.00  0.00     0.212 C 
ENDROOT
BRANCH   1   2
ATOM      2  C   UNL d   1      25.877 -16.573  -1.571  0.00  0.00     0.225 C 
ATOM      3  N   UNL d   1      24.929 -15.875  -0.869  0.00  0.00    -0.261 NA
ATOM      4  H   UNL d   1      25.347 -15.129  -0.320  0.00  0.00     0.130 HD
ATOM      5  O   UNL d   1      25.631 -17.776  -1.489  0.00  0.00    -0.277 OA
BRANCH   3   6
ATOM      6  C   UNL d   1      24.022 -16.780  -0.145  0.00  0.00     0.095 C 
BRANCH   6   7
ATOM      7  C   UNL d   1      22.805 -17.131  -0.925  0.00  0.00     0.014 C 
BRANCH   7   8
ATOM      8  C   UNL d   1      22.634 -18.642  -0.920  0.00  0.00    -0.003 C 
ATOM      9  C   UNL d   1      21.185 -18.938  -0.631  0.00  0.00     0.005 C 
ENDBRANCH   7   8
ENDBRANCH   6   7
ENDBRANCH   3   6
ENDBRANCH   1   2
BRANCH   1  10
ATOM     10  C   UNL d   1      26.830 -14.688  -3.163  0.00  0.00     0.040 A 
ATOM     11  C   UNL d   1      26.903 -14.660  -4.576  0.00  0.00     0.080 A 
ATOM     12  C   UNL d   1      26.421 -13.615  -5.367  0.00  0.00     0.073 A 
ATOM     13  C   UNL d   1      25.941 -12.479  -4.765  0.00  0.00     0.071 A 
ATOM     14  C   UNL d   1      25.886 -12.406  -3.395  0.00  0.00     0.073 A 
ATOM     15  C   UNL d   1      26.269 -13.508  -2.620  0.00  0.00     0.080 A 
BRANCH  11  16
ATOM     16  O   UNL d   1      27.536 -15.583  -5.352  0.00  0.00    -0.360 OA
ATOM     17  H   UNL d   1      28.231 -15.069  -5.785  0.00  0.00     0.217 HD
ENDBRANCH  11  16
BRANCH  13  18
ATOM     18  O   UNL d   1      25.528 -11.407  -5.487  0.00  0.00    -0.361 OA
ATOM     19  H   UNL d   1      24.684 -11.645  -5.906  0.00  0.00     0.217 HD
ENDBRANCH  13  18
BRANCH  15  20
ATOM     20  O   UNL d   1      26.021 -13.347  -1.287  0.00  0.00    -0.360 OA
ATOM     21  H   UNL d   1      26.277 -14.163  -0.817  0.00  0.00     0.217 HD
ENDBRANCH  15  20
ENDBRANCH   1  10
BRANCH   1  22
ATOM     22  N   UNL d   1      28.549 -15.619  -1.351  0.00  0.00    -0.334 N 
ATOM     23  C   UNL d   1      28.407 -15.034  -0.050  0.00  0.00     0.238 C 
ATOM     24  O   UNL d   1      27.331 -14.624   0.382  0.00  0.00    -0.272 OA
BRANCH  22  25
ATOM     25  C   UNL d   1      29.966 -15.819  -1.801  0.00  0.00     0.127 C 
BRANCH  25  26
ATOM     26  C   UNL d   1      30.166 -17.006  -2.650  0.00  0.00     0.015 C 
ATOM     27  C   UNL d   1      30.241 -17.129  -4.133  0.00  0.00     0.006 C 
ENDBRANCH  25  26
ENDBRANCH  22  25
BRANCH  23  28
ATOM     28  C   UNL d   1      29.663 -15.174   0.889  0.00  0.00     0.225 C 
BRANCH  28  29
ATOM     29  N   UNL d   1      29.393 -14.825   2.273  0.00  0.00    -0.348 N 
ATOM     30  C   UNL d   1      28.879 -13.582   2.612  0.00  0.00     0.252 C 
ATOM     31  O   UNL d   1      28.645 -12.708   1.808  0.00  0.00    -0.268 OA
ATOM     32  H   UNL d   1      29.591 -15.527   2.974  0.00  0.00     0.163 HD
BRANCH  30  33
ATOM     33  C   UNL d   1      28.608 -13.368   4.064  0.00  0.00     0.032 A 
ATOM     34  C   UNL d   1      28.240 -12.096   4.527  0.00  0.00     0.017 A 
ATOM     35  C   UNL d   1      28.053 -11.877   5.897  0.00  0.00     0.001 A 
ATOM     36  C   UNL d   1      28.182 -12.935   6.798  0.00  0.00     0.000 A 
ATOM     37  C   UNL d   1      28.559 -14.197   6.339  0.00  0.00     0.001 A 
ATOM     38  C   UNL d   1      28.783 -14.412   4.976  0.00  0.00     0.017 A 
ENDBRANCH  30  33
ENDBRANCH  28  29
ENDBRANCH  23  28
ENDBRANCH   1  22
TORSDOF 14
ENDMDL
MODEL 7
REMARK VINA RESULT:    -6.267      2.517      7.332
REMARK INTER + INTRA:         -14.724
REMARK INTER:                 -10.443
REMARK INTRA:                  -4.281
REMARK CONF_INDEPENDENT:        4.176
REMARK UNBOUND:                -4.281
REMARK  14 active torsions:
REMARK  status: ('A' for Active; 'I' for Inactive)
REMARK    1  A    between atoms: C_2  and  C_3 
REMARK    2  A    between atoms: C_3  and  C_4 
REMARK    3  A    between atoms: C_4  and  N_5 
REMARK       I    between atoms: N_5  and  C_6 
REMARK    4  A    between atoms: C_6  and  C_8 
REMARK    5  A    between atoms: C_8  and  C_9 
REMARK    6  A    between atoms: C_8  and  N_18 
REMARK    7  A    between atoms: C_10  and  O_11 
REMARK    8  A    between atoms: C_13  and  O_14 
REMARK    9  A    between atoms: C_16  and  O_17 
REMARK   10  A    between atoms: N_18  and  C_19 
REMARK       I    between atoms: N_18  and  C_22 
REMARK   11  A    between atoms: C_19  and  C_20 
REMARK   12  A    between atoms: C_22  and  C_24 
REMARK   13  A    between atoms: C_24  and  N_25 
REMARK       I    between atoms: N_25  and  C_26 
REMARK   14  A    between atoms: C_26  and  C_28 
ROOT
ATOM      1  C   UNL d   1      27.119 -15.843  -2.376  0.00  0.00     0.212 C 
ENDROOT
BRANCH   1   2
ATOM      2  C   UNL d   1      25.794 -16.527  -1.655  0.00  0.00     0.225 C 
ATOM      3  N   UNL d   1      24.868 -15.860  -0.895  0.00  0.00    -0.261 NA
ATOM      4  H   UNL d   1      25.299 -15.124  -0.343  0.00  0.00     0.130 HD
ATOM      5  O   UNL d   1      25.565 -17.735  -1.596  0.00  0.00    -0.277 OA
BRANCH   3   6
ATOM      6  C   UNL d   1      24.001 -16.796  -0.161  0.00  0.00     0.095 C 
BRANCH   6   7
ATOM      7  C   UNL d   1      22.580 -16.740  -0.598  0.00  0.00     0.014 C 
BRANCH   7   8
ATOM      8  C   UNL d   1      22.032 -18.156  -0.679  0.00  0.00    -0.003 C 
ATOM      9  C   UNL d   1      23.192 -19.105  -0.519  0.00  0.00     0.005 C 
ENDBRANCH   7   8
ENDBRANCH   6   7
ENDBRANCH   3   6
ENDBRANCH   1   2
BRANCH   1  10
ATOM     10  C   UNL d   1      26.663 -14.576  -3.215  0.00  0.00     0.040 A 
ATOM     11  C   UNL d   1      26.220 -13.352  -2.658  0.00  0.00     0.080 A 
ATOM     12  C   UNL d   1      25.945 -12.204  -3.404  0.00  0.00     0.073 A 
ATOM     13  C   UNL d   1      25.987 -12.263  -4.774  0.00  0.00     0.071 A 
ATOM     14  C   UNL d   1      26.358 -13.431  -5.394  0.00  0.00     0.073 A 
ATOM     15  C   UNL d   1      26.739 -14.539  -4.628  0.00  0.00     0.080 A 
BRANCH  11  16
ATOM     16  O   UNL d   1      25.905 -13.149  -1.349  0.00  0.00    -0.360 OA
ATOM     17  H   UNL d   1      25.809 -14.046  -1.002  0.00  0.00     0.217 HD
ENDBRANCH  11  16
BRANCH  13  18
ATOM     18  O   UNL d   1      25.658 -11.196  -5.546  0.00  0.00    -0.361 OA
ATOM     19  H   UNL d   1      24.781 -10.890  -5.262  0.00  0.00     0.217 HD
ENDBRANCH  13  18
BRANCH  15  20
ATOM     20  O   UNL d   1      27.222 -15.575  -5.374  0.00  0.00    -0.360 OA
ATOM     21  H   UNL d   1      26.524 -15.876  -5.986  0.00  0.00     0.217 HD
ENDBRANCH  15  20
ENDBRANCH   1  10
BRANCH   1  22
ATOM     22  N   UNL d   1      28.468 -15.563  -1.521  0.00  0.00    -0.334 N 
ATOM     23  C   UNL d   1      28.385 -14.988  -0.210  0.00  0.00     0.238 C 
ATOM     24  O   UNL d   1      27.334 -14.568   0.268  0.00  0.00    -0.272 OA
BRANCH  22  25
ATOM     25  C   UNL d   1      29.864 -15.778  -2.028  0.00  0.00     0.127 C 
BRANCH  25  26
ATOM     26  C   UNL d   1      30.113 -15.205  -3.362  0.00  0.00     0.015 C 
ATOM     27  C   UNL d   1      30.152 -15.860  -4.700  0.00  0.00     0.006 C 
ENDBRANCH  25  26
ENDBRANCH  22  25
BRANCH  23  28
ATOM     28  C   UNL d   1      29.676 -15.154   0.677  0.00  0.00     0.225 C 
BRANCH  28  29
ATOM     29  N   UNL d   1      29.462 -14.825   2.076  0.00  0.00    -0.348 N 
ATOM     30  C   UNL d   1      28.934 -13.599   2.452  0.00  0.00     0.252 C 
ATOM     31  O   UNL d   1      28.640 -12.723   1.668  0.00  0.00    -0.268 OA
ATOM     32  H   UNL d   1      29.712 -15.528   2.760  0.00  0.00     0.163 HD
BRANCH  30  33
ATOM     33  C   UNL d   1      28.726 -13.405   3.917  0.00  0.00     0.032 A 
ATOM     34  C   UNL d   1      28.868 -14.490   4.793  0.00  0.00     0.017 A 
ATOM     35  C   UNL d   1      28.607 -14.326   6.159  0.00  0.00     0.001 A 
ATOM     36  C   UNL d   1      28.255 -13.071   6.657  0.00  0.00     0.000 A 
ATOM     37  C   UNL d   1      28.102 -11.994   5.783  0.00  0.00     0.001 A 
ATOM     38  C   UNL d   1      28.325 -12.162   4.414  0.00  0.00     0.017 A 
ENDBRANCH  30  33
ENDBRANCH  28  29
ENDBRANCH  23  28
ENDBRANCH   1  22
TORSDOF 14
ENDMDL
MODEL 8
REMARK VINA RESULT:    -6.140      4.257      8.853
REMARK INTER + INTRA:         -14.989
REMARK INTER:                 -10.316
REMARK INTRA:                  -4.673
REMARK CONF_INDEPENDENT:        4.176
REMARK UNBOUND:                -4.673
REMARK  14 active torsions:
REMARK  status: ('A' for Active; 'I' for Inactive)
REMARK    1  A    between atoms: C_2  and  C_3 
REMARK    2  A    between atoms: C_3  and  C_4 
REMARK    3  A    between atoms: C_4  and  N_5 
REMARK       I    between atoms: N_5  and  C_6 
REMARK    4  A    between atoms: C_6  and  C_8 
REMARK    5  A    between atoms: C_8  and  C_9 
REMARK    6  A    between atoms: C_8  and  N_18 
REMARK    7  A    between atoms: C_10  and  O_11 
REMARK    8  A    between atoms: C_13  and  O_14 
REMARK    9  A    between atoms: C_16  and  O_17 
REMARK   10  A    between atoms: N_18  and  C_19 
REMARK       I    between atoms: N_18  and  C_22 
REMARK   11  A    between atoms: C_19  and  C_20 
REMARK   12  A    between atoms: C_22  and  C_24 
REMARK   13  A    between atoms: C_24  and  N_25 
REMARK       I    between atoms: N_25  and  C_26 
REMARK   14  A    between atoms: C_26  and  C_28 
ROOT
ATOM      1  C   UNL d   1      26.675 -12.960  -5.245  0.00  0.00     0.212 C 
ENDROOT
BRANCH   1   2
ATOM      2  C   UNL d   1      26.094 -14.233  -4.358  0.00  0.00     0.225 C 
ATOM      3  N   UNL d   1      26.358 -14.467  -3.034  0.00  0.00    -0.261 NA
ATOM      4  H   UNL d   1      27.307 -14.199  -2.790  0.00  0.00     0.130 HD
ATOM      5  O   UNL d   1      25.478 -15.194  -4.819  0.00  0.00    -0.277 OA
BRANCH   3   6
ATOM      6  C   UNL d   1      25.946 -15.823  -2.635  0.00  0.00     0.095 C 
BRANCH   6   7
ATOM      7  C   UNL d   1      25.397 -15.884  -1.255  0.00  0.00     0.014 C 
BRANCH   7   8
ATOM      8  C   UNL d   1      24.930 -17.302  -0.971  0.00  0.00    -0.003 C 
ATOM      9  C   UNL d   1      23.491 -17.231  -0.529  0.00  0.00     0.005 C 
ENDBRANCH   7   8
ENDBRANCH   6   7
ENDBRANCH   3   6
ENDBRANCH   1   2
BRANCH   1  10
ATOM     10  C   UNL d   1      26.291 -11.601  -4.522  0.00  0.00     0.040 A 
ATOM     11  C   UNL d   1      26.678 -11.244  -3.208  0.00  0.00     0.080 A 
ATOM     12  C   UNL d   1      26.442  -9.994  -2.633  0.00  0.00     0.073 A 
ATOM     13  C   UNL d   1      25.693  -9.067  -3.313  0.00  0.00     0.071 A 
ATOM     14  C   UNL d   1      25.235  -9.357  -4.575  0.00  0.00     0.073 A 
ATOM     15  C   UNL d   1      25.576 -10.572  -5.181  0.00  0.00     0.080 A 
BRANCH  11  16
ATOM     16  O   UNL d   1      27.234 -12.085  -2.293  0.00  0.00    -0.360 OA
ATOM     17  H   UNL d   1      27.671 -12.751  -2.841  0.00  0.00     0.217 HD
ENDBRANCH  11  16
BRANCH  13  18
ATOM     18  O   UNL d   1      25.374  -7.866  -2.769  0.00  0.00    -0.361 OA
ATOM     19  H   UNL d   1      24.405  -7.790  -2.775  0.00  0.00     0.217 HD
ENDBRANCH  13  18
BRANCH  15  20
ATOM     20  O   UNL d   1      25.179 -10.659  -6.484  0.00  0.00    -0.360 OA
ATOM     21  H   UNL d   1      24.296 -11.075  -6.518  0.00  0.00     0.217 HD
ENDBRANCH  15  20
ENDBRANCH   1  10
BRANCH   1  22
ATOM     22  N   UNL d   1      28.206 -12.961  -5.781  0.00  0.00    -0.334 N 
ATOM     23  C   UNL d   1      29.284 -13.257  -4.884  0.00  0.00     0.238 C 
ATOM     24  O   UNL d   1      29.126 -13.391  -3.672  0.00  0.00    -0.272 OA
BRANCH  22  25
ATOM     25  C   UNL d   1      28.627 -12.581  -7.170  0.00  0.00     0.127 C 
BRANCH  25  26
ATOM     26  C   UNL d   1      27.704 -11.652  -7.844  0.00  0.00     0.015 C 
ATOM     27  C   UNL d   1      27.426 -11.453  -9.295  0.00  0.00     0.006 C 
ENDBRANCH  25  26
ENDBRANCH  22  25
BRANCH  23  28
ATOM     28  C   UNL d   1      30.644 -13.646  -5.577  0.00  0.00     0.225 C 
BRANCH  28  29
ATOM     29  N   UNL d   1      30.878 -15.078  -5.628  0.00  0.00    -0.348 N 
ATOM     30  C   UNL d   1      29.912 -15.947  -6.113  0.00  0.00     0.252 C 
ATOM     31  O   UNL d   1      28.821 -15.592  -6.499  0.00  0.00    -0.268 OA
ATOM     32  H   UNL d   1      31.775 -15.413  -5.298  0.00  0.00     0.163 HD
BRANCH  30  33
ATOM     33  C   UNL d   1      30.296 -17.389  -6.149  0.00  0.00     0.032 A 
ATOM     34  C   UNL d   1      30.233 -18.159  -4.979  0.00  0.00     0.017 A 
ATOM     35  C   UNL d   1      30.658 -19.493  -4.995  0.00  0.00     0.001 A 
ATOM     36  C   UNL d   1      31.097 -20.072  -6.186  0.00  0.00     0.000 A 
ATOM     37  C   UNL d   1      31.171 -19.302  -7.347  0.00  0.00     0.001 A 
ATOM     38  C   UNL d   1      30.783 -17.960  -7.328  0.00  0.00     0.017 A 
ENDBRANCH  30  33
ENDBRANCH  28  29
ENDBRANCH  23  28
ENDBRANCH   1  22
TORSDOF 14
ENDMDL
MODEL 9
REMARK VINA RESULT:    -5.834      4.247      8.853
REMARK INTER + INTRA:         -14.706
REMARK INTER:                 -10.010
REMARK INTRA:                  -4.696
REMARK CONF_INDEPENDENT:        4.176
REMARK UNBOUND:                -4.696
REMARK  14 active torsions:
REMARK  status: ('A' for Active; 'I' for Inactive)
REMARK    1  A    between atoms: C_2  and  C_3 
REMARK    2  A    between atoms: C_3  and  C_4 
REMARK    3  A    between atoms: C_4  and  N_5 
REMARK       I    between atoms: N_5  and  C_6 
REMARK    4  A    between atoms: C_6  and  C_8 
REMARK    5  A    between atoms: C_8  and  C_9 
REMARK    6  A    between atoms: C_8  and  N_18 
REMARK    7  A    between atoms: C_10  and  O_11 
REMARK    8  A    between atoms: C_13  and  O_14 
REMARK    9  A    between atoms: C_16  and  O_17 
REMARK   10  A    between atoms: N_18  and  C_19 
REMARK       I    between atoms: N_18  and  C_22 
REMARK   11  A    between atoms: C_19  and  C_20 
REMARK   12  A    between atoms: C_22  and  C_24 
REMARK   13  A    between atoms: C_24  and  N_25 
REMARK       I    between atoms: N_25  and  C_26 
REMARK   14  A    between atoms: C_26  and  C_28 
ROOT
ATOM      1  C   UNL d   1      26.865 -13.042  -5.281  0.00  0.00     0.212 C 
ENDROOT
BRANCH   1   2
ATOM      2  C   UNL d   1      26.136 -14.281  -4.457  0.00  0.00     0.225 C 
ATOM      3  N   UNL d   1      26.241 -14.511  -3.110  0.00  0.00    -0.261 NA
ATOM      4  H   UNL d   1      27.168 -14.280  -2.763  0.00  0.00     0.130 HD
ATOM      5  O   UNL d   1      25.535 -15.220  -4.979  0.00  0.00    -0.277 OA
BRANCH   3   6
ATOM      6  C   UNL d   1      25.730 -15.845  -2.752  0.00  0.00     0.095 C 
BRANCH   6   7
ATOM      7  C   UNL d   1      25.425 -15.983  -1.303  0.00  0.00     0.014 C 
BRANCH   7   8
ATOM      8  C   UNL d   1      23.994 -16.469  -1.144  0.00  0.00    -0.003 C 
ATOM      9  C   UNL d   1      24.041 -17.951  -0.870  0.00  0.00     0.005 C 
ENDBRANCH   7   8
ENDBRANCH   6   7
ENDBRANCH   3   6
ENDBRANCH   1   2
BRANCH   1  10
ATOM     10  C   UNL d   1      26.449 -11.659  -4.622  0.00  0.00     0.040 A 
ATOM     11  C   UNL d   1      25.618 -10.690  -5.230  0.00  0.00     0.080 A 
ATOM     12  C   UNL d   1      25.156  -9.538  -4.589  0.00  0.00     0.073 A 
ATOM     13  C   UNL d   1      25.608  -9.239  -3.329  0.00  0.00     0.071 A 
ATOM     14  C   UNL d   1      26.461 -10.105  -2.689  0.00  0.00     0.073 A 
ATOM     15  C   UNL d   1      26.824 -11.311  -3.302  0.00  0.00     0.080 A 
BRANCH  11  16
ATOM     16  O   UNL d   1      25.237 -10.684  -6.537  0.00  0.00    -0.360 OA
ATOM     17  H   UNL d   1      24.395 -11.159  -6.525  0.00  0.00     0.217 HD
ENDBRANCH  11  16
BRANCH  13  18
ATOM     18  O   UNL d   1      25.247  -8.097  -2.691  0.00  0.00    -0.361 OA
ATOM     19  H   UNL d   1      24.405  -8.269  -2.237  0.00  0.00     0.217 HD
ENDBRANCH  13  18
BRANCH  15  20
ATOM     20  O   UNL d   1      27.551 -12.134  -2.493  0.00  0.00    -0.360 OA
ATOM     21  H   UNL d   1      27.754 -12.956  -2.979  0.00  0.00     0.217 HD
ENDBRANCH  15  20
ENDBRANCH   1  10
BRANCH   1  22
ATOM     22  N   UNL d   1      28.447 -13.106  -5.631  0.00  0.00    -0.334 N 
ATOM     23  C   UNL d   1      29.376 -13.644  -4.680  0.00  0.00     0.238 C 
ATOM     24  O   UNL d   1      29.053 -13.953  -3.535  0.00  0.00    -0.272 OA
BRANCH  22  25
ATOM     25  C   UNL d   1      29.072 -12.551  -6.878  0.00  0.00     0.127 C 
BRANCH  25  26
ATOM     26  C   UNL d   1      28.104 -12.211  -7.935  0.00  0.00     0.015 C 
ATOM     27  C   UNL d   1      27.837 -10.912  -8.616  0.00  0.00     0.006 C 
ENDBRANCH  25  26
ENDBRANCH  22  25
BRANCH  23  28
ATOM     28  C   UNL d   1      30.780 -14.047  -5.269  0.00  0.00     0.225 C 
BRANCH  28  29
ATOM     29  N   UNL d   1      30.979 -15.483  -5.357  0.00  0.00    -0.348 N 
ATOM     30  C   UNL d   1      30.066 -16.296  -6.011  0.00  0.00     0.252 C 
ATOM     31  O   UNL d   1      29.048 -15.888  -6.525  0.00  0.00    -0.268 OA
ATOM     32  H   UNL d   1      31.813 -15.862  -4.925  0.00  0.00     0.163 HD
BRANCH  30  33
ATOM     33  C   UNL d   1      30.411 -17.747  -6.064  0.00  0.00     0.032 A 
ATOM     34  C   UNL d   1      30.779 -18.334  -7.283  0.00  0.00     0.017 A 
ATOM     35  C   UNL d   1      31.037 -19.709  -7.349  0.00  0.00     0.001 A 
ATOM     36  C   UNL d   1      30.977 -20.487  -6.191  0.00  0.00     0.000 A 
ATOM     37  C   UNL d   1      30.601 -19.904  -4.981  0.00  0.00     0.001 A 
ATOM     38  C   UNL d   1      30.306 -18.540  -4.918  0.00  0.00     0.017 A 
ENDBRANCH  30  33
ENDBRANCH  28  29
ENDBRANCH  23  28
ENDBRANCH   1  22
TORSDOF 14
ENDMDL
