MODEL 1
REMARK VINA RESULT:    -6.977      0.000      0.000
REMARK INTER + INTRA:         -11.408
REMARK INTER:                 -10.259
REMARK INTRA:                  -1.149
REMARK CONF_INDEPENDENT:        3.281
REMARK UNBOUND:                -1.149
REMARK  11 active torsions:
REMARK  status: ('A' for Active; 'I' for Inactive)
REMARK    1  A    between atoms: O_2  and  C_3 
REMARK    2  A    between atoms: C_5  and  C_6 
REMARK    3  A    between atoms: C_7  and  C_8 
REMARK       I    between atoms: C_8  and  N_10 
REMARK    4  A    between atoms: N_10  and  N_11 
REMARK    5  A    between atoms: N_11  and  C_12 
REMARK    6  A    between atoms: C_12  and  N_14 
REMARK    7  A    between atoms: N_14  and  C_15 
REMARK    8  A    between atoms: C_15  and  C_16 
REMARK    9  A    between atoms: C_16  and  C_17 
REMARK   10  A    between atoms: C_21  and  O_22 
REMARK   11  A    between atoms: C_24  and  O_25 
ROOT
ATOM      1  C   UNL d   1      25.408 -16.287  -1.215  0.00  0.00     0.259 C 
ATOM      2  O   UNL d   1      25.237 -15.723  -0.151  0.00  0.00    -0.267 OA
ATOM      3  N   UNL d   1      24.882 -17.544  -1.509  0.00  0.00    -0.264 N 
ATOM      4  H   UNL d   1      25.016 -18.026  -2.394  0.00  0.00     0.190 HD
ENDROOT
BRANCH   1   5
ATOM      5  C   UNL d   1      26.219 -15.671  -2.335  0.00  0.00     0.076 C 
ATOM      6  C   UNL d   1      25.661 -15.186  -3.471  0.00  0.00     0.017 C 
BRANCH   6   7
ATOM      7  C   UNL d   1      26.381 -14.500  -4.596  0.00  0.00    -0.031 A 
ATOM      8  C   UNL d   1      26.258 -13.105  -4.840  0.00  0.00     0.051 A 
ATOM      9  C   UNL d   1      27.100 -12.398  -5.754  0.00  0.00     0.105 A 
ATOM     10  C   UNL d   1      28.075 -13.136  -6.455  0.00  0.00     0.135 A 
ATOM     11  C   UNL d   1      28.146 -14.541  -6.284  0.00  0.00     0.105 A 
ATOM     12  C   UNL d   1      27.289 -15.200  -5.391  0.00  0.00     0.051 A 
BRANCH   9  13
ATOM     13  O   UNL d   1      27.039 -11.021  -5.622  0.00  0.00    -0.353 OA
ATOM     14  C   UNL d   1      25.813 -10.306  -5.784  0.00  0.00     0.210 C 
ENDBRANCH   9  13
BRANCH  10  15
ATOM     15  O   UNL d   1      29.085 -12.690  -7.240  0.00  0.00    -0.351 OA
ATOM     16  C   UNL d   1      29.994 -11.729  -6.835  0.00  0.00     0.210 C 
ENDBRANCH  10  15
BRANCH  11  17
ATOM     17  O   UNL d   1      29.058 -15.403  -6.875  0.00  0.00    -0.353 OA
ATOM     18  C   UNL d   1      30.174 -15.844  -6.102  0.00  0.00     0.210 C 
ENDBRANCH  11  17
ENDBRANCH   6   7
ENDBRANCH   1   5
BRANCH   3  19
ATOM     19  N   UNL d   1      24.065 -18.237  -0.546  0.00  0.00    -0.274 N 
ATOM     20  H   UNL d   1      24.544 -18.947   0.001  0.00  0.00     0.189 HD
BRANCH  19  21
ATOM     21  C   UNL d   1      22.715 -17.919  -0.400  0.00  0.00     0.186 C 
ATOM     22  S   UNL d   1      22.155 -16.334  -0.520  0.00  0.00    -0.040 SA
BRANCH  21  23
ATOM     23  N   UNL d   1      21.887 -19.013  -0.141  0.00  0.00    -0.366 N 
ATOM     24  H   UNL d   1      22.137 -19.667   0.588  0.00  0.00     0.161 HD
BRANCH  23  25
ATOM     25  C   UNL d   1      20.695 -19.326  -0.948  0.00  0.00     0.122 C 
BRANCH  25  26
ATOM     26  C   UNL d   1      19.370 -19.444  -0.184  0.00  0.00     0.023 C 
BRANCH  26  27
ATOM     27  C   UNL d   1      19.401 -20.582   0.871  0.00  0.00    -0.021 C 
ATOM     28  C   UNL d   1      19.813 -20.074   2.256  0.00  0.00     0.009 C 
ATOM     29  C   UNL d   1      18.031 -21.257   0.977  0.00  0.00     0.009 C 
ENDBRANCH  26  27
ENDBRANCH  25  26
ENDBRANCH  23  25
ENDBRANCH  21  23
ENDBRANCH  19  21
ENDBRANCH   3  19
TORSDOF 11
ENDMDL
MODEL 2
REMARK VINA RESULT:    -6.622      1.199      2.922
REMARK INTER + INTRA:         -11.019
REMARK INTER:                  -9.903
REMARK INTRA:                  -1.116
REMARK CONF_INDEPENDENT:        3.281
REMARK UNBOUND:                -1.116
REMARK  11 active torsions:
REMARK  status: ('A' for Active; 'I' for Inactive)
REMARK    1  A    between atoms: O_2  and  C_3 
REMARK    2  A    between atoms: C_5  and  C_6 
REMARK    3  A    between atoms: C_7  and  C_8 
REMARK       I    between atoms: C_8  and  N_10 
REMARK    4  A    between atoms: N_10  and  N_11 
REMARK    5  A    between atoms: N_11  and  C_12 
REMARK    6  A    between atoms: C_12  and  N_14 
REMARK    7  A    between atoms: N_14  and  C_15 
REMARK    8  A    between atoms: C_15  and  C_16 
REMARK    9  A    between atoms: C_16  and  C_17 
REMARK   10  A    between atoms: C_21  and  O_22 
REMARK   11  A    between atoms: C_24  and  O_25 
ROOT
ATOM      1  C   UNL d   1      24.997 -16.303  -1.330  0.00  0.00     0.259 C 
ATOM      2  O   UNL d   1      25.390 -16.922  -0.360  0.00  0.00    -0.267 OA
ATOM      3  N   UNL d   1      23.648 -16.135  -1.637  0.00  0.00    -0.264 N 
ATOM      4  H   UNL d   1      23.306 -15.619  -2.443  0.00  0.00     0.190 HD
ENDROOT
BRANCH   1   5
ATOM      5  C   UNL d   1      25.947 -15.647  -2.309  0.00  0.00     0.076 C 
ATOM      6  C   UNL d   1      25.539 -14.784  -3.271  0.00  0.00     0.017 C 
BRANCH   6   7
ATOM      7  C   UNL d   1      26.417 -14.039  -4.234  0.00  0.00    -0.031 A 
ATOM      8  C   UNL d   1      27.499 -14.661  -4.914  0.00  0.00     0.051 A 
ATOM      9  C   UNL d   1      28.200 -14.040  -5.994  0.00  0.00     0.105 A 
ATOM     10  C   UNL d   1      27.803 -12.742  -6.374  0.00  0.00     0.135 A 
ATOM     11  C   UNL d   1      26.784 -12.079  -5.644  0.00  0.00     0.105 A 
ATOM     12  C   UNL d   1      26.134 -12.717  -4.579  0.00  0.00     0.051 A 
BRANCH   9  13
ATOM     13  O   UNL d   1      28.995 -14.908  -6.721  0.00  0.00    -0.353 OA
ATOM     14  C   UNL d   1      29.709 -15.975  -6.093  0.00  0.00     0.210 C 
ENDBRANCH   9  13
BRANCH  10  15
ATOM     15  O   UNL d   1      28.186 -12.010  -7.448  0.00  0.00    -0.351 OA
ATOM     16  C   UNL d   1      27.389 -11.824  -8.563  0.00  0.00     0.210 C 
ENDBRANCH  10  15
BRANCH  11  17
ATOM     17  O   UNL d   1      26.264 -10.820  -5.904  0.00  0.00    -0.353 OA
ATOM     18  C   UNL d   1      26.459  -9.791  -4.934  0.00  0.00     0.210 C 
ENDBRANCH  11  17
ENDBRANCH   6   7
ENDBRANCH   1   5
BRANCH   3  19
ATOM     19  N   UNL d   1      22.630 -16.681  -0.777  0.00  0.00    -0.274 N 
ATOM     20  H   UNL d   1      22.187 -16.017  -0.149  0.00  0.00     0.189 HD
BRANCH  19  21
ATOM     21  C   UNL d   1      22.298 -18.035  -0.840  0.00  0.00     0.186 C 
ATOM     22  S   UNL d   1      23.427 -19.245  -0.521  0.00  0.00    -0.040 SA
BRANCH  21  23
ATOM     23  N   UNL d   1      20.971 -18.290  -1.194  0.00  0.00    -0.366 N 
ATOM     24  H   UNL d   1      20.392 -17.534  -1.533  0.00  0.00     0.161 HD
BRANCH  23  25
ATOM     25  C   UNL d   1      20.329 -19.602  -1.009  0.00  0.00     0.122 C 
BRANCH  25  26
ATOM     26  C   UNL d   1      18.872 -19.584  -0.527  0.00  0.00     0.023 C 
BRANCH  26  27
ATOM     27  C   UNL d   1      18.730 -20.101   0.930  0.00  0.00    -0.021 C 
ATOM     28  C   UNL d   1      18.328 -21.578   0.980  0.00  0.00     0.009 C 
ATOM     29  C   UNL d   1      20.042 -19.917   1.698  0.00  0.00     0.009 C 
ENDBRANCH  26  27
ENDBRANCH  25  26
ENDBRANCH  23  25
ENDBRANCH  21  23
ENDBRANCH  19  21
ENDBRANCH   3  19
TORSDOF 11
ENDMDL
MODEL 3
REMARK VINA RESULT:    -6.538      1.951      3.459
REMARK INTER + INTRA:         -11.239
REMARK INTER:                  -9.820
REMARK INTRA:                  -1.419
REMARK CONF_INDEPENDENT:        3.281
REMARK UNBOUND:                -1.419
REMARK  11 active torsions:
REMARK  status: ('A' for Active; 'I' for Inactive)
REMARK    1  A    between atoms: O_2  and  C_3 
REMARK    2  A    between atoms: C_5  and  C_6 
REMARK    3  A    between atoms: C_7  and  C_8 
REMARK       I    between atoms: C_8  and  N_10 
REMARK    4  A    between atoms: N_10  and  N_11 
REMARK    5  A    between atoms: N_11  and  C_12 
REMARK    6  A    between atoms: C_12  and  N_14 
REMARK    7  A    between atoms: N_14  and  C_15 
REMARK    8  A    between atoms: C_15  and  C_16 
REMARK    9  A    between atoms: C_16  and  C_17 
REMARK   10  A    between atoms: C_21  and  O_22 
REMARK   11  A    between atoms: C_24  and  O_25 
ROOT
ATOM      1  C   UNL d   1      25.253 -15.214  -3.011  0.00  0.00     0.259 C 
ATOM      2  O   UNL d   1      24.410 -14.410  -3.359  0.00  0.00    -0.267 OA
ATOM      3  N   UNL d   1      25.026 -16.192  -2.044  0.00  0.00    -0.264 N 
ATOM      4  H   UNL d   1      25.721 -16.871  -1.744  0.00  0.00     0.190 HD
ENDROOT
BRANCH   1   5
ATOM      5  C   UNL d   1      26.647 -15.231  -3.601  0.00  0.00     0.076 C 
ATOM      6  C   UNL d   1      26.898 -14.992  -4.912  0.00  0.00     0.017 C 
BRANCH   6   7
ATOM      7  C   UNL d   1      28.248 -14.922  -5.564  0.00  0.00    -0.031 A 
ATOM      8  C   UNL d   1      29.240 -15.921  -5.369  0.00  0.00     0.051 A 
ATOM      9  C   UNL d   1      30.437 -15.992  -6.149  0.00  0.00     0.105 A 
ATOM     10  C   UNL d   1      30.637 -15.006  -7.136  0.00  0.00     0.135 A 
ATOM     11  C   UNL d   1      29.696 -13.956  -7.277  0.00  0.00     0.105 A 
ATOM     12  C   UNL d   1      28.544 -13.912  -6.480  0.00  0.00     0.051 A 
BRANCH   9  13
ATOM     13  O   UNL d   1      31.115 -17.193  -6.028  0.00  0.00    -0.353 OA
ATOM     14  C   UNL d   1      31.001 -18.220  -7.015  0.00  0.00     0.210 C 
ENDBRANCH   9  13
BRANCH  10  15
ATOM     15  O   UNL d   1      31.587 -14.941  -8.100  0.00  0.00    -0.351 OA
ATOM     16  C   UNL d   1      32.591 -13.990  -8.114  0.00  0.00     0.210 C 
ENDBRANCH  10  15
BRANCH  11  17
ATOM     17  O   UNL d   1      29.733 -12.930  -8.211  0.00  0.00    -0.353 OA
ATOM     18  C   UNL d   1      28.735 -11.912  -8.143  0.00  0.00     0.210 C 
ENDBRANCH  11  17
ENDBRANCH   6   7
ENDBRANCH   1   5
BRANCH   3  19
ATOM     19  N   UNL d   1      23.736 -16.312  -1.416  0.00  0.00    -0.274 N 
ATOM     20  H   UNL d   1      23.073 -15.574  -1.635  0.00  0.00     0.189 HD
BRANCH  19  21
ATOM     21  C   UNL d   1      23.451 -17.391  -0.578  0.00  0.00     0.186 C 
ATOM     22  S   UNL d   1      24.658 -18.196   0.279  0.00  0.00    -0.040 SA
BRANCH  21  23
ATOM     23  N   UNL d   1      22.100 -17.739  -0.522  0.00  0.00    -0.366 N 
ATOM     24  H   UNL d   1      21.405 -17.020  -0.374  0.00  0.00     0.161 HD
BRANCH  23  25
ATOM     25  C   UNL d   1      21.628 -19.134  -0.575  0.00  0.00     0.122 C 
BRANCH  25  26
ATOM     26  C   UNL d   1      20.114 -19.343  -0.444  0.00  0.00     0.023 C 
BRANCH  26  27
ATOM     27  C   UNL d   1      19.756 -20.340   0.692  0.00  0.00    -0.021 C 
ATOM     28  C   UNL d   1      19.913 -19.713   2.080  0.00  0.00     0.009 C 
ATOM     29  C   UNL d   1      18.320 -20.846   0.534  0.00  0.00     0.009 C 
ENDBRANCH  26  27
ENDBRANCH  25  26
ENDBRANCH  23  25
ENDBRANCH  21  23
ENDBRANCH  19  21
ENDBRANCH   3  19
TORSDOF 11
ENDMDL
MODEL 4
REMARK VINA RESULT:    -6.512      1.980      2.739
REMARK INTER + INTRA:         -11.177
REMARK INTER:                  -9.793
REMARK INTRA:                  -1.384
REMARK CONF_INDEPENDENT:        3.281
REMARK UNBOUND:                -1.384
REMARK  11 active torsions:
REMARK  status: ('A' for Active; 'I' for Inactive)
REMARK    1  A    between atoms: O_2  and  C_3 
REMARK    2  A    between atoms: C_5  and  C_6 
REMARK    3  A    between atoms: C_7  and  C_8 
REMARK       I    between atoms: C_8  and  N_10 
REMARK    4  A    between atoms: N_10  and  N_11 
REMARK    5  A    between atoms: N_11  and  C_12 
REMARK    6  A    between atoms: C_12  and  N_14 
REMARK    7  A    between atoms: N_14  and  C_15 
REMARK    8  A    between atoms: C_15  and  C_16 
REMARK    9  A    between atoms: C_16  and  C_17 
REMARK   10  A    between atoms: C_21  and  O_22 
REMARK   11  A    between atoms: C_24  and  O_25 
ROOT
ATOM      1  C   UNL d   1      25.357 -15.120  -3.376  0.00  0.00     0.259 C 
ATOM      2  O   UNL d   1      24.571 -14.212  -3.561  0.00  0.00    -0.267 OA
ATOM      3  N   UNL d   1      25.157 -16.127  -2.432  0.00  0.00    -0.264 N 
ATOM      4  H   UNL d   1      25.805 -16.892  -2.267  0.00  0.00     0.190 HD
ENDROOT
BRANCH   1   5
ATOM      5  C   UNL d   1      26.645 -15.248  -4.161  0.00  0.00     0.076 C 
ATOM      6  C   UNL d   1      26.899 -14.535  -5.286  0.00  0.00     0.017 C 
BRANCH   6   7
ATOM      7  C   UNL d   1      28.170 -14.549  -6.084  0.00  0.00    -0.031 A 
ATOM      8  C   UNL d   1      28.534 -13.486  -6.954  0.00  0.00     0.051 A 
ATOM      9  C   UNL d   1      29.831 -13.372  -7.544  0.00  0.00     0.105 A 
ATOM     10  C   UNL d   1      30.773 -14.380  -7.259  0.00  0.00     0.135 A 
ATOM     11  C   UNL d   1      30.391 -15.490  -6.463  0.00  0.00     0.105 A 
ATOM     12  C   UNL d   1      29.103 -15.573  -5.918  0.00  0.00     0.051 A 
BRANCH   9  13
ATOM     13  O   UNL d   1      30.090 -12.129  -8.096  0.00  0.00    -0.353 OA
ATOM     14  C   UNL d   1      30.006 -11.901  -9.504  0.00  0.00     0.210 C 
ENDBRANCH   9  13
BRANCH  10  15
ATOM     15  O   UNL d   1      32.095 -14.425  -7.552  0.00  0.00    -0.351 OA
ATOM     16  C   UNL d   1      32.594 -14.284  -8.835  0.00  0.00     0.210 C 
ENDBRANCH  10  15
BRANCH  11  17
ATOM     17  O   UNL d   1      31.201 -16.546  -6.071  0.00  0.00    -0.353 OA
ATOM     18  C   UNL d   1      30.779 -17.875  -6.375  0.00  0.00     0.210 C 
ENDBRANCH  11  17
ENDBRANCH   6   7
ENDBRANCH   1   5
BRANCH   3  19
ATOM     19  N   UNL d   1      23.960 -16.149  -1.631  0.00  0.00    -0.274 N 
ATOM     20  H   UNL d   1      23.338 -15.354  -1.753  0.00  0.00     0.189 HD
BRANCH  19  21
ATOM     21  C   UNL d   1      23.705 -17.212  -0.764  0.00  0.00     0.186 C 
ATOM     22  S   UNL d   1      24.933 -17.961   0.112  0.00  0.00    -0.040 SA
BRANCH  21  23
ATOM     23  N   UNL d   1      22.364 -17.596  -0.699  0.00  0.00    -0.366 N 
ATOM     24  H   UNL d   1      21.640 -16.909  -0.861  0.00  0.00     0.161 HD
BRANCH  23  25
ATOM     25  C   UNL d   1      21.934 -18.949  -0.309  0.00  0.00     0.122 C 
BRANCH  25  26
ATOM     26  C   UNL d   1      20.451 -19.280  -0.525  0.00  0.00     0.023 C 
BRANCH  26  27
ATOM     27  C   UNL d   1      19.912 -20.275   0.538  0.00  0.00    -0.021 C 
ATOM     28  C   UNL d   1      19.982 -19.699   1.956  0.00  0.00     0.009 C 
ATOM     29  C   UNL d   1      18.463 -20.660   0.230  0.00  0.00     0.009 C 
ENDBRANCH  26  27
ENDBRANCH  25  26
ENDBRANCH  23  25
ENDBRANCH  21  23
ENDBRANCH  19  21
ENDBRANCH   3  19
TORSDOF 11
ENDMDL
MODEL 5
REMARK VINA RESULT:    -6.483      6.202      9.955
REMARK INTER + INTRA:         -11.165
REMARK INTER:                  -9.765
REMARK INTRA:                  -1.400
REMARK CONF_INDEPENDENT:        3.281
REMARK UNBOUND:                -1.400
REMARK  11 active torsions:
REMARK  status: ('A' for Active; 'I' for Inactive)
REMARK    1  A    between atoms: O_2  and  C_3 
REMARK    2  A    between atoms: C_5  and  C_6 
REMARK    3  A    between atoms: C_7  and  C_8 
REMARK       I    between atoms: C_8  and  N_10 
REMARK    4  A    between atoms: N_10  and  N_11 
REMARK    5  A    between atoms: N_11  and  C_12 
REMARK    6  A    between atoms: C_12  and  N_14 
REMARK    7  A    between atoms: N_14  and  C_15 
REMARK    8  A    between atoms: C_15  and  C_16 
REMARK    9  A    between atoms: C_16  and  C_17 
REMARK   10  A    between atoms: C_21  and  O_22 
REMARK   11  A    between atoms: C_24  and  O_25 
ROOT
ATOM      1  C   UNL d   1      24.530  -8.066  -4.871  0.00  0.00     0.259 C 
ATOM      2  O   UNL d   1      25.201  -7.312  -4.193  0.00  0.00    -0.267 OA
ATOM      3  N   UNL d   1      23.199  -7.815  -5.205  0.00  0.00    -0.264 N 
ATOM      4  H   UNL d   1      22.627  -8.436  -5.771  0.00  0.00     0.190 HD
ENDROOT
BRANCH   1   5
ATOM      5  C   UNL d   1      25.080  -9.363  -5.423  0.00  0.00     0.076 C 
ATOM      6  C   UNL d   1      25.572 -10.352  -4.638  0.00  0.00     0.017 C 
BRANCH   6   7
ATOM      7  C   UNL d   1      26.071 -11.691  -5.097  0.00  0.00    -0.031 A 
ATOM      8  C   UNL d   1      27.173 -11.830  -5.983  0.00  0.00     0.051 A 
ATOM      9  C   UNL d   1      27.803 -13.085  -6.252  0.00  0.00     0.105 A 
ATOM     10  C   UNL d   1      27.280 -14.231  -5.619  0.00  0.00     0.135 A 
ATOM     11  C   UNL d   1      26.127 -14.115  -4.803  0.00  0.00     0.105 A 
ATOM     12  C   UNL d   1      25.528 -12.868  -4.579  0.00  0.00     0.051 A 
BRANCH   9  13
ATOM     13  O   UNL d   1      29.031 -12.974  -6.881  0.00  0.00    -0.353 OA
ATOM     14  C   UNL d   1      29.818 -14.124  -7.197  0.00  0.00     0.210 C 
ENDBRANCH   9  13
BRANCH  10  15
ATOM     15  O   UNL d   1      27.782 -15.489  -5.576  0.00  0.00    -0.351 OA
ATOM     16  C   UNL d   1      28.695 -15.910  -4.626  0.00  0.00     0.210 C 
ENDBRANCH  10  15
BRANCH  11  17
ATOM     17  O   UNL d   1      25.509 -15.134  -4.093  0.00  0.00    -0.353 OA
ATOM     18  C   UNL d   1      25.088 -14.872  -2.754  0.00  0.00     0.210 C 
ENDBRANCH  11  17
ENDBRANCH   6   7
ENDBRANCH   1   5
BRANCH   3  19
ATOM     19  N   UNL d   1      22.553  -6.604  -4.771  0.00  0.00    -0.274 N 
ATOM     20  H   UNL d   1      22.869  -6.236  -3.878  0.00  0.00     0.189 HD
BRANCH  19  21
ATOM     21  C   UNL d   1      21.570  -6.002  -5.557  0.00  0.00     0.186 C 
ATOM     22  S   UNL d   1      20.594  -4.761  -4.968  0.00  0.00    -0.040 SA
BRANCH  21  23
ATOM     23  N   UNL d   1      21.467  -6.519  -6.850  0.00  0.00    -0.366 N 
ATOM     24  H   UNL d   1      21.849  -7.433  -7.054  0.00  0.00     0.161 HD
BRANCH  23  25
ATOM     25  C   UNL d   1      20.905  -5.755  -7.977  0.00  0.00     0.122 C 
BRANCH  25  26
ATOM     26  C   UNL d   1      20.256  -6.578  -9.099  0.00  0.00     0.023 C 
BRANCH  26  27
ATOM     27  C   UNL d   1      18.726  -6.743  -8.893  0.00  0.00    -0.021 C 
ATOM     28  C   UNL d   1      18.398  -7.576  -7.650  0.00  0.00     0.009 C 
ATOM     29  C   UNL d   1      18.047  -5.376  -8.769  0.00  0.00     0.009 C 
ENDBRANCH  26  27
ENDBRANCH  25  26
ENDBRANCH  23  25
ENDBRANCH  21  23
ENDBRANCH  19  21
ENDBRANCH   3  19
TORSDOF 11
ENDMDL
MODEL 6
REMARK VINA RESULT:    -6.281      1.729      3.128
REMARK INTER + INTRA:         -11.046
REMARK INTER:                  -9.562
REMARK INTRA:                  -1.484
REMARK CONF_INDEPENDENT:        3.281
REMARK UNBOUND:                -1.484
REMARK  11 active torsions:
REMARK  status: ('A' for Active; 'I' for Inactive)
REMARK    1  A    between atoms: O_2  and  C_3 
REMARK    2  A    between atoms: C_5  and  C_6 
REMARK    3  A    between atoms: C_7  and  C_8 
REMARK       I    between atoms: C_8  and  N_10 
REMARK    4  A    between atoms: N_10  and  N_11 
REMARK    5  A    between atoms: N_11  and  C_12 
REMARK    6  A    between atoms: C_12  and  N_14 
REMARK    7  A    between atoms: N_14  and  C_15 
REMARK    8  A    between atoms: C_15  and  C_16 
REMARK    9  A    between atoms: C_16  and  C_17 
REMARK   10  A    between atoms: C_21  and  O_22 
REMARK   11  A    between atoms: C_24  and  O_25 
ROOT
ATOM      1  C   UNL d   1      25.062 -15.396  -2.901  0.00  0.00     0.259 C 
ATOM      2  O   UNL d   1      24.128 -14.627  -2.774  0.00  0.00    -0.267 OA
ATOM      3  N   UNL d   1      25.214 -16.549  -2.132  0.00  0.00    -0.264 N 
ATOM      4  H   UNL d   1      25.989 -17.201  -2.228  0.00  0.00     0.190 HD
ENDROOT
BRANCH   1   5
ATOM      5  C   UNL d   1      26.160 -15.173  -3.918  0.00  0.00     0.076 C 
ATOM      6  C   UNL d   1      26.376 -13.980  -4.524  0.00  0.00     0.017 C 
BRANCH   6   7
ATOM      7  C   UNL d   1      27.480 -13.655  -5.488  0.00  0.00    -0.031 A 
ATOM      8  C   UNL d   1      28.586 -14.522  -5.699  0.00  0.00     0.051 A 
ATOM      9  C   UNL d   1      29.522 -14.344  -6.765  0.00  0.00     0.105 A 
ATOM     10  C   UNL d   1      29.339 -13.241  -7.622  0.00  0.00     0.135 A 
ATOM     11  C   UNL d   1      28.291 -12.322  -7.366  0.00  0.00     0.105 A 
ATOM     12  C   UNL d   1      27.405 -12.522  -6.299  0.00  0.00     0.051 A 
BRANCH   9  13
ATOM     13  O   UNL d   1      30.328 -15.446  -6.993  0.00  0.00    -0.353 OA
ATOM     14  C   UNL d   1      30.293 -16.591  -6.140  0.00  0.00     0.210 C 
ENDBRANCH   9  13
BRANCH  10  15
ATOM     15  O   UNL d   1      29.974 -12.943  -8.782  0.00  0.00    -0.351 OA
ATOM     16  C   UNL d   1      31.162 -12.236  -8.837  0.00  0.00     0.210 C 
ENDBRANCH  10  15
BRANCH  11  17
ATOM     17  O   UNL d   1      27.963 -11.207  -8.125  0.00  0.00    -0.353 OA
ATOM     18  C   UNL d   1      27.517 -11.407  -9.466  0.00  0.00     0.210 C 
ENDBRANCH  11  17
ENDBRANCH   6   7
ENDBRANCH   1   5
BRANCH   3  19
ATOM     19  N   UNL d   1      24.229 -16.903  -1.143  0.00  0.00    -0.274 N 
ATOM     20  H   UNL d   1      23.436 -16.272  -1.071  0.00  0.00     0.189 HD
BRANCH  19  21
ATOM     21  C   UNL d   1      24.386 -18.049  -0.363  0.00  0.00     0.186 C 
ATOM     22  S   UNL d   1      25.889 -18.521   0.235  0.00  0.00    -0.040 SA
BRANCH  21  23
ATOM     23  N   UNL d   1      23.205 -18.759  -0.134  0.00  0.00    -0.366 N 
ATOM     24  H   UNL d   1      23.252 -19.709   0.208  0.00  0.00     0.161 HD
BRANCH  23  25
ATOM     25  C   UNL d   1      21.872 -18.223  -0.456  0.00  0.00     0.122 C 
BRANCH  25  26
ATOM     26  C   UNL d   1      20.810 -19.249  -0.873  0.00  0.00     0.023 C 
BRANCH  26  27
ATOM     27  C   UNL d   1      20.304 -20.090   0.330  0.00  0.00    -0.021 C 
ATOM     28  C   UNL d   1      20.419 -19.330   1.654  0.00  0.00     0.009 C 
ATOM     29  C   UNL d   1      18.846 -20.508   0.121  0.00  0.00     0.009 C 
ENDBRANCH  26  27
ENDBRANCH  25  26
ENDBRANCH  23  25
ENDBRANCH  21  23
ENDBRANCH  19  21
ENDBRANCH   3  19
TORSDOF 11
ENDMDL
MODEL 7
REMARK VINA RESULT:    -6.275      6.117      9.888
REMARK INTER + INTRA:         -11.314
REMARK INTER:                  -9.556
REMARK INTRA:                  -1.758
REMARK CONF_INDEPENDENT:        3.281
REMARK UNBOUND:                -1.758
REMARK  11 active torsions:
REMARK  status: ('A' for Active; 'I' for Inactive)
REMARK    1  A    between atoms: O_2  and  C_3 
REMARK    2  A    between atoms: C_5  and  C_6 
REMARK    3  A    between atoms: C_7  and  C_8 
REMARK       I    between atoms: C_8  and  N_10 
REMARK    4  A    between atoms: N_10  and  N_11 
REMARK    5  A    between atoms: N_11  and  C_12 
REMARK    6  A    between atoms: C_12  and  N_14 
REMARK    7  A    between atoms: N_14  and  C_15 
REMARK    8  A    between atoms: C_15  and  C_16 
REMARK    9  A    between atoms: C_16  and  C_17 
REMARK   10  A    between atoms: C_21  and  O_22 
REMARK   11  A    between atoms: C_24  and  O_25 
ROOT
ATOM      1  C   UNL d   1      24.305  -7.980  -6.031  0.00  0.00     0.259 C 
ATOM      2  O   UNL d   1      24.181  -7.311  -7.039  0.00  0.00    -0.267 OA
ATOM      3  N   UNL d   1      23.933  -7.533  -4.764  0.00  0.00    -0.264 N 
ATOM      4  H   UNL d   1      24.030  -8.083  -3.914  0.00  0.00     0.190 HD
ENDROOT
BRANCH   1   5
ATOM      5  C   UNL d   1      24.880  -9.380  -6.057  0.00  0.00     0.076 C 
ATOM      6  C   UNL d   1      25.647  -9.882  -5.058  0.00  0.00     0.017 C 
BRANCH   6   7
ATOM      7  C   UNL d   1      26.199 -11.276  -4.971  0.00  0.00    -0.031 A 
ATOM      8  C   UNL d   1      25.525 -12.319  -4.280  0.00  0.00     0.051 A 
ATOM      9  C   UNL d   1      25.912 -13.692  -4.374  0.00  0.00     0.105 A 
ATOM     10  C   UNL d   1      27.029 -14.006  -5.174  0.00  0.00     0.135 A 
ATOM     11  C   UNL d   1      27.761 -12.962  -5.796  0.00  0.00     0.105 A 
ATOM     12  C   UNL d   1      27.358 -11.626  -5.663  0.00  0.00     0.051 A 
BRANCH   9  13
ATOM     13  O   UNL d   1      24.963 -14.578  -3.894  0.00  0.00    -0.353 OA
ATOM     14  C   UNL d   1      25.208 -15.388  -2.742  0.00  0.00     0.210 C 
ENDBRANCH   9  13
BRANCH  10  15
ATOM     15  O   UNL d   1      27.496 -15.220  -5.554  0.00  0.00    -0.351 OA
ATOM     16  C   UNL d   1      28.669 -15.769  -5.068  0.00  0.00     0.210 C 
ENDBRANCH  10  15
BRANCH  11  17
ATOM     17  O   UNL d   1      28.860 -13.105  -6.630  0.00  0.00    -0.353 OA
ATOM     18  C   UNL d   1      28.732 -12.709  -7.995  0.00  0.00     0.210 C 
ENDBRANCH  11  17
ENDBRANCH   6   7
ENDBRANCH   1   5
BRANCH   3  19
ATOM     19  N   UNL d   1      23.345  -6.230  -4.593  0.00  0.00    -0.274 N 
ATOM     20  H   UNL d   1      23.935  -5.541  -4.135  0.00  0.00     0.189 HD
BRANCH  19  21
ATOM     21  C   UNL d   1      22.051  -5.969  -5.048  0.00  0.00     0.186 C 
ATOM     22  S   UNL d   1      20.948  -5.082  -4.134  0.00  0.00    -0.040 SA
BRANCH  21  23
ATOM     23  N   UNL d   1      21.760  -6.508  -6.303  0.00  0.00    -0.366 N 
ATOM     24  H   UNL d   1      22.042  -7.455  -6.517  0.00  0.00     0.161 HD
BRANCH  23  25
ATOM     25  C   UNL d   1      21.136  -5.728  -7.385  0.00  0.00     0.122 C 
BRANCH  25  26
ATOM     26  C   UNL d   1      20.269  -6.516  -8.376  0.00  0.00     0.023 C 
BRANCH  26  27
ATOM     27  C   UNL d   1      18.764  -6.481  -7.995  0.00  0.00    -0.021 C 
ATOM     28  C   UNL d   1      17.892  -5.949  -9.137  0.00  0.00     0.009 C 
ATOM     29  C   UNL d   1      18.274  -7.878  -7.605  0.00  0.00     0.009 C 
ENDBRANCH  26  27
ENDBRANCH  25  26
ENDBRANCH  23  25
ENDBRANCH  21  23
ENDBRANCH  19  21
ENDBRANCH   3  19
TORSDOF 11
ENDMDL
MODEL 8
REMARK VINA RESULT:    -6.052      7.537     10.288
REMARK INTER + INTRA:         -11.168
REMARK INTER:                  -9.333
REMARK INTRA:                  -1.835
REMARK CONF_INDEPENDENT:        3.281
REMARK UNBOUND:                -1.835
REMARK  11 active torsions:
REMARK  status: ('A' for Active; 'I' for Inactive)
REMARK    1  A    between atoms: O_2  and  C_3 
REMARK    2  A    between atoms: C_5  and  C_6 
REMARK    3  A    between atoms: C_7  and  C_8 
REMARK       I    between atoms: C_8  and  N_10 
REMARK    4  A    between atoms: N_10  and  N_11 
REMARK    5  A    between atoms: N_11  and  C_12 
REMARK    6  A    between atoms: C_12  and  N_14 
REMARK    7  A    between atoms: N_14  and  C_15 
REMARK    8  A    between atoms: C_15  and  C_16 
REMARK    9  A    between atoms: C_16  and  C_17 
REMARK   10  A    between atoms: C_21  and  O_22 
REMARK   11  A    between atoms: C_24  and  O_25 
ROOT
ATOM      1  C   UNL d   1      27.390 -14.087   1.805  0.00  0.00     0.259 C 
ATOM      2  O   UNL d   1      26.539 -13.615   1.075  0.00  0.00    -0.267 OA
ATOM      3  N   UNL d   1      28.089 -15.256   1.509  0.00  0.00    -0.264 N 
ATOM      4  H   UNL d   1      28.803 -15.661   2.109  0.00  0.00     0.190 HD
ENDROOT
BRANCH   1   5
ATOM      5  C   UNL d   1      27.776 -13.442   3.118  0.00  0.00     0.076 C 
ATOM      6  C   UNL d   1      28.258 -14.144   4.173  0.00  0.00     0.017 C 
BRANCH   6   7
ATOM      7  C   UNL d   1      28.728 -13.579   5.482  0.00  0.00    -0.031 A 
ATOM      8  C   UNL d   1      28.977 -12.192   5.666  0.00  0.00     0.051 A 
ATOM      9  C   UNL d   1      29.204 -11.606   6.951  0.00  0.00     0.105 A 
ATOM     10  C   UNL d   1      29.200 -12.459   8.072  0.00  0.00     0.135 A 
ATOM     11  C   UNL d   1      29.041 -13.856   7.888  0.00  0.00     0.105 A 
ATOM     12  C   UNL d   1      28.839 -14.393   6.609  0.00  0.00     0.051 A 
BRANCH   9  13
ATOM     13  O   UNL d   1      29.114 -10.225   6.961  0.00  0.00    -0.353 OA
ATOM     14  C   UNL d   1      29.407  -9.463   8.135  0.00  0.00     0.210 C 
ENDBRANCH   9  13
BRANCH  10  15
ATOM     15  O   UNL d   1      29.227 -12.143   9.389  0.00  0.00    -0.351 OA
ATOM     16  C   UNL d   1      28.132 -12.275  10.225  0.00  0.00     0.210 C 
ENDBRANCH  10  15
BRANCH  11  17
ATOM     17  O   UNL d   1      28.988 -14.822   8.883  0.00  0.00    -0.353 OA
ATOM     18  C   UNL d   1      30.124 -14.983   9.733  0.00  0.00     0.210 C 
ENDBRANCH  11  17
ENDBRANCH   6   7
ENDBRANCH   1   5
BRANCH   3  19
ATOM     19  N   UNL d   1      27.845 -15.962   0.278  0.00  0.00    -0.274 N 
ATOM     20  H   UNL d   1      28.547 -15.833  -0.445  0.00  0.00     0.189 HD
BRANCH  19  21
ATOM     21  C   UNL d   1      26.713 -16.766   0.132  0.00  0.00     0.186 C 
ATOM     22  S   UNL d   1      26.768 -18.432   0.373  0.00  0.00    -0.040 SA
BRANCH  21  23
ATOM     23  N   UNL d   1      25.556 -16.074  -0.233  0.00  0.00    -0.366 N 
ATOM     24  H   UNL d   1      25.376 -15.161   0.160  0.00  0.00     0.161 HD
BRANCH  23  25
ATOM     25  C   UNL d   1      24.518 -16.652  -1.104  0.00  0.00     0.122 C 
BRANCH  25  26
ATOM     26  C   UNL d   1      23.080 -16.606  -0.569  0.00  0.00     0.023 C 
BRANCH  26  27
ATOM     27  C   UNL d   1      22.569 -18.008  -0.143  0.00  0.00    -0.021 C 
ATOM     28  C   UNL d   1      21.299 -18.413  -0.898  0.00  0.00     0.009 C 
ATOM     29  C   UNL d   1      23.646 -19.070  -0.378  0.00  0.00     0.009 C 
ENDBRANCH  26  27
ENDBRANCH  25  26
ENDBRANCH  23  25
ENDBRANCH  21  23
ENDBRANCH  19  21
ENDBRANCH   3  19
TORSDOF 11
ENDMDL
MODEL 9
REMARK VINA RESULT:    -5.958      7.082      8.955
REMARK INTER + INTRA:         -11.026
REMARK INTER:                  -9.239
REMARK INTRA:                  -1.787
REMARK CONF_INDEPENDENT:        3.281
REMARK UNBOUND:                -1.787
REMARK  11 active torsions:
REMARK  status: ('A' for Active; 'I' for Inactive)
REMARK    1  A    between atoms: O_2  and  C_3 
REMARK    2  A    between atoms: C_5  and  C_6 
REMARK    3  A    between atoms: C_7  and  C_8 
REMARK       I    between atoms: C_8  and  N_10 
REMARK    4  A    between atoms: N_10  and  N_11 
REMARK    5  A    between atoms: N_11  and  C_12 
REMARK    6  A    between atoms: C_12  and  N_14 
REMARK    7  A    between atoms: N_14  and  C_15 
REMARK    8  A    between atoms: C_15  and  C_16 
REMARK    9  A    between atoms: C_16  and  C_17 
REMARK   10  A    between atoms: C_21  and  O_22 
REMARK   11  A    between atoms: C_24  and  O_25 
ROOT
ATOM      1  C   UNL d   1      27.938 -14.090   3.721  0.00  0.00     0.259 C 
ATOM      2  O   UNL d   1      27.465 -13.055   4.152  0.00  0.00    -0.267 OA
ATOM      3  N   UNL d   1      28.734 -14.943   4.484  0.00  0.00    -0.264 N 
ATOM      4  H   UNL d   1      29.135 -15.811   4.137  0.00  0.00     0.190 HD
ENDROOT
BRANCH   1   5
ATOM      5  C   UNL d   1      27.705 -14.555   2.300  0.00  0.00     0.076 C 
ATOM      6  C   UNL d   1      26.894 -13.903   1.432  0.00  0.00     0.017 C 
BRANCH   6   7
ATOM      7  C   UNL d   1      26.661 -14.255  -0.009  0.00  0.00    -0.031 A 
ATOM      8  C   UNL d   1      26.332 -15.573  -0.426  0.00  0.00     0.051 A 
ATOM      9  C   UNL d   1      25.888 -15.882  -1.750  0.00  0.00     0.105 A 
ATOM     10  C   UNL d   1      25.800 -14.824  -2.677  0.00  0.00     0.135 A 
ATOM     11  C   UNL d   1      26.210 -13.522  -2.294  0.00  0.00     0.105 A 
ATOM     12  C   UNL d   1      26.658 -13.264  -0.991  0.00  0.00     0.051 A 
BRANCH   9  13
ATOM     13  O   UNL d   1      25.324 -17.140  -1.874  0.00  0.00    -0.353 OA
ATOM     14  C   UNL d   1      24.078 -17.467  -1.256  0.00  0.00     0.210 C 
ENDBRANCH   9  13
BRANCH  10  15
ATOM     15  O   UNL d   1      25.264 -14.818  -3.921  0.00  0.00    -0.351 OA
ATOM     16  C   UNL d   1      25.892 -15.373  -5.022  0.00  0.00     0.210 C 
ENDBRANCH  10  15
BRANCH  11  17
ATOM     17  O   UNL d   1      26.162 -12.376  -3.074  0.00  0.00    -0.353 OA
ATOM     18  C   UNL d   1      26.981 -12.314  -4.242  0.00  0.00     0.210 C 
ENDBRANCH  11  17
ENDBRANCH   6   7
ENDBRANCH   1   5
BRANCH   3  19
ATOM     19  N   UNL d   1      29.016 -14.641   5.863  0.00  0.00    -0.274 N 
ATOM     20  H   UNL d   1      29.034 -15.440   6.490  0.00  0.00     0.189 HD
BRANCH  19  21
ATOM     21  C   UNL d   1      29.254 -13.327   6.268  0.00  0.00     0.186 C 
ATOM     22  S   UNL d   1      30.775 -12.616   6.138  0.00  0.00    -0.040 SA
BRANCH  21  23
ATOM     23  N   UNL d   1      28.136 -12.672   6.788  0.00  0.00    -0.366 N 
ATOM     24  H   UNL d   1      27.261 -12.700   6.283  0.00  0.00     0.161 HD
BRANCH  23  25
ATOM     25  C   UNL d   1      28.185 -11.848   8.008  0.00  0.00     0.122 C 
BRANCH  25  26
ATOM     26  C   UNL d   1      29.003 -12.413   9.177  0.00  0.00     0.023 C 
BRANCH  26  27
ATOM     27  C   UNL d   1      28.334 -13.662   9.812  0.00  0.00    -0.021 C 
ATOM     28  C   UNL d   1      29.307 -14.838   9.933  0.00  0.00     0.009 C 
ATOM     29  C   UNL d   1      27.780 -13.330  11.200  0.00  0.00     0.009 C 
ENDBRANCH  26  27
ENDBRANCH  25  26
ENDBRANCH  23  25
ENDBRANCH  21  23
ENDBRANCH  19  21
ENDBRANCH   3  19
TORSDOF 11
ENDMDL
