MODEL 1
REMARK VINA RESULT:   -24.009      0.000      0.000
REMARK INTER + INTRA:         -27.897
REMARK INTER:                 -26.396
REMARK INTRA:                  -1.502
REMARK CONF_INDEPENDENT:        2.386
REMARK UNBOUND:                -1.502
REMARK  8 active torsions:
REMARK  status: ('A' for Active; 'I' for Inactive)
REMARK    1  A    between atoms: C_2  and  C_3 
REMARK       I    between atoms: C_2  and  N_17 
REMARK    2  A    between atoms: C_3  and  S_4 
REMARK    3  A    between atoms: C_5  and  S_4 
REMARK    4  A    between atoms: C_8  and  C_9 
REMARK    5  A    between atoms: CA_18  and  N_17 
REMARK    6  A    between atoms: CA_18  and  C_29 
REMARK    7  A    between atoms: CA_18  and  CB_19 
REMARK    8  A    between atoms: CB_19  and  CG_20 
ROOT
ATOM      1  O   UNK d   0      26.972 -17.203  -1.065  0.00  0.00    -0.273 OA
ATOM      2  C   UNK d   0      25.809 -17.004  -1.420  0.00  0.00     0.227 C 
ATOM      3  N   TRP d   1      25.479 -16.269  -2.534  0.00  0.00    -0.346 N 
ATOM      4  H   TRP d   1      24.541 -15.906  -2.678  0.00  0.00     0.163 HD
ENDROOT
BRANCH   2   5
ATOM      5  C   UNK d   0      24.722 -17.550  -0.510  0.00  0.00     0.180 C 
BRANCH   5   6
ATOM      6  S   UNK d   0      23.215 -17.825  -1.619  0.00  0.00    -0.112 SA
BRANCH   6   7
ATOM      7  C   UNK d   0      21.838 -17.537  -0.516  0.00  0.00     0.275 C 
ATOM      8  N   UNK d   0      20.608 -17.350  -1.290  0.00  0.00    -0.222 NA
ATOM      9  N   UNK d   0      19.834 -18.577  -1.088  0.00  0.00    -0.226 NA
ATOM     10  H   UNK d   0      20.887 -17.212  -2.266  0.00  0.00     0.144 HD
ATOM     11  C   UNK d   0      20.687 -19.428  -0.249  0.00  0.00     0.245 C 
ATOM     12  H   UNK d   0      19.659 -19.072  -1.964  0.00  0.00     0.143 HD
ATOM     13  O   UNK d   0      21.630 -18.586   0.406  0.00  0.00    -0.336 OA
BRANCH  11  14
ATOM     14  C   UNK d   0      19.894 -20.270   0.726  0.00  0.00    -0.013 A 
ATOM     15  C   UNK d   0      18.965 -21.206   0.236  0.00  0.00     0.011 A 
ATOM     16  C   UNK d   0      18.230 -22.013   1.105  0.00  0.00     0.002 A 
ATOM     17  C   UNK d   0      18.410 -21.896   2.481  0.00  0.00     0.024 A 
ATOM     18  C   UNK d   0      19.334 -20.980   2.981  0.00  0.00     0.034 A 
ATOM     19 CL   UNK d   0      19.548 -20.834   4.683  0.00  0.00    -0.084 Cl
ATOM     20  C   UNK d   0      20.078 -20.178   2.116  0.00  0.00     0.035 A 
ENDBRANCH  11  14
ENDBRANCH   6   7
ENDBRANCH   5   6
ENDBRANCH   2   5
BRANCH   3  21
ATOM     21  CA  TRP d   1      26.485 -15.634  -3.479  0.00  0.00     0.190 C 
BRANCH  21  22
ATOM     22  C   TRP d   1      25.827 -15.182  -4.837  0.00  0.00     0.197 C 
ATOM     23  O   TRP d   1      26.430 -15.457  -5.911  0.00  0.00    -0.646 OA
ATOM     24  OXT TRP d   1      24.738 -14.545  -4.682  0.00  0.00    -0.646 OA
ENDBRANCH  21  22
BRANCH  21  25
ATOM     25  CB  TRP d   1      27.284 -14.448  -2.919  0.00  0.00     0.077 C 
BRANCH  25  26
ATOM     26  CG  TRP d   1      26.815 -13.059  -3.301  0.00  0.00    -0.028 A 
ATOM     27  CD1 TRP d   1      25.578 -12.461  -3.117  0.00  0.00     0.096 A 
ATOM     28  NE1 TRP d   1      25.553 -11.296  -3.840  0.00  0.00    -0.365 N 
ATOM     29  CE2 TRP d   1      26.753 -11.104  -4.487  0.00  0.00     0.042 A 
ATOM     30  HE1 TRP d   1      24.740 -10.713  -3.958  0.00  0.00     0.165 HD
ATOM     31  CZ2 TRP d   1      27.186 -10.077  -5.332  0.00  0.00     0.030 A 
ATOM     32  CD2 TRP d   1      27.544 -12.214  -4.198  0.00  0.00    -0.002 A 
ATOM     33  CH2 TRP d   1      28.458 -10.206  -5.906  0.00  0.00     0.002 A 
ATOM     34  CZ3 TRP d   1      29.242 -11.335  -5.681  0.00  0.00     0.001 A 
ATOM     35  CE3 TRP d   1      28.788 -12.351  -4.843  0.00  0.00     0.014 A 
ENDBRANCH  25  26
ENDBRANCH  21  25
ENDBRANCH   3  21
TORSDOF 8
ENDMDL
MODEL 2
REMARK VINA RESULT:   -23.966      2.233      3.580
REMARK INTER + INTRA:         -28.114
REMARK INTER:                 -26.353
REMARK INTRA:                  -1.761
REMARK CONF_INDEPENDENT:        2.386
REMARK UNBOUND:                -1.761
REMARK  8 active torsions:
REMARK  status: ('A' for Active; 'I' for Inactive)
REMARK    1  A    between atoms: C_2  and  C_3 
REMARK       I    between atoms: C_2  and  N_17 
REMARK    2  A    between atoms: C_3  and  S_4 
REMARK    3  A    between atoms: C_5  and  S_4 
REMARK    4  A    between atoms: C_8  and  C_9 
REMARK    5  A    between atoms: CA_18  and  N_17 
REMARK    6  A    between atoms: CA_18  and  C_29 
REMARK    7  A    between atoms: CA_18  and  CB_19 
REMARK    8  A    between atoms: CB_19  and  CG_20 
ROOT
ATOM      1  O   UNK d   0      26.922 -16.742  -0.580  0.00  0.00    -0.273 OA
ATOM      2  C   UNK d   0      25.807 -16.806  -1.102  0.00  0.00     0.227 C 
ATOM      3  N   TRP d   1      25.519 -16.256  -2.328  0.00  0.00    -0.346 N 
ATOM      4  H   TRP d   1      24.563 -16.097  -2.633  0.00  0.00     0.163 HD
ENDROOT
BRANCH   2   5
ATOM      5  C   UNK d   0      24.713 -17.467  -0.280  0.00  0.00     0.180 C 
BRANCH   5   6
ATOM      6  S   UNK d   0      23.265 -17.728  -1.468  0.00  0.00    -0.112 SA
BRANCH   6   7
ATOM      7  C   UNK d   0      21.834 -17.467  -0.432  0.00  0.00     0.275 C 
ATOM      8  N   UNK d   0      20.634 -17.329  -1.261  0.00  0.00    -0.222 NA
ATOM      9  N   UNK d   0      19.888 -18.575  -1.074  0.00  0.00    -0.226 NA
ATOM     10  H   UNK d   0      20.951 -17.196  -2.226  0.00  0.00     0.144 HD
ATOM     11  C   UNK d   0      20.729 -19.388  -0.185  0.00  0.00     0.245 C 
ATOM     12  H   UNK d   0      19.767 -19.088  -1.948  0.00  0.00     0.143 HD
ATOM     13  O   UNK d   0      21.616 -18.508   0.498  0.00  0.00    -0.336 OA
BRANCH  11  14
ATOM     14  C   UNK d   0      19.919 -20.239   0.768  0.00  0.00    -0.013 A 
ATOM     15  C   UNK d   0      18.993 -21.165   0.252  0.00  0.00     0.011 A 
ATOM     16  C   UNK d   0      18.243 -21.981   1.101  0.00  0.00     0.002 A 
ATOM     17  C   UNK d   0      18.405 -21.882   2.480  0.00  0.00     0.024 A 
ATOM     18  C   UNK d   0      19.325 -20.977   3.005  0.00  0.00     0.034 A 
ATOM     19 CL   UNK d   0      19.516 -20.854   4.712  0.00  0.00    -0.084 Cl
ATOM     20  C   UNK d   0      20.084 -20.167   2.161  0.00  0.00     0.035 A 
ENDBRANCH  11  14
ENDBRANCH   6   7
ENDBRANCH   5   6
ENDBRANCH   2   5
BRANCH   3  21
ATOM     21  CA  TRP d   1      26.524 -15.528  -3.205  0.00  0.00     0.190 C 
BRANCH  21  22
ATOM     22  C   TRP d   1      25.933 -15.174  -4.622  0.00  0.00     0.197 C 
ATOM     23  O   TRP d   1      26.553 -15.581  -5.644  0.00  0.00    -0.646 OA
ATOM     24  OXT TRP d   1      24.877 -14.468  -4.567  0.00  0.00    -0.646 OA
ENDBRANCH  21  22
BRANCH  21  25
ATOM     25  CB  TRP d   1      27.139 -14.252  -2.612  0.00  0.00     0.077 C 
BRANCH  25  26
ATOM     26  CG  TRP d   1      28.400 -14.413  -1.788  0.00  0.00    -0.028 A 
ATOM     27  CD1 TRP d   1      29.623 -14.963  -2.139  0.00  0.00     0.096 A 
ATOM     28  NE1 TRP d   1      30.370 -15.111  -0.999  0.00  0.00    -0.365 N 
ATOM     29  CE2 TRP d   1      29.672 -14.659   0.097  0.00  0.00     0.042 A 
ATOM     30  HE1 TRP d   1      31.264 -15.574  -0.957  0.00  0.00     0.165 HD
ATOM     31  CZ2 TRP d   1      30.018 -14.615   1.452  0.00  0.00     0.030 A 
ATOM     32  CD2 TRP d   1      28.422 -14.255  -0.365  0.00  0.00    -0.002 A 
ATOM     33  CH2 TRP d   1      29.047 -14.160   2.353  0.00  0.00     0.002 A 
ATOM     34  CZ3 TRP d   1      27.768 -13.809   1.923  0.00  0.00     0.001 A 
ATOM     35  CE3 TRP d   1      27.441 -13.868   0.569  0.00  0.00     0.014 A 
ENDBRANCH  25  26
ENDBRANCH  21  25
ENDBRANCH   3  21
TORSDOF 8
ENDMDL
MODEL 3
REMARK VINA RESULT:   -23.610      2.453      3.886
REMARK INTER + INTRA:         -27.816
REMARK INTER:                 -25.997
REMARK INTRA:                  -1.819
REMARK CONF_INDEPENDENT:        2.386
REMARK UNBOUND:                -1.819
REMARK  8 active torsions:
REMARK  status: ('A' for Active; 'I' for Inactive)
REMARK    1  A    between atoms: C_2  and  C_3 
REMARK       I    between atoms: C_2  and  N_17 
REMARK    2  A    between atoms: C_3  and  S_4 
REMARK    3  A    between atoms: C_5  and  S_4 
REMARK    4  A    between atoms: C_8  and  C_9 
REMARK    5  A    between atoms: CA_18  and  N_17 
REMARK    6  A    between atoms: CA_18  and  C_29 
REMARK    7  A    between atoms: CA_18  and  CB_19 
REMARK    8  A    between atoms: CB_19  and  CG_20 
ROOT
ATOM      1  O   UNK d   0      26.874 -17.444  -1.323  0.00  0.00    -0.273 OA
ATOM      2  C   UNK d   0      25.837 -16.804  -1.507  0.00  0.00     0.227 C 
ATOM      3  N   TRP d   1      25.698 -15.871  -2.507  0.00  0.00    -0.346 N 
ATOM      4  H   TRP d   1      24.949 -15.184  -2.499  0.00  0.00     0.163 HD
ENDROOT
BRANCH   2   5
ATOM      5  C   UNK d   0      24.714 -17.034  -0.510  0.00  0.00     0.180 C 
BRANCH   5   6
ATOM      6  S   UNK d   0      23.287 -17.774  -1.506  0.00  0.00    -0.112 SA
BRANCH   6   7
ATOM      7  C   UNK d   0      21.868 -17.496  -0.456  0.00  0.00     0.275 C 
ATOM      8  N   UNK d   0      20.663 -17.339  -1.274  0.00  0.00    -0.222 NA
ATOM      9  N   UNK d   0      19.902 -18.576  -1.083  0.00  0.00    -0.226 NA
ATOM     10  H   UNK d   0      20.974 -17.209  -2.242  0.00  0.00     0.144 HD
ATOM     11  C   UNK d   0      20.740 -19.402  -0.204  0.00  0.00     0.245 C 
ATOM     12  H   UNK d   0      19.767 -19.085  -1.958  0.00  0.00     0.143 HD
ATOM     13  O   UNK d   0      21.645 -18.536   0.473  0.00  0.00    -0.336 OA
BRANCH  11  14
ATOM     14  C   UNK d   0      19.926 -20.244   0.755  0.00  0.00    -0.013 A 
ATOM     15  C   UNK d   0      18.996 -21.169   0.245  0.00  0.00     0.011 A 
ATOM     16  C   UNK d   0      18.243 -21.977   1.098  0.00  0.00     0.002 A 
ATOM     17  C   UNK d   0      18.407 -21.872   2.477  0.00  0.00     0.024 A 
ATOM     18  C   UNK d   0      19.331 -20.968   2.996  0.00  0.00     0.034 A 
ATOM     19 CL   UNK d   0      19.525 -20.837   4.702  0.00  0.00    -0.084 Cl
ATOM     20  C   UNK d   0      20.094 -20.166   2.147  0.00  0.00     0.035 A 
ENDBRANCH  11  14
ENDBRANCH   6   7
ENDBRANCH   5   6
ENDBRANCH   2   5
BRANCH   3  21
ATOM     21  CA  TRP d   1      26.775 -15.526  -3.521  0.00  0.00     0.190 C 
BRANCH  21  22
ATOM     22  C   TRP d   1      26.221 -14.644  -4.704  0.00  0.00     0.197 C 
ATOM     23  O   TRP d   1      27.018 -14.321  -5.629  0.00  0.00    -0.646 OA
ATOM     24  OXT TRP d   1      24.998 -14.327  -4.567  0.00  0.00    -0.646 OA
ENDBRANCH  21  22
BRANCH  21  25
ATOM     25  CB  TRP d   1      28.033 -14.842  -2.966  0.00  0.00     0.077 C 
BRANCH  25  26
ATOM     26  CG  TRP d   1      28.781 -15.565  -1.864  0.00  0.00    -0.028 A 
ATOM     27  CD1 TRP d   1      28.945 -15.221  -0.532  0.00  0.00     0.096 A 
ATOM     28  NE1 TRP d   1      29.897 -16.046   0.010  0.00  0.00    -0.365 N 
ATOM     29  CE2 TRP d   1      30.356 -16.937  -0.932  0.00  0.00     0.042 A 
ATOM     30  HE1 TRP d   1      30.275 -15.950   0.940  0.00  0.00     0.165 HD
ATOM     31  CZ2 TRP d   1      31.318 -17.950  -0.847  0.00  0.00     0.030 A 
ATOM     32  CD2 TRP d   1      29.703 -16.630  -2.123  0.00  0.00    -0.002 A 
ATOM     33  CH2 TRP d   1      31.625 -18.650  -2.020  0.00  0.00     0.002 A 
ATOM     34  CZ3 TRP d   1      31.031 -18.320  -3.237  0.00  0.00     0.001 A 
ATOM     35  CE3 TRP d   1      30.081 -17.302  -3.302  0.00  0.00     0.014 A 
ENDBRANCH  25  26
ENDBRANCH  21  25
ENDBRANCH   3  21
TORSDOF 8
ENDMDL
MODEL 4
REMARK VINA RESULT:   -23.575      2.073      2.744
REMARK INTER + INTRA:         -27.766
REMARK INTER:                 -25.962
REMARK INTRA:                  -1.804
REMARK CONF_INDEPENDENT:        2.386
REMARK UNBOUND:                -1.804
REMARK  8 active torsions:
REMARK  status: ('A' for Active; 'I' for Inactive)
REMARK    1  A    between atoms: C_2  and  C_3 
REMARK       I    between atoms: C_2  and  N_17 
REMARK    2  A    between atoms: C_3  and  S_4 
REMARK    3  A    between atoms: C_5  and  S_4 
REMARK    4  A    between atoms: C_8  and  C_9 
REMARK    5  A    between atoms: CA_18  and  N_17 
REMARK    6  A    between atoms: CA_18  and  C_29 
REMARK    7  A    between atoms: CA_18  and  CB_19 
REMARK    8  A    between atoms: CB_19  and  CG_20 
ROOT
ATOM      1  O   UNK d   0      26.966 -17.557  -1.102  0.00  0.00    -0.273 OA
ATOM      2  C   UNK d   0      25.896 -17.011  -1.378  0.00  0.00     0.227 C 
ATOM      3  N   TRP d   1      25.743 -16.152  -2.440  0.00  0.00    -0.346 N 
ATOM      4  H   TRP d   1      24.946 -15.527  -2.513  0.00  0.00     0.163 HD
ENDROOT
BRANCH   2   5
ATOM      5  C   UNK d   0      24.740 -17.271  -0.427  0.00  0.00     0.180 C 
BRANCH   5   6
ATOM      6  S   UNK d   0      23.281 -17.778  -1.519  0.00  0.00    -0.112 SA
BRANCH   6   7
ATOM      7  C   UNK d   0      21.865 -17.496  -0.467  0.00  0.00     0.275 C 
ATOM      8  N   UNK d   0      20.658 -17.340  -1.283  0.00  0.00    -0.222 NA
ATOM      9  N   UNK d   0      19.896 -18.575  -1.088  0.00  0.00    -0.226 NA
ATOM     10  H   UNK d   0      20.967 -17.211  -2.251  0.00  0.00     0.144 HD
ATOM     11  C   UNK d   0      20.735 -19.401  -0.210  0.00  0.00     0.245 C 
ATOM     12  H   UNK d   0      19.758 -19.085  -1.962  0.00  0.00     0.143 HD
ATOM     13  O   UNK d   0      21.643 -18.535   0.464  0.00  0.00    -0.336 OA
BRANCH  11  14
ATOM     14  C   UNK d   0      19.922 -20.241   0.752  0.00  0.00    -0.013 A 
ATOM     15  C   UNK d   0      18.989 -21.164   0.246  0.00  0.00     0.011 A 
ATOM     16  C   UNK d   0      18.237 -21.970   1.102  0.00  0.00     0.002 A 
ATOM     17  C   UNK d   0      18.404 -21.863   2.480  0.00  0.00     0.024 A 
ATOM     18  C   UNK d   0      19.332 -20.960   2.996  0.00  0.00     0.034 A 
ATOM     19 CL   UNK d   0      19.530 -20.828   4.701  0.00  0.00    -0.084 Cl
ATOM     20  C   UNK d   0      20.094 -20.161   2.144  0.00  0.00     0.035 A 
ENDBRANCH  11  14
ENDBRANCH   6   7
ENDBRANCH   5   6
ENDBRANCH   2   5
BRANCH   3  21
ATOM     21  CA  TRP d   1      26.846 -15.782  -3.417  0.00  0.00     0.190 C 
BRANCH  21  22
ATOM     22  C   TRP d   1      26.307 -14.942  -4.637  0.00  0.00     0.197 C 
ATOM     23  O   TRP d   1      26.923 -15.026  -5.736  0.00  0.00    -0.646 OA
ATOM     24  OXT TRP d   1      25.295 -14.229  -4.350  0.00  0.00    -0.646 OA
ENDBRANCH  21  22
BRANCH  21  25
ATOM     25  CB  TRP d   1      28.054 -15.042  -2.825  0.00  0.00     0.077 C 
BRANCH  25  26
ATOM     26  CG  TRP d   1      29.043 -14.442  -3.805  0.00  0.00    -0.028 A 
ATOM     27  CD1 TRP d   1      29.208 -13.124  -4.199  0.00  0.00     0.096 A 
ATOM     28  NE1 TRP d   1      30.055 -13.101  -5.277  0.00  0.00    -0.365 N 
ATOM     29  CE2 TRP d   1      30.464 -14.376  -5.596  0.00  0.00     0.042 A 
ATOM     30  HE1 TRP d   1      30.271 -12.279  -5.818  0.00  0.00     0.165 HD
ATOM     31  CZ2 TRP d   1      31.309 -14.843  -6.608  0.00  0.00     0.030 A 
ATOM     32  CD2 TRP d   1      29.812 -15.236  -4.715  0.00  0.00    -0.002 A 
ATOM     33  CH2 TRP d   1      31.474 -16.229  -6.724  0.00  0.00     0.002 A 
ATOM     34  CZ3 TRP d   1      30.784 -17.112  -5.895  0.00  0.00     0.001 A 
ATOM     35  CE3 TRP d   1      29.939 -16.626  -4.898  0.00  0.00     0.014 A 
ENDBRANCH  25  26
ENDBRANCH  21  25
ENDBRANCH   3  21
TORSDOF 8
ENDMDL
