MODEL 1
REMARK VINA RESULT:    -8.015      0.000      0.000
REMARK INTER + INTRA:         -13.731
REMARK INTER:                 -10.700
REMARK INTRA:                  -3.032
REMARK CONF_INDEPENDENT:        2.685
REMARK UNBOUND:                -3.032
REMARK  9 active torsions:
REMARK  status: ('A' for Active; 'I' for Inactive)
REMARK    1  A    between atoms: CG_2  and  CB_4 
REMARK    2  A    between atoms: CB_4  and  CA_5 
REMARK    3  A    between atoms: CA_5  and  N_6 
REMARK    4  A    between atoms: CA_5  and  C_32 
REMARK       I    between atoms: N_6  and  C_7 
REMARK    5  A    between atoms: C_7  and  C_9 
REMARK    6  A    between atoms: C_9  and  C_10 
REMARK    7  A    between atoms: C_9  and  N_20 
REMARK    8  A    between atoms: C_10  and  C_11 
REMARK    9  A    between atoms: C_30  and  O_31 
ROOT
ATOM      1  C   UNK d   0      26.888 -14.728  -2.091  0.00  0.00     0.188 C 
ENDROOT
BRANCH   1   2
ATOM      2  C   UNK d   0      28.086 -13.814  -1.499  0.00  0.00     0.241 C 
ATOM      3  N   LEU d   1      28.019 -12.436  -1.745  0.00  0.00    -0.345 N 
ATOM      4  H   LEU d   1      27.429 -12.055  -2.472  0.00  0.00     0.163 HD
ATOM      5  O   UNK d   0      28.946 -14.313  -0.770  0.00  0.00    -0.271 OA
BRANCH   3   6
ATOM      6  CA  LEU d   1      28.653 -11.324  -0.963  0.00  0.00     0.185 C 
BRANCH   6   7
ATOM      7  CB  LEU d   1      28.613 -11.549   0.589  0.00  0.00     0.040 C 
BRANCH   7   8
ATOM      8  CG  LEU d   1      27.361 -12.240   1.090  0.00  0.00    -0.020 C 
ATOM      9  CD1 LEU d   1      27.519 -13.441   2.007  0.00  0.00     0.009 C 
ATOM     10  CD2 LEU d   1      26.634 -11.314   2.006  0.00  0.00     0.009 C 
ENDBRANCH   7   8
ENDBRANCH   6   7
BRANCH   6  11
ATOM     11  C   LEU d   1      27.975  -9.907  -1.229  0.00  0.00     0.196 C 
ATOM     12  O   LEU d   1      28.236  -8.978  -0.410  0.00  0.00    -0.646 OA
ATOM     13  OXT LEU d   1      27.218  -9.860  -2.248  0.00  0.00    -0.646 OA
ENDBRANCH   6  11
ENDBRANCH   3   6
ENDBRANCH   1   2
BRANCH   1  14
ATOM     14  C   UNK d   0      25.915 -14.830  -0.902  0.00  0.00     0.076 C 
BRANCH  14  15
ATOM     15  C   UNK d   0      25.615 -16.268  -0.504  0.00  0.00    -0.028 A 
ATOM     16  C   UNK d   0      26.554 -17.274  -0.345  0.00  0.00     0.096 A 
ATOM     17  N   UNK d   0      25.898 -18.475  -0.212  0.00  0.00    -0.365 N 
ATOM     18  C   UNK d   0      24.537 -18.288  -0.320  0.00  0.00     0.042 A 
ATOM     19  H   UNK d   0      26.344 -19.383  -0.197  0.00  0.00     0.165 HD
ATOM     20  C   UNK d   0      23.497 -19.230  -0.377  0.00  0.00     0.030 A 
ATOM     21  C   UNK d   0      24.322 -16.918  -0.482  0.00  0.00    -0.002 A 
ATOM     22  C   UNK d   0      22.210 -18.770  -0.674  0.00  0.00     0.002 A 
ATOM     23  C   UNK d   0      21.969 -17.423  -0.895  0.00  0.00     0.001 A 
ATOM     24  C   UNK d   0      23.004 -16.494  -0.769  0.00  0.00     0.014 A 
ENDBRANCH  14  15
ENDBRANCH   1  14
BRANCH   1  25
ATOM     25  N   UNK d   0      26.372 -14.172  -3.403  0.00  0.00    -0.290 N 
ATOM     26  C   UNK d   0      27.003 -14.470  -4.600  0.00  0.00     0.260 C 
ATOM     27  O   UNK d   0      27.098 -15.575  -5.095  0.00  0.00    -0.267 OA
ATOM     28  C   UNK d   0      27.307 -13.232  -5.356  0.00  0.00     0.058 A 
ATOM     29  C   UNK d   0      28.406 -13.128  -6.212  0.00  0.00     0.019 A 
ATOM     30  C   UNK d   0      26.413 -12.174  -5.133  0.00  0.00     0.047 A 
ATOM     31  C   UNK d   0      28.606 -11.942  -6.906  0.00  0.00     0.001 A 
ATOM     32  C   UNK d   0      27.698 -10.894  -6.749  0.00  0.00     0.002 A 
ATOM     33  C   UNK d   0      26.612 -11.008  -5.866  0.00  0.00     0.030 A 
ATOM     34  N   UNK d   0      25.272 -12.362  -4.343  0.00  0.00    -0.346 N 
ATOM     35  C   UNK d   0      25.081 -13.638  -3.695  0.00  0.00     0.332 C 
ATOM     36  H   UNK d   0      24.861 -11.559  -3.896  0.00  0.00     0.164 HD
BRANCH  35  37
ATOM     37  O   UNK d   0      24.400 -14.450  -4.645  0.00  0.00    -0.359 OA
ATOM     38  H   UNK d   0      23.672 -13.895  -4.984  0.00  0.00     0.214 HD
ENDBRANCH  35  37
ENDBRANCH   1  25
TORSDOF 9
ENDMDL
MODEL 2
REMARK VINA RESULT:    -7.773      2.461      4.460
REMARK INTER + INTRA:         -13.526
REMARK INTER:                 -10.457
REMARK INTRA:                  -3.068
REMARK CONF_INDEPENDENT:        2.685
REMARK UNBOUND:                -3.068
REMARK  9 active torsions:
REMARK  status: ('A' for Active; 'I' for Inactive)
REMARK    1  A    between atoms: CG_2  and  CB_4 
REMARK    2  A    between atoms: CB_4  and  CA_5 
REMARK    3  A    between atoms: CA_5  and  N_6 
REMARK    4  A    between atoms: CA_5  and  C_32 
REMARK       I    between atoms: N_6  and  C_7 
REMARK    5  A    between atoms: C_7  and  C_9 
REMARK    6  A    between atoms: C_9  and  C_10 
REMARK    7  A    between atoms: C_9  and  N_20 
REMARK    8  A    between atoms: C_10  and  C_11 
REMARK    9  A    between atoms: C_30  and  O_31 
ROOT
ATOM      1  C   UNK d   0      27.243 -15.392  -2.676  0.00  0.00     0.188 C 
ENDROOT
BRANCH   1   2
ATOM      2  C   UNK d   0      28.837 -15.111  -2.627  0.00  0.00     0.241 C 
ATOM      3  N   LEU d   1      29.683 -16.228  -2.631  0.00  0.00    -0.345 N 
ATOM      4  H   LEU d   1      29.344 -17.150  -2.397  0.00  0.00     0.163 HD
ATOM      5  O   UNK d   0      29.266 -13.957  -2.699  0.00  0.00    -0.271 OA
BRANCH   3   6
ATOM      6  CA  LEU d   1      31.115 -16.302  -3.071  0.00  0.00     0.185 C 
BRANCH   6   7
ATOM      7  CB  LEU d   1      31.330 -15.898  -4.571  0.00  0.00     0.040 C 
BRANCH   7   8
ATOM      8  CG  LEU d   1      30.205 -16.312  -5.499  0.00  0.00    -0.020 C 
ATOM      9  CD1 LEU d   1      30.145 -15.687  -6.883  0.00  0.00     0.009 C 
ATOM     10  CD2 LEU d   1      30.394 -17.743  -5.875  0.00  0.00     0.009 C 
ENDBRANCH   7   8
ENDBRANCH   6   7
BRANCH   6  11
ATOM     11  C   LEU d   1      31.745 -17.756  -2.902  0.00  0.00     0.196 C 
ATOM     12  O   LEU d   1      32.972 -17.891  -3.183  0.00  0.00    -0.646 OA
ATOM     13  OXT LEU d   1      30.932 -18.649  -2.509  0.00  0.00    -0.646 OA
ENDBRANCH   6  11
ENDBRANCH   3   6
ENDBRANCH   1   2
BRANCH   1  14
ATOM     14  C   UNK d   0      26.819 -15.214  -1.206  0.00  0.00     0.076 C 
BRANCH  14  15
ATOM     15  C   UNK d   0      26.257 -16.489  -0.594  0.00  0.00    -0.028 A 
ATOM     16  C   UNK d   0      26.992 -17.613  -0.252  0.00  0.00     0.096 A 
ATOM     17  N   UNK d   0      26.123 -18.634   0.051  0.00  0.00    -0.365 N 
ATOM     18  C   UNK d   0      24.821 -18.219  -0.122  0.00  0.00     0.042 A 
ATOM     19  H   UNK d   0      26.393 -19.595   0.222  0.00  0.00     0.165 HD
ATOM     20  C   UNK d   0      23.624 -18.950  -0.059  0.00  0.00     0.030 A 
ATOM     21  C   UNK d   0      24.865 -16.877  -0.505  0.00  0.00    -0.002 A 
ATOM     22  C   UNK d   0      22.444 -18.314  -0.462  0.00  0.00     0.002 A 
ATOM     23  C   UNK d   0      22.459 -16.999  -0.899  0.00  0.00     0.001 A 
ATOM     24  C   UNK d   0      23.649 -16.269  -0.893  0.00  0.00     0.014 A 
ENDBRANCH  14  15
ENDBRANCH   1  14
BRANCH   1  25
ATOM     25  N   UNK d   0      26.569 -14.539  -3.732  0.00  0.00    -0.290 N 
ATOM     26  C   UNK d   0      26.972 -14.596  -5.057  0.00  0.00     0.260 C 
ATOM     27  O   UNK d   0      26.894 -15.570  -5.780  0.00  0.00    -0.267 OA
ATOM     28  C   UNK d   0      27.250 -13.238  -5.580  0.00  0.00     0.058 A 
ATOM     29  C   UNK d   0      28.200 -12.999  -6.576  0.00  0.00     0.019 A 
ATOM     30  C   UNK d   0      26.493 -12.216  -4.989  0.00  0.00     0.047 A 
ATOM     31  C   UNK d   0      28.381 -11.700  -7.032  0.00  0.00     0.001 A 
ATOM     32  C   UNK d   0      27.599 -10.672  -6.503  0.00  0.00     0.002 A 
ATOM     33  C   UNK d   0      26.665 -10.928  -5.487  0.00  0.00     0.030 A 
ATOM     34  N   UNK d   0      25.483 -12.520  -4.068  0.00  0.00    -0.346 N 
ATOM     35  C   UNK d   0      25.295 -13.897  -3.676  0.00  0.00     0.332 C 
ATOM     36  H   UNK d   0      25.217 -11.816  -3.398  0.00  0.00     0.164 HD
BRANCH  35  37
ATOM     37  O   UNK d   0      24.406 -14.450  -4.638  0.00  0.00    -0.359 OA
ATOM     38  H   UNK d   0      23.979 -13.684  -5.065  0.00  0.00     0.214 HD
ENDBRANCH  35  37
ENDBRANCH   1  25
TORSDOF 9
ENDMDL
MODEL 3
REMARK VINA RESULT:    -7.725      3.612      6.751
REMARK INTER + INTRA:         -13.894
REMARK INTER:                 -10.409
REMARK INTRA:                  -3.485
REMARK CONF_INDEPENDENT:        2.685
REMARK UNBOUND:                -3.485
REMARK  9 active torsions:
REMARK  status: ('A' for Active; 'I' for Inactive)
REMARK    1  A    between atoms: CG_2  and  CB_4 
REMARK    2  A    between atoms: CB_4  and  CA_5 
REMARK    3  A    between atoms: CA_5  and  N_6 
REMARK    4  A    between atoms: CA_5  and  C_32 
REMARK       I    between atoms: N_6  and  C_7 
REMARK    5  A    between atoms: C_7  and  C_9 
REMARK    6  A    between atoms: C_9  and  C_10 
REMARK    7  A    between atoms: C_9  and  N_20 
REMARK    8  A    between atoms: C_10  and  C_11 
REMARK    9  A    between atoms: C_30  and  O_31 
ROOT
ATOM      1  C   UNK d   0      27.978 -13.494   1.423  0.00  0.00     0.188 C 
ENDROOT
BRANCH   1   2
ATOM      2  C   UNK d   0      27.672 -12.064   0.729  0.00  0.00     0.241 C 
ATOM      3  N   LEU d   1      26.987 -11.114   1.499  0.00  0.00    -0.345 N 
ATOM      4  H   LEU d   1      26.466 -11.377   2.325  0.00  0.00     0.163 HD
ATOM      5  O   UNK d   0      28.131 -11.803  -0.385  0.00  0.00    -0.271 OA
BRANCH   3   6
ATOM      6  CA  LEU d   1      26.990  -9.622   1.347  0.00  0.00     0.185 C 
BRANCH   6   7
ATOM      7  CB  LEU d   1      28.365  -8.960   1.711  0.00  0.00     0.040 C 
BRANCH   7   8
ATOM      8  CG  LEU d   1      29.007  -9.501   2.972  0.00  0.00    -0.020 C 
ATOM      9  CD1 LEU d   1      30.520  -9.434   3.097  0.00  0.00     0.009 C 
ATOM     10  CD2 LEU d   1      28.618  -8.632   4.121  0.00  0.00     0.009 C 
ENDBRANCH   7   8
ENDBRANCH   6   7
BRANCH   6  11
ATOM     11  C   LEU d   1      25.891  -8.900   2.246  0.00  0.00     0.196 C 
ATOM     12  O   LEU d   1      25.530  -7.738   1.897  0.00  0.00    -0.646 OA
ATOM     13  OXT LEU d   1      25.493  -9.572   3.247  0.00  0.00    -0.646 OA
ENDBRANCH   6  11
ENDBRANCH   3   6
ENDBRANCH   1   2
BRANCH   1  14
ATOM     14  C   UNK d   0      27.081 -13.467   2.674  0.00  0.00     0.076 C 
BRANCH  14  15
ATOM     15  C   UNK d   0      27.819 -13.876   3.941  0.00  0.00    -0.028 A 
ATOM     16  C   UNK d   0      28.040 -15.178   4.361  0.00  0.00     0.096 A 
ATOM     17  N   UNK d   0      28.527 -15.151   5.646  0.00  0.00    -0.365 N 
ATOM     18  C   UNK d   0      28.596 -13.853   6.103  0.00  0.00     0.042 A 
ATOM     19  H   UNK d   0      28.666 -15.965   6.233  0.00  0.00     0.165 HD
ATOM     20  C   UNK d   0      28.904 -13.359   7.381  0.00  0.00     0.030 A 
ATOM     21  C   UNK d   0      28.180 -13.027   5.056  0.00  0.00    -0.002 A 
ATOM     22  C   UNK d   0      28.720 -11.993   7.619  0.00  0.00     0.002 A 
ATOM     23  C   UNK d   0      28.257 -11.153   6.618  0.00  0.00     0.001 A 
ATOM     24  C   UNK d   0      28.018 -11.651   5.336  0.00  0.00     0.014 A 
ENDBRANCH  14  15
ENDBRANCH   1  14
BRANCH   1  25
ATOM     25  N   UNK d   0      27.807 -14.629   0.434  0.00  0.00    -0.290 N 
ATOM     26  C   UNK d   0      26.691 -14.699  -0.384  0.00  0.00     0.260 C 
ATOM     27  O   UNK d   0      26.389 -13.893  -1.242  0.00  0.00    -0.267 OA
ATOM     28  C   UNK d   0      26.048 -16.031  -0.285  0.00  0.00     0.058 A 
ATOM     29  C   UNK d   0      24.675 -16.215  -0.457  0.00  0.00     0.019 A 
ATOM     30  C   UNK d   0      26.926 -17.085   0.007  0.00  0.00     0.047 A 
ATOM     31  C   UNK d   0      24.154 -17.500  -0.375  0.00  0.00     0.001 A 
ATOM     32  C   UNK d   0      25.014 -18.575  -0.145  0.00  0.00     0.002 A 
ATOM     33  C   UNK d   0      26.390 -18.368   0.049  0.00  0.00     0.030 A 
ATOM     34  N   UNK d   0      28.308 -16.863   0.072  0.00  0.00    -0.346 N 
ATOM     35  C   UNK d   0      28.800 -15.515  -0.084  0.00  0.00     0.332 C 
ATOM     36  H   UNK d   0      28.870 -17.491   0.623  0.00  0.00     0.164 HD
BRANCH  35  37
ATOM     37  O   UNK d   0      28.965 -15.327  -1.485  0.00  0.00    -0.359 OA
ATOM     38  H   UNK d   0      28.443 -14.532  -1.701  0.00  0.00     0.214 HD
ENDBRANCH  35  37
ENDBRANCH   1  25
TORSDOF 9
ENDMDL
MODEL 4
REMARK VINA RESULT:    -7.408      2.051      6.361
REMARK INTER + INTRA:         -13.436
REMARK INTER:                 -10.093
REMARK INTRA:                  -3.343
REMARK CONF_INDEPENDENT:        2.685
REMARK UNBOUND:                -3.343
REMARK  9 active torsions:
REMARK  status: ('A' for Active; 'I' for Inactive)
REMARK    1  A    between atoms: CG_2  and  CB_4 
REMARK    2  A    between atoms: CB_4  and  CA_5 
REMARK    3  A    between atoms: CA_5  and  N_6 
REMARK    4  A    between atoms: CA_5  and  C_32 
REMARK       I    between atoms: N_6  and  C_7 
REMARK    5  A    between atoms: C_7  and  C_9 
REMARK    6  A    between atoms: C_9  and  C_10 
REMARK    7  A    between atoms: C_9  and  N_20 
REMARK    8  A    between atoms: C_10  and  C_11 
REMARK    9  A    between atoms: C_30  and  O_31 
ROOT
ATOM      1  C   UNK d   0      29.284 -14.028  -1.221  0.00  0.00     0.188 C 
ENDROOT
BRANCH   1   2
ATOM      2  C   UNK d   0      28.340 -13.162  -2.211  0.00  0.00     0.241 C 
ATOM      3  N   LEU d   1      28.157 -13.654  -3.511  0.00  0.00    -0.345 N 
ATOM      4  H   LEU d   1      28.780 -14.342  -3.910  0.00  0.00     0.163 HD
ATOM      5  O   UNK d   0      27.729 -12.180  -1.785  0.00  0.00    -0.271 OA
BRANCH   3   6
ATOM      6  CA  LEU d   1      27.020 -13.382  -4.451  0.00  0.00     0.185 C 
BRANCH   6   7
ATOM      7  CB  LEU d   1      25.887 -12.497  -3.824  0.00  0.00     0.040 C 
BRANCH   7   8
ATOM      8  CG  LEU d   1      25.895 -11.053  -4.281  0.00  0.00    -0.020 C 
ATOM      9  CD1 LEU d   1      27.124 -10.210  -3.986  0.00  0.00     0.009 C 
ATOM     10  CD2 LEU d   1      25.916 -11.021  -5.772  0.00  0.00     0.009 C 
ENDBRANCH   7   8
ENDBRANCH   6   7
BRANCH   6  11
ATOM     11  C   LEU d   1      26.314 -14.710  -4.977  0.00  0.00     0.196 C 
ATOM     12  O   LEU d   1      27.016 -15.504  -5.670  0.00  0.00    -0.646 OA
ATOM     13  OXT LEU d   1      25.093 -14.831  -4.653  0.00  0.00    -0.646 OA
ENDBRANCH   6  11
ENDBRANCH   3   6
ENDBRANCH   1   2
BRANCH   1  14
ATOM     14  C   UNK d   0      29.407 -13.118   0.016  0.00  0.00     0.076 C 
BRANCH  14  15
ATOM     15  C   UNK d   0      28.365 -13.427   1.082  0.00  0.00    -0.028 A 
ATOM     16  C   UNK d   0      27.028 -13.066   1.034  0.00  0.00     0.096 A 
ATOM     17  N   UNK d   0      26.460 -13.309   2.262  0.00  0.00    -0.365 N 
ATOM     18  C   UNK d   0      27.407 -13.789   3.139  0.00  0.00     0.042 A 
ATOM     19  H   UNK d   0      25.526 -13.030   2.535  0.00  0.00     0.165 HD
ATOM     20  C   UNK d   0      27.316 -14.048   4.516  0.00  0.00     0.030 A 
ATOM     21  C   UNK d   0      28.606 -13.896   2.431  0.00  0.00    -0.002 A 
ATOM     22  C   UNK d   0      28.493 -14.360   5.205  0.00  0.00     0.002 A 
ATOM     23  C   UNK d   0      29.709 -14.421   4.544  0.00  0.00     0.001 A 
ATOM     24  C   UNK d   0      29.769 -14.225   3.163  0.00  0.00     0.014 A 
ENDBRANCH  14  15
ENDBRANCH   1  14
BRANCH   1  25
ATOM     25  N   UNK d   0      28.744 -15.431  -1.038  0.00  0.00    -0.290 N 
ATOM     26  C   UNK d   0      27.986 -16.038  -2.026  0.00  0.00     0.260 C 
ATOM     27  O   UNK d   0      28.373 -16.322  -3.142  0.00  0.00    -0.267 OA
ATOM     28  C   UNK d   0      26.717 -16.561  -1.468  0.00  0.00     0.058 A 
ATOM     29  C   UNK d   0      25.545 -16.647  -2.224  0.00  0.00     0.019 A 
ATOM     30  C   UNK d   0      26.784 -16.951  -0.123  0.00  0.00     0.047 A 
ATOM     31  C   UNK d   0      24.404 -17.176  -1.635  0.00  0.00     0.001 A 
ATOM     32  C   UNK d   0      24.459 -17.626  -0.315  0.00  0.00     0.002 A 
ATOM     33  C   UNK d   0      25.640 -17.511   0.436  0.00  0.00     0.030 A 
ATOM     34  N   UNK d   0      28.007 -16.939   0.561  0.00  0.00    -0.346 N 
ATOM     35  C   UNK d   0      29.177 -16.437  -0.121  0.00  0.00     0.332 C 
ATOM     36  H   UNK d   0      27.995 -16.854   1.564  0.00  0.00     0.164 HD
BRANCH  35  37
ATOM     37  O   UNK d   0      29.722 -17.554  -0.815  0.00  0.00    -0.359 OA
ATOM     38  H   UNK d   0      29.795 -18.261  -0.147  0.00  0.00     0.214 HD
ENDBRANCH  35  37
ENDBRANCH   1  25
TORSDOF 9
ENDMDL
MODEL 5
REMARK VINA RESULT:    -7.306      1.639      2.243
REMARK INTER + INTRA:         -13.648
REMARK INTER:                  -9.991
REMARK INTRA:                  -3.657
REMARK CONF_INDEPENDENT:        2.685
REMARK UNBOUND:                -3.657
REMARK  9 active torsions:
REMARK  status: ('A' for Active; 'I' for Inactive)
REMARK    1  A    between atoms: CG_2  and  CB_4 
REMARK    2  A    between atoms: CB_4  and  CA_5 
REMARK    3  A    between atoms: CA_5  and  N_6 
REMARK    4  A    between atoms: CA_5  and  C_32 
REMARK       I    between atoms: N_6  and  C_7 
REMARK    5  A    between atoms: C_7  and  C_9 
REMARK    6  A    between atoms: C_9  and  C_10 
REMARK    7  A    between atoms: C_9  and  N_20 
REMARK    8  A    between atoms: C_10  and  C_11 
REMARK    9  A    between atoms: C_30  and  O_31 
ROOT
ATOM      1  C   UNK d   0      26.942 -14.541  -2.123  0.00  0.00     0.188 C 
ENDROOT
BRANCH   1   2
ATOM      2  C   UNK d   0      28.064 -13.519  -1.560  0.00  0.00     0.241 C 
ATOM      3  N   LEU d   1      28.889 -12.894  -2.504  0.00  0.00    -0.345 N 
ATOM      4  H   LEU d   1      28.983 -13.250  -3.445  0.00  0.00     0.163 HD
ATOM      5  O   UNK d   0      28.097 -13.232  -0.361  0.00  0.00    -0.271 OA
BRANCH   3   6
ATOM      6  CA  LEU d   1      29.639 -11.602  -2.366  0.00  0.00     0.185 C 
BRANCH   6   7
ATOM      7  CB  LEU d   1      28.718 -10.376  -2.034  0.00  0.00     0.040 C 
BRANCH   7   8
ATOM      8  CG  LEU d   1      27.671 -10.075  -3.088  0.00  0.00    -0.020 C 
ATOM      9  CD1 LEU d   1      26.267  -9.721  -2.628  0.00  0.00     0.009 C 
ATOM     10  CD2 LEU d   1      28.039  -8.807  -3.782  0.00  0.00     0.009 C 
ENDBRANCH   7   8
ENDBRANCH   6   7
BRANCH   6  11
ATOM     11  C   LEU d   1      30.453 -11.209  -3.678  0.00  0.00     0.196 C 
ATOM     12  O   LEU d   1      31.013 -10.074  -3.694  0.00  0.00    -0.646 OA
ATOM     13  OXT LEU d   1      30.445 -12.087  -4.595  0.00  0.00    -0.646 OA
ENDBRANCH   6  11
ENDBRANCH   3   6
ENDBRANCH   1   2
BRANCH   1  14
ATOM     14  C   UNK d   0      25.970 -14.670  -0.935  0.00  0.00     0.076 C 
BRANCH  14  15
ATOM     15  C   UNK d   0      25.705 -16.116  -0.541  0.00  0.00    -0.028 A 
ATOM     16  C   UNK d   0      26.668 -17.104  -0.400  0.00  0.00     0.096 A 
ATOM     17  N   UNK d   0      26.038 -18.318  -0.266  0.00  0.00    -0.365 N 
ATOM     18  C   UNK d   0      24.673 -18.160  -0.355  0.00  0.00     0.042 A 
ATOM     19  H   UNK d   0      26.504 -19.217  -0.261  0.00  0.00     0.165 HD
ATOM     20  C   UNK d   0      23.652 -19.123  -0.404  0.00  0.00     0.030 A 
ATOM     21  C   UNK d   0      24.426 -16.794  -0.507  0.00  0.00    -0.002 A 
ATOM     22  C   UNK d   0      22.351 -18.689  -0.683  0.00  0.00     0.002 A 
ATOM     23  C   UNK d   0      22.080 -17.346  -0.893  0.00  0.00     0.001 A 
ATOM     24  C   UNK d   0      23.096 -16.397  -0.775  0.00  0.00     0.014 A 
ENDBRANCH  14  15
ENDBRANCH   1  14
BRANCH   1  25
ATOM     25  N   UNK d   0      26.397 -14.074  -3.457  0.00  0.00    -0.290 N 
ATOM     26  C   UNK d   0      27.009 -14.441  -4.645  0.00  0.00     0.260 C 
ATOM     27  O   UNK d   0      27.107 -15.575  -5.071  0.00  0.00    -0.267 OA
ATOM     28  C   UNK d   0      27.286 -13.251  -5.483  0.00  0.00     0.058 A 
ATOM     29  C   UNK d   0      28.368 -13.192  -6.364  0.00  0.00     0.019 A 
ATOM     30  C   UNK d   0      26.385 -12.191  -5.311  0.00  0.00     0.047 A 
ATOM     31  C   UNK d   0      28.542 -12.050  -7.136  0.00  0.00     0.001 A 
ATOM     32  C   UNK d   0      27.626 -11.003  -7.028  0.00  0.00     0.002 A 
ATOM     33  C   UNK d   0      26.557 -11.071  -6.120  0.00  0.00     0.030 A 
ATOM     34  N   UNK d   0      25.260 -12.338  -4.490  0.00  0.00    -0.346 N 
ATOM     35  C   UNK d   0      25.094 -13.572  -3.759  0.00  0.00     0.332 C 
ATOM     36  H   UNK d   0      24.849 -11.512  -4.086  0.00  0.00     0.164 HD
BRANCH  35  37
ATOM     37  O   UNK d   0      24.405 -14.450  -4.642  0.00  0.00    -0.359 OA
ATOM     38  H   UNK d   0      23.678 -13.919  -5.017  0.00  0.00     0.214 HD
ENDBRANCH  35  37
ENDBRANCH   1  25
TORSDOF 9
ENDMDL
MODEL 6
REMARK VINA RESULT:    -6.944      2.380      3.630
REMARK INTER + INTRA:         -13.547
REMARK INTER:                  -9.628
REMARK INTRA:                  -3.919
REMARK CONF_INDEPENDENT:        2.685
REMARK UNBOUND:                -3.919
REMARK  9 active torsions:
REMARK  status: ('A' for Active; 'I' for Inactive)
REMARK    1  A    between atoms: CG_2  and  CB_4 
REMARK    2  A    between atoms: CB_4  and  CA_5 
REMARK    3  A    between atoms: CA_5  and  N_6 
REMARK    4  A    between atoms: CA_5  and  C_32 
REMARK       I    between atoms: N_6  and  C_7 
REMARK    5  A    between atoms: C_7  and  C_9 
REMARK    6  A    between atoms: C_9  and  C_10 
REMARK    7  A    between atoms: C_9  and  N_20 
REMARK    8  A    between atoms: C_10  and  C_11 
REMARK    9  A    between atoms: C_30  and  O_31 
ROOT
ATOM      1  C   UNK d   0      26.898 -15.522  -2.675  0.00  0.00     0.188 C 
ENDROOT
BRANCH   1   2
ATOM      2  C   UNK d   0      28.498 -15.595  -2.915  0.00  0.00     0.241 C 
ATOM      3  N   LEU d   1      28.938 -15.822  -4.226  0.00  0.00    -0.345 N 
ATOM      4  H   LEU d   1      28.321 -16.195  -4.935  0.00  0.00     0.163 HD
ATOM      5  O   UNK d   0      29.276 -15.345  -1.991  0.00  0.00    -0.271 OA
BRANCH   3   6
ATOM      6  CA  LEU d   1      30.263 -15.467  -4.831  0.00  0.00     0.185 C 
BRANCH   6   7
ATOM      7  CB  LEU d   1      30.935 -14.211  -4.175  0.00  0.00     0.040 C 
BRANCH   7   8
ATOM      8  CG  LEU d   1      30.171 -12.917  -4.372  0.00  0.00    -0.020 C 
ATOM      9  CD1 LEU d   1      29.810 -12.098  -3.144  0.00  0.00     0.009 C 
ATOM     10  CD2 LEU d   1      31.051 -11.942  -5.079  0.00  0.00     0.009 C 
ENDBRANCH   7   8
ENDBRANCH   6   7
BRANCH   6  11
ATOM     11  C   LEU d   1      30.175 -15.166  -6.393  0.00  0.00     0.196 C 
ATOM     12  O   LEU d   1      31.201 -14.670  -6.946  0.00  0.00    -0.646 OA
ATOM     13  OXT LEU d   1      29.059 -15.446  -6.930  0.00  0.00    -0.646 OA
ENDBRANCH   6  11
ENDBRANCH   3   6
ENDBRANCH   1   2
BRANCH   1  14
ATOM     14  C   UNK d   0      26.789 -15.312  -1.154  0.00  0.00     0.076 C 
BRANCH  14  15
ATOM     15  C   UNK d   0      26.193 -16.513  -0.432  0.00  0.00    -0.028 A 
ATOM     16  C   UNK d   0      26.908 -17.585   0.078  0.00  0.00     0.096 A 
ATOM     17  N   UNK d   0      26.024 -18.571   0.446  0.00  0.00    -0.365 N 
ATOM     18  C   UNK d   0      24.734 -18.189   0.152  0.00  0.00     0.042 A 
ATOM     19  H   UNK d   0      26.283 -19.504   0.742  0.00  0.00     0.165 HD
ATOM     20  C   UNK d   0      23.535 -18.915   0.230  0.00  0.00     0.030 A 
ATOM     21  C   UNK d   0      24.799 -16.899  -0.380  0.00  0.00    -0.002 A 
ATOM     22  C   UNK d   0      22.380 -18.338  -0.310  0.00  0.00     0.002 A 
ATOM     23  C   UNK d   0      22.419 -17.082  -0.894  0.00  0.00     0.001 A 
ATOM     24  C   UNK d   0      23.607 -16.348  -0.903  0.00  0.00     0.014 A 
ENDBRANCH  14  15
ENDBRANCH   1  14
BRANCH   1  25
ATOM     25  N   UNK d   0      26.253 -14.504  -3.594  0.00  0.00    -0.290 N 
ATOM     26  C   UNK d   0      26.533 -14.491  -4.951  0.00  0.00     0.260 C 
ATOM     27  O   UNK d   0      26.272 -15.381  -5.737  0.00  0.00    -0.267 OA
ATOM     28  C   UNK d   0      26.938 -13.136  -5.392  0.00  0.00     0.058 A 
ATOM     29  C   UNK d   0      27.824 -12.926  -6.450  0.00  0.00     0.019 A 
ATOM     30  C   UNK d   0      26.370 -12.086  -4.655  0.00  0.00     0.047 A 
ATOM     31  C   UNK d   0      28.132 -11.623  -6.819  0.00  0.00     0.001 A 
ATOM     32  C   UNK d   0      27.535 -10.559  -6.142  0.00  0.00     0.002 A 
ATOM     33  C   UNK d   0      26.663 -10.789  -5.065  0.00  0.00     0.030 A 
ATOM     34  N   UNK d   0      25.410 -12.347  -3.669  0.00  0.00    -0.346 N 
ATOM     35  C   UNK d   0      25.081 -13.720  -3.369  0.00  0.00     0.332 C 
ATOM     36  H   UNK d   0      25.293 -11.679  -2.924  0.00  0.00     0.164 HD
BRANCH  35  37
ATOM     37  O   UNK d   0      24.051 -14.075  -4.284  0.00  0.00    -0.359 OA
ATOM     38  H   UNK d   0      24.318 -13.683  -5.137  0.00  0.00     0.214 HD
ENDBRANCH  35  37
ENDBRANCH   1  25
TORSDOF 9
ENDMDL
MODEL 7
REMARK VINA RESULT:    -6.611      3.416      7.204
REMARK INTER + INTRA:         -13.344
REMARK INTER:                  -9.296
REMARK INTRA:                  -4.048
REMARK CONF_INDEPENDENT:        2.685
REMARK UNBOUND:                -4.048
REMARK  9 active torsions:
REMARK  status: ('A' for Active; 'I' for Inactive)
REMARK    1  A    between atoms: CG_2  and  CB_4 
REMARK    2  A    between atoms: CB_4  and  CA_5 
REMARK    3  A    between atoms: CA_5  and  N_6 
REMARK    4  A    between atoms: CA_5  and  C_32 
REMARK       I    between atoms: N_6  and  C_7 
REMARK    5  A    between atoms: C_7  and  C_9 
REMARK    6  A    between atoms: C_9  and  C_10 
REMARK    7  A    between atoms: C_9  and  N_20 
REMARK    8  A    between atoms: C_10  and  C_11 
REMARK    9  A    between atoms: C_30  and  O_31 
ROOT
ATOM      1  C   UNK d   0      27.897 -14.453   2.067  0.00  0.00     0.188 C 
ENDROOT
BRANCH   1   2
ATOM      2  C   UNK d   0      26.828 -13.247   1.905  0.00  0.00     0.241 C 
ATOM      3  N   LEU d   1      27.068 -12.078   2.638  0.00  0.00    -0.345 N 
ATOM      4  H   LEU d   1      27.698 -12.067   3.429  0.00  0.00     0.163 HD
ATOM      5  O   UNK d   0      25.915 -13.334   1.081  0.00  0.00    -0.271 OA
BRANCH   3   6
ATOM      6  CA  LEU d   1      26.584 -10.688   2.349  0.00  0.00     0.185 C 
BRANCH   6   7
ATOM      7  CB  LEU d   1      27.256 -10.042   1.087  0.00  0.00     0.040 C 
BRANCH   7   8
ATOM      8  CG  LEU d   1      28.448 -10.808   0.550  0.00  0.00    -0.020 C 
ATOM      9  CD1 LEU d   1      28.947 -10.479  -0.847  0.00  0.00     0.009 C 
ATOM     10  CD2 LEU d   1      29.655 -10.439   1.345  0.00  0.00     0.009 C 
ENDBRANCH   7   8
ENDBRANCH   6   7
BRANCH   6  11
ATOM     11  C   LEU d   1      26.828  -9.677   3.555  0.00  0.00     0.196 C 
ATOM     12  O   LEU d   1      26.461  -8.477   3.389  0.00  0.00    -0.646 OA
ATOM     13  OXT LEU d   1      27.390 -10.186   4.574  0.00  0.00    -0.646 OA
ENDBRANCH   6  11
ENDBRANCH   3   6
ENDBRANCH   1   2
BRANCH   1  14
ATOM     14  C   UNK d   0      28.520 -14.549   0.662  0.00  0.00     0.076 C 
BRANCH  14  15
ATOM     15  C   UNK d   0      27.535 -15.041  -0.389  0.00  0.00    -0.028 A 
ATOM     16  C   UNK d   0      27.052 -14.296  -1.453  0.00  0.00     0.096 A 
ATOM     17  N   UNK d   0      26.020 -14.987  -2.044  0.00  0.00    -0.365 N 
ATOM     18  C   UNK d   0      25.783 -16.162  -1.365  0.00  0.00     0.042 A 
ATOM     19  H   UNK d   0      25.416 -14.622  -2.770  0.00  0.00     0.165 HD
ATOM     20  C   UNK d   0      24.758 -17.108  -1.525  0.00  0.00     0.030 A 
ATOM     21  C   UNK d   0      26.724 -16.239  -0.336  0.00  0.00    -0.002 A 
ATOM     22  C   UNK d   0      24.647 -18.125  -0.571  0.00  0.00     0.002 A 
ATOM     23  C   UNK d   0      25.531 -18.201   0.493  0.00  0.00     0.001 A 
ATOM     24  C   UNK d   0      26.583 -17.290   0.600  0.00  0.00     0.014 A 
ENDBRANCH  14  15
ENDBRANCH   1  14
BRANCH   1  25
ATOM     25  N   UNK d   0      28.814 -14.215   3.250  0.00  0.00    -0.290 N 
ATOM     26  C   UNK d   0      28.372 -14.425   4.547  0.00  0.00     0.260 C 
ATOM     27  O   UNK d   0      28.030 -15.493   5.015  0.00  0.00    -0.267 OA
ATOM     28  C   UNK d   0      28.636 -13.236   5.391  0.00  0.00     0.058 A 
ATOM     29  C   UNK d   0      27.822 -12.890   6.472  0.00  0.00     0.019 A 
ATOM     30  C   UNK d   0      29.758 -12.485   5.012  0.00  0.00     0.047 A 
ATOM     31  C   UNK d   0      28.154 -11.775   7.231  0.00  0.00     0.001 A 
ATOM     32  C   UNK d   0      29.299 -11.043   6.912  0.00  0.00     0.002 A 
ATOM     33  C   UNK d   0      30.093 -11.394   5.808  0.00  0.00     0.030 A 
ATOM     34  N   UNK d   0      30.598 -12.931   3.984  0.00  0.00    -0.346 N 
ATOM     35  C   UNK d   0      30.239 -14.133   3.268  0.00  0.00     0.332 C 
ATOM     36  H   UNK d   0      31.147 -12.251   3.483  0.00  0.00     0.164 HD
BRANCH  35  37
ATOM     37  O   UNK d   0      30.799 -15.205   4.017  0.00  0.00    -0.359 OA
ATOM     38  H   UNK d   0      30.080 -15.858   4.110  0.00  0.00     0.214 HD
ENDBRANCH  35  37
ENDBRANCH   1  25
TORSDOF 9
ENDMDL
MODEL 8
REMARK VINA RESULT:    -6.317      1.891      6.490
REMARK INTER + INTRA:         -13.928
REMARK INTER:                  -9.002
REMARK INTRA:                  -4.927
REMARK CONF_INDEPENDENT:        2.685
REMARK UNBOUND:                -4.927
REMARK  9 active torsions:
REMARK  status: ('A' for Active; 'I' for Inactive)
REMARK    1  A    between atoms: CG_2  and  CB_4 
REMARK    2  A    between atoms: CB_4  and  CA_5 
REMARK    3  A    between atoms: CA_5  and  N_6 
REMARK    4  A    between atoms: CA_5  and  C_32 
REMARK       I    between atoms: N_6  and  C_7 
REMARK    5  A    between atoms: C_7  and  C_9 
REMARK    6  A    between atoms: C_9  and  C_10 
REMARK    7  A    between atoms: C_9  and  N_20 
REMARK    8  A    between atoms: C_10  and  C_11 
REMARK    9  A    between atoms: C_30  and  O_31 
ROOT
ATOM      1  C   UNK d   0      27.831 -13.903  -0.755  0.00  0.00     0.188 C 
ENDROOT
BRANCH   1   2
ATOM      2  C   UNK d   0      28.475 -13.184  -2.055  0.00  0.00     0.241 C 
ATOM      3  N   LEU d   1      28.436 -13.894  -3.263  0.00  0.00    -0.345 N 
ATOM      4  H   LEU d   1      28.278 -14.891  -3.287  0.00  0.00     0.163 HD
ATOM      5  O   UNK d   0      28.874 -12.019  -1.986  0.00  0.00    -0.271 OA
BRANCH   3   6
ATOM      6  CA  LEU d   1      28.487 -13.348  -4.659  0.00  0.00     0.185 C 
BRANCH   6   7
ATOM      7  CB  LEU d   1      27.473 -12.177  -4.909  0.00  0.00     0.040 C 
BRANCH   7   8
ATOM      8  CG  LEU d   1      26.293 -12.155  -3.959  0.00  0.00    -0.020 C 
ATOM      9  CD1 LEU d   1      25.530 -10.853  -3.786  0.00  0.00     0.009 C 
ATOM     10  CD2 LEU d   1      25.209 -13.013  -4.520  0.00  0.00     0.009 C 
ENDBRANCH   7   8
ENDBRANCH   6   7
BRANCH   6  11
ATOM     11  C   LEU d   1      28.186 -14.448  -5.771  0.00  0.00     0.196 C 
ATOM     12  O   LEU d   1      28.328 -14.102  -6.981  0.00  0.00    -0.646 OA
ATOM     13  OXT LEU d   1      27.814 -15.576  -5.321  0.00  0.00    -0.646 OA
ENDBRANCH   6  11
ENDBRANCH   3   6
ENDBRANCH   1   2
BRANCH   1  14
ATOM     14  C   UNK d   0      26.718 -12.924  -0.339  0.00  0.00     0.076 C 
BRANCH  14  15
ATOM     15  C   UNK d   0      26.919 -12.359   1.059  0.00  0.00    -0.028 A 
ATOM     16  C   UNK d   0      27.029 -11.015   1.379  0.00  0.00     0.096 A 
ATOM     17  N   UNK d   0      27.431 -10.903   2.688  0.00  0.00    -0.365 N 
ATOM     18  C   UNK d   0      27.629 -12.152   3.235  0.00  0.00     0.042 A 
ATOM     19  H   UNK d   0      27.698 -10.039   3.143  0.00  0.00     0.165 HD
ATOM     20  C   UNK d   0      28.157 -12.520   4.482  0.00  0.00     0.030 A 
ATOM     21  C   UNK d   0      27.298 -13.087   2.252  0.00  0.00    -0.002 A 
ATOM     22  C   UNK d   0      28.419 -13.875   4.711  0.00  0.00     0.002 A 
ATOM     23  C   UNK d   0      28.155 -14.825   3.737  0.00  0.00     0.001 A 
ATOM     24  C   UNK d   0      27.569 -14.447   2.528  0.00  0.00     0.014 A 
ENDBRANCH  14  15
ENDBRANCH   1  14
BRANCH   1  25
ATOM     25  N   UNK d   0      27.457 -15.341  -1.055  0.00  0.00    -0.290 N 
ATOM     26  C   UNK d   0      26.328 -15.643  -1.800  0.00  0.00     0.260 C 
ATOM     27  O   UNK d   0      26.146 -15.343  -2.963  0.00  0.00    -0.267 OA
ATOM     28  C   UNK d   0      25.479 -16.629  -1.091  0.00  0.00     0.058 A 
ATOM     29  C   UNK d   0      24.091 -16.664  -1.238  0.00  0.00     0.019 A 
ATOM     30  C   UNK d   0      26.179 -17.512  -0.256  0.00  0.00     0.047 A 
ATOM     31  C   UNK d   0      23.369 -17.638  -0.560  0.00  0.00     0.001 A 
ATOM     32  C   UNK d   0      24.046 -18.567   0.231  0.00  0.00     0.002 A 
ATOM     33  C   UNK d   0      25.440 -18.502   0.385  0.00  0.00     0.030 A 
ATOM     34  N   UNK d   0      27.579 -17.500  -0.221  0.00  0.00    -0.346 N 
ATOM     35  C   UNK d   0      28.282 -16.505  -0.996  0.00  0.00     0.332 C 
ATOM     36  H   UNK d   0      28.041 -17.842   0.605  0.00  0.00     0.164 HD
BRANCH  35  37
ATOM     37  O   UNK d   0      28.447 -17.075  -2.289  0.00  0.00    -0.359 OA
ATOM     38  H   UNK d   0      28.044 -16.435  -2.906  0.00  0.00     0.214 HD
ENDBRANCH  35  37
ENDBRANCH   1  25
TORSDOF 9
ENDMDL
MODEL 9
REMARK VINA RESULT:    -5.740      2.400      6.156
REMARK INTER + INTRA:         -13.496
REMARK INTER:                  -8.424
REMARK INTRA:                  -5.072
REMARK CONF_INDEPENDENT:        2.685
REMARK UNBOUND:                -5.072
REMARK  9 active torsions:
REMARK  status: ('A' for Active; 'I' for Inactive)
REMARK    1  A    between atoms: CG_2  and  CB_4 
REMARK    2  A    between atoms: CB_4  and  CA_5 
REMARK    3  A    between atoms: CA_5  and  N_6 
REMARK    4  A    between atoms: CA_5  and  C_32 
REMARK       I    between atoms: N_6  and  C_7 
REMARK    5  A    between atoms: C_7  and  C_9 
REMARK    6  A    between atoms: C_9  and  C_10 
REMARK    7  A    between atoms: C_9  and  N_20 
REMARK    8  A    between atoms: C_10  and  C_11 
REMARK    9  A    between atoms: C_30  and  O_31 
ROOT
ATOM      1  C   UNK d   0      30.536 -14.456  -2.285  0.00  0.00     0.188 C 
ENDROOT
BRANCH   1   2
ATOM      2  C   UNK d   0      29.461 -13.473  -2.991  0.00  0.00     0.241 C 
ATOM      3  N   LEU d   1      28.633 -14.033  -3.974  0.00  0.00    -0.345 N 
ATOM      4  H   LEU d   1      28.861 -14.909  -4.423  0.00  0.00     0.163 HD
ATOM      5  O   UNK d   0      29.317 -12.317  -2.587  0.00  0.00    -0.271 OA
BRANCH   3   6
ATOM      6  CA  LEU d   1      27.287 -13.556  -4.431  0.00  0.00     0.185 C 
BRANCH   6   7
ATOM      7  CB  LEU d   1      26.457 -12.850  -3.302  0.00  0.00     0.040 C 
BRANCH   7   8
ATOM      8  CG  LEU d   1      25.617 -11.682  -3.779  0.00  0.00    -0.020 C 
ATOM      9  CD1 LEU d   1      25.875 -10.314  -3.171  0.00  0.00     0.009 C 
ATOM     10  CD2 LEU d   1      25.957 -11.396  -5.203  0.00  0.00     0.009 C 
ENDBRANCH   7   8
ENDBRANCH   6   7
BRANCH   6  11
ATOM     11  C   LEU d   1      26.369 -14.728  -4.998  0.00  0.00     0.196 C 
ATOM     12  O   LEU d   1      26.916 -15.573  -5.765  0.00  0.00    -0.646 OA
ATOM     13  OXT LEU d   1      25.155 -14.685  -4.626  0.00  0.00    -0.646 OA
ENDBRANCH   6  11
ENDBRANCH   3   6
ENDBRANCH   1   2
BRANCH   1  14
ATOM     14  C   UNK d   0      31.183 -13.548  -1.222  0.00  0.00     0.076 C 
BRANCH  14  15
ATOM     15  C   UNK d   0      30.588 -13.745   0.165  0.00  0.00    -0.028 A 
ATOM     16  C   UNK d   0      31.169 -14.466   1.197  0.00  0.00     0.096 A 
ATOM     17  N   UNK d   0      30.246 -14.616   2.205  0.00  0.00    -0.365 N 
ATOM     18  C   UNK d   0      29.048 -14.039   1.844  0.00  0.00     0.042 A 
ATOM     19  H   UNK d   0      30.370 -15.197   3.025  0.00  0.00     0.165 HD
ATOM     20  C   UNK d   0      27.803 -14.061   2.493  0.00  0.00     0.030 A 
ATOM     21  C   UNK d   0      29.231 -13.467   0.584  0.00  0.00    -0.002 A 
ATOM     22  C   UNK d   0      26.697 -13.544   1.809  0.00  0.00     0.002 A 
ATOM     23  C   UNK d   0      26.832 -13.017   0.534  0.00  0.00     0.001 A 
ATOM     24  C   UNK d   0      28.089 -12.945  -0.068  0.00  0.00     0.014 A 
ENDBRANCH  14  15
ENDBRANCH   1  14
BRANCH   1  25
ATOM     25  N   UNK d   0      29.884 -15.747  -1.834  0.00  0.00    -0.290 N 
ATOM     26  C   UNK d   0      28.810 -16.283  -2.527  0.00  0.00     0.260 C 
ATOM     27  O   UNK d   0      28.837 -16.685  -3.674  0.00  0.00    -0.267 OA
ATOM     28  C   UNK d   0      27.683 -16.573  -1.610  0.00  0.00     0.058 A 
ATOM     29  C   UNK d   0      26.350 -16.518  -2.021  0.00  0.00     0.019 A 
ATOM     30  C   UNK d   0      28.063 -16.893  -0.298  0.00  0.00     0.047 A 
ATOM     31  C   UNK d   0      25.353 -16.831  -1.106  0.00  0.00     0.001 A 
ATOM     32  C   UNK d   0      25.705 -17.211   0.190  0.00  0.00     0.002 A 
ATOM     33  C   UNK d   0      27.050 -17.238   0.592  0.00  0.00     0.030 A 
ATOM     34  N   UNK d   0      29.416 -17.032   0.037  0.00  0.00    -0.346 N 
ATOM     35  C   UNK d   0      30.411 -16.755  -0.972  0.00  0.00     0.332 C 
ATOM     36  H   UNK d   0      29.690 -16.891   0.996  0.00  0.00     0.164 HD
BRANCH  35  37
ATOM     37  O   UNK d   0      30.592 -17.979  -1.675  0.00  0.00    -0.359 OA
ATOM     38  H   UNK d   0      30.516 -17.747  -2.620  0.00  0.00     0.214 HD
ENDBRANCH  35  37
ENDBRANCH   1  25
TORSDOF 9
ENDMDL
