MODEL 1
REMARK VINA RESULT:   -11.094      0.000      0.000
REMARK INTER + INTRA:         -14.848
REMARK INTER:                 -13.182
REMARK INTRA:                  -1.666
REMARK CONF_INDEPENDENT:        2.088
REMARK UNBOUND:                -1.666
REMARK  7 active torsions:
REMARK  status: ('A' for Active; 'I' for Inactive)
REMARK    1  A    between atoms: C_2  and  O_3 
REMARK    2  A    between atoms: O_3  and  C_4 
REMARK    3  A    between atoms: C_9  and  N_10 
REMARK    4  A    between atoms: C_20  and  S_21 
REMARK    5  A    between atoms: S_21  and  C_22 
REMARK    6  A    between atoms: C_22  and  C_23 
REMARK       I    between atoms: C_23  and  N_25 
REMARK    7  A    between atoms: N_25  and  C_26 
ROOT
ATOM      1  N   UNL d   1      26.746 -14.326  -1.457  0.00  0.00    -0.296 N 
ATOM      2  C   UNL d   1      27.687 -14.521  -2.450  0.00  0.00     0.141 C 
ATOM      3  N   UNL d   1      28.969 -14.395  -2.340  0.00  0.00    -0.283 NA
ATOM      4  C   UNL d   1      27.170 -14.970  -3.758  0.00  0.00     0.085 C 
ATOM      5  C   UNL d   1      27.629 -15.242  -4.931  0.00  0.00     0.071 C 
ATOM      6  C   UNL d   1      29.050 -15.109  -5.360  0.00  0.00     0.073 C 
ATOM      7  N   UNL d   1      26.649 -15.581  -5.844  0.00  0.00    -0.152 NA
ATOM      8  N   UNL d   1      25.526 -15.382  -5.306  0.00  0.00    -0.129 NA
ATOM      9  C   UNL d   1      25.748 -14.904  -4.031  0.00  0.00     0.185 C 
ATOM     10  N   UNL d   1      24.859 -14.432  -3.242  0.00  0.00    -0.232 NA
ATOM     11  C   UNL d   1      25.321 -14.717  -1.830  0.00  0.00     0.281 C 
ATOM     12  H   UNL d   1      29.225 -14.094  -1.396  0.00  0.00     0.188 HD
ENDROOT
BRANCH  11  13
ATOM     13  S   UNL d   1      24.777 -16.800  -1.999  0.00  0.00    -0.111 SA
BRANCH  13  14
ATOM     14  C   UNL d   1      24.638 -17.865  -0.205  0.00  0.00     0.181 C 
BRANCH  14  15
ATOM     15  C   UNL d   1      23.294 -18.705  -0.140  0.00  0.00     0.231 C 
ATOM     16  O   UNL d   1      23.052 -19.653  -0.897  0.00  0.00    -0.272 OA
ATOM     17  N   UNL d   1      22.238 -18.192   0.614  0.00  0.00    -0.327 N 
ATOM     18  H   UNL d   1      22.191 -17.214   0.872  0.00  0.00     0.169 HD
BRANCH  17  19
ATOM     19  C   UNL d   1      21.055 -18.972   0.693  0.00  0.00     0.034 C 
ATOM     20  C   UNL d   1      20.561 -19.439   1.901  0.00  0.00     0.030 C 
ATOM     21  C   UNL d   1      19.493 -20.338   1.858  0.00  0.00     0.009 C 
ATOM     22  C   UNL d   1      18.832 -20.624   0.647  0.00  0.00    -0.062 C 
ATOM     23  C   UNL d   1      17.653 -21.525   0.579  0.00  0.00     0.048 C 
ATOM     24  C   UNL d   1      19.253 -20.061  -0.539  0.00  0.00     0.009 C 
ATOM     25  C   UNL d   1      20.385 -19.300  -0.503  0.00  0.00     0.030 C 
ENDBRANCH  17  19
ENDBRANCH  14  15
ENDBRANCH  13  14
ENDBRANCH  11  13
BRANCH   1  26
ATOM     26  C   UNL d   1      27.141 -13.809  -0.175  0.00  0.00     0.072 C 
ATOM     27  C   UNL d   1      27.125 -12.440   0.108  0.00  0.00     0.033 C 
ATOM     28  C   UNL d   1      27.708 -11.905   1.291  0.00  0.00     0.002 C 
ATOM     29  C   UNL d   1      28.378 -12.700   2.217  0.00  0.00     0.003 C 
ATOM     30  C   UNL d   1      28.487 -14.023   1.945  0.00  0.00     0.039 C 
ATOM     31  C   UNL d   1      27.790 -14.527   0.847  0.00  0.00     0.095 C 
BRANCH  31  32
ATOM     32  O   UNL d   1      27.759 -15.845   1.023  0.00  0.00    -0.349 OA
BRANCH  32  33
ATOM     33  C   UNL d   1      28.673 -16.424   0.193  0.00  0.00     0.171 C 
ATOM     34  C   UNL d   1      27.794 -17.551  -0.242  0.00  0.00     0.034 C 
ENDBRANCH  32  33
ENDBRANCH  31  32
ENDBRANCH   1  26
TORSDOF 7
ENDMDL
MODEL 2
REMARK VINA RESULT:   -10.477      1.234      2.197
REMARK INTER + INTRA:         -14.691
REMARK INTER:                 -12.565
REMARK INTRA:                  -2.126
REMARK CONF_INDEPENDENT:        2.088
REMARK UNBOUND:                -2.126
REMARK  7 active torsions:
REMARK  status: ('A' for Active; 'I' for Inactive)
REMARK    1  A    between atoms: C_2  and  O_3 
REMARK    2  A    between atoms: O_3  and  C_4 
REMARK    3  A    between atoms: C_9  and  N_10 
REMARK    4  A    between atoms: C_20  and  S_21 
REMARK    5  A    between atoms: S_21  and  C_22 
REMARK    6  A    between atoms: C_22  and  C_23 
REMARK       I    between atoms: C_23  and  N_25 
REMARK    7  A    between atoms: N_25  and  C_26 
ROOT
ATOM      1  N   UNL d   1      26.894 -14.127  -1.527  0.00  0.00    -0.296 N 
ATOM      2  C   UNL d   1      27.834 -14.367  -2.511  0.00  0.00     0.141 C 
ATOM      3  N   UNL d   1      29.116 -14.238  -2.408  0.00  0.00    -0.283 NA
ATOM      4  C   UNL d   1      27.315 -14.873  -3.798  0.00  0.00     0.085 C 
ATOM      5  C   UNL d   1      27.773 -15.197  -4.958  0.00  0.00     0.071 C 
ATOM      6  C   UNL d   1      29.194 -15.084  -5.394  0.00  0.00     0.073 C 
ATOM      7  N   UNL d   1      26.792 -15.575  -5.854  0.00  0.00    -0.152 NA
ATOM      8  N   UNL d   1      25.670 -15.351  -5.325  0.00  0.00    -0.129 NA
ATOM      9  C   UNL d   1      25.893 -14.818  -4.072  0.00  0.00     0.185 C 
ATOM     10  N   UNL d   1      25.005 -14.311  -3.304  0.00  0.00    -0.232 NA
ATOM     11  C   UNL d   1      25.468 -14.533  -1.882  0.00  0.00     0.281 C 
ATOM     12  H   UNL d   1      29.373 -13.895  -1.478  0.00  0.00     0.188 HD
ENDROOT
BRANCH  11  13
ATOM     13  S   UNL d   1      24.922 -16.622  -1.958  0.00  0.00    -0.111 SA
BRANCH  13  14
ATOM     14  C   UNL d   1      24.593 -17.556  -0.117  0.00  0.00     0.181 C 
BRANCH  14  15
ATOM     15  C   UNL d   1      23.323 -18.506  -0.176  0.00  0.00     0.231 C 
ATOM     16  O   UNL d   1      23.185 -19.398  -1.021  0.00  0.00    -0.272 OA
ATOM     17  N   UNL d   1      22.205 -18.152   0.580  0.00  0.00    -0.327 N 
ATOM     18  H   UNL d   1      22.068 -17.208   0.921  0.00  0.00     0.169 HD
BRANCH  17  19
ATOM     19  C   UNL d   1      21.091 -19.030   0.547  0.00  0.00     0.034 C 
ATOM     20  C   UNL d   1      20.411 -19.310  -0.628  0.00  0.00     0.030 C 
ATOM     21  C   UNL d   1      19.229 -20.047  -0.529  0.00  0.00     0.009 C 
ATOM     22  C   UNL d   1      18.835 -20.630   0.691  0.00  0.00    -0.062 C 
ATOM     23  C   UNL d   1      17.618 -21.472   0.814  0.00  0.00     0.048 C 
ATOM     24  C   UNL d   1      19.582 -20.449   1.836  0.00  0.00     0.009 C 
ATOM     25  C   UNL d   1      20.655 -19.609   1.756  0.00  0.00     0.030 C 
ENDBRANCH  17  19
ENDBRANCH  14  15
ENDBRANCH  13  14
ENDBRANCH  11  13
BRANCH   1  26
ATOM     26  C   UNL d   1      27.289 -13.555  -0.270  0.00  0.00     0.072 C 
ATOM     27  C   UNL d   1      26.774 -14.012   0.947  0.00  0.00     0.033 C 
ATOM     28  C   UNL d   1      26.996 -13.320   2.171  0.00  0.00     0.002 C 
ATOM     29  C   UNL d   1      27.694 -12.118   2.231  0.00  0.00     0.003 C 
ATOM     30  C   UNL d   1      28.145 -11.595   1.065  0.00  0.00     0.039 C 
ATOM     31  C   UNL d   1      28.023 -12.367  -0.091  0.00  0.00     0.095 C 
BRANCH  31  32
ATOM     32  O   UNL d   1      28.848 -11.812  -0.975  0.00  0.00    -0.349 OA
BRANCH  32  33
ATOM     33  C   UNL d   1      28.422 -10.545  -1.242  0.00  0.00     0.171 C 
ATOM     34  C   UNL d   1      28.181 -10.767  -2.700  0.00  0.00     0.034 C 
ENDBRANCH  32  33
ENDBRANCH  31  32
ENDBRANCH   1  26
TORSDOF 7
ENDMDL
MODEL 3
REMARK VINA RESULT:    -9.891      3.679      5.155
REMARK INTER + INTRA:         -13.769
REMARK INTER:                 -11.979
REMARK INTRA:                  -1.791
REMARK CONF_INDEPENDENT:        2.088
REMARK UNBOUND:                -1.791
REMARK  7 active torsions:
REMARK  status: ('A' for Active; 'I' for Inactive)
REMARK    1  A    between atoms: C_2  and  O_3 
REMARK    2  A    between atoms: O_3  and  C_4 
REMARK    3  A    between atoms: C_9  and  N_10 
REMARK    4  A    between atoms: C_20  and  S_21 
REMARK    5  A    between atoms: S_21  and  C_22 
REMARK    6  A    between atoms: C_22  and  C_23 
REMARK       I    between atoms: C_23  and  N_25 
REMARK    7  A    between atoms: N_25  and  C_26 
ROOT
ATOM      1  N   UNL d   1      26.021 -11.557  -4.755  0.00  0.00    -0.296 N 
ATOM      2  C   UNL d   1      27.003 -11.949  -5.645  0.00  0.00     0.141 C 
ATOM      3  N   UNL d   1      27.658 -11.190  -6.461  0.00  0.00    -0.283 NA
ATOM      4  C   UNL d   1      27.374 -13.378  -5.618  0.00  0.00     0.085 C 
ATOM      5  C   UNL d   1      28.169 -14.176  -6.243  0.00  0.00     0.071 C 
ATOM      6  C   UNL d   1      29.047 -13.806  -7.390  0.00  0.00     0.073 C 
ATOM      7  N   UNL d   1      28.072 -15.490  -5.830  0.00  0.00    -0.152 NA
ATOM      8  N   UNL d   1      27.097 -15.580  -5.035  0.00  0.00    -0.129 NA
ATOM      9  C   UNL d   1      26.534 -14.326  -4.914  0.00  0.00     0.185 C 
ATOM     10  N   UNL d   1      25.430 -14.053  -4.328  0.00  0.00    -0.232 NA
ATOM     11  C   UNL d   1      25.548 -12.643  -3.795  0.00  0.00     0.281 C 
ATOM     12  H   UNL d   1      27.336 -10.220  -6.394  0.00  0.00     0.188 HD
ENDROOT
BRANCH  11  13
ATOM     13  S   UNL d   1      26.822 -13.288  -2.174  0.00  0.00    -0.111 SA
BRANCH  13  14
ATOM     14  C   UNL d   1      27.253 -15.332  -2.098  0.00  0.00     0.181 C 
BRANCH  14  15
ATOM     15  C   UNL d   1      25.925 -16.194  -2.007  0.00  0.00     0.231 C 
ATOM     16  O   UNL d   1      25.233 -16.475  -2.993  0.00  0.00    -0.272 OA
ATOM     17  N   UNL d   1      25.376 -16.418  -0.744  0.00  0.00    -0.327 N 
ATOM     18  H   UNL d   1      25.612 -15.839   0.052  0.00  0.00     0.169 HD
BRANCH  17  19
ATOM     19  C   UNL d   1      24.208 -17.222  -0.675  0.00  0.00     0.034 C 
ATOM     20  C   UNL d   1      24.266 -18.581  -0.408  0.00  0.00     0.030 C 
ATOM     21  C   UNL d   1      23.084 -19.314  -0.531  0.00  0.00     0.009 C 
ATOM     22  C   UNL d   1      21.849 -18.672  -0.747  0.00  0.00    -0.062 C 
ATOM     23  C   UNL d   1      20.566 -19.418  -0.818  0.00  0.00     0.048 C 
ATOM     24  C   UNL d   1      21.780 -17.303  -0.892  0.00  0.00     0.009 C 
ATOM     25  C   UNL d   1      22.959 -16.615  -0.914  0.00  0.00     0.030 C 
ENDBRANCH  17  19
ENDBRANCH  14  15
ENDBRANCH  13  14
ENDBRANCH  11  13
BRANCH   1  26
ATOM     26  C   UNL d   1      25.532 -10.206  -4.762  0.00  0.00     0.072 C 
ATOM     27  C   UNL d   1      25.053  -9.599  -5.927  0.00  0.00     0.033 C 
ATOM     28  C   UNL d   1      24.765  -8.206  -5.990  0.00  0.00     0.002 C 
ATOM     29  C   UNL d   1      24.992  -7.348  -4.919  0.00  0.00     0.003 C 
ATOM     30  C   UNL d   1      25.530  -7.879  -3.794  0.00  0.00     0.039 C 
ATOM     31  C   UNL d   1      25.673  -9.265  -3.725  0.00  0.00     0.095 C 
BRANCH  31  32
ATOM     32  O   UNL d   1      25.855  -9.538  -2.436  0.00  0.00    -0.349 OA
BRANCH  32  33
ATOM     33  C   UNL d   1      27.045  -9.005  -2.035  0.00  0.00     0.171 C 
ATOM     34  C   UNL d   1      27.498 -10.203  -1.265  0.00  0.00     0.034 C 
ENDBRANCH  32  33
ENDBRANCH  31  32
ENDBRANCH   1  26
TORSDOF 7
ENDMDL
MODEL 4
REMARK VINA RESULT:    -9.832      1.847      4.677
REMARK INTER + INTRA:         -13.609
REMARK INTER:                 -11.920
REMARK INTRA:                  -1.689
REMARK CONF_INDEPENDENT:        2.088
REMARK UNBOUND:                -1.689
REMARK  7 active torsions:
REMARK  status: ('A' for Active; 'I' for Inactive)
REMARK    1  A    between atoms: C_2  and  O_3 
REMARK    2  A    between atoms: O_3  and  C_4 
REMARK    3  A    between atoms: C_9  and  N_10 
REMARK    4  A    between atoms: C_20  and  S_21 
REMARK    5  A    between atoms: S_21  and  C_22 
REMARK    6  A    between atoms: C_22  and  C_23 
REMARK       I    between atoms: C_23  and  N_25 
REMARK    7  A    between atoms: N_25  and  C_26 
ROOT
ATOM      1  N   UNL d   1      27.756 -15.276  -1.979  0.00  0.00    -0.296 N 
ATOM      2  C   UNL d   1      27.680 -14.069  -1.311  0.00  0.00     0.141 C 
ATOM      3  N   UNL d   1      27.637 -12.891  -1.841  0.00  0.00    -0.283 NA
ATOM      4  C   UNL d   1      27.588 -14.144   0.161  0.00  0.00     0.085 C 
ATOM      5  C   UNL d   1      27.530 -13.335   1.162  0.00  0.00     0.071 C 
ATOM      6  C   UNL d   1      27.596 -11.848   1.083  0.00  0.00     0.073 C 
ATOM      7  N   UNL d   1      27.509 -13.972   2.388  0.00  0.00    -0.152 NA
ATOM      8  N   UNL d   1      27.708 -15.202   2.194  0.00  0.00    -0.129 NA
ATOM      9  C   UNL d   1      27.868 -15.394   0.837  0.00  0.00     0.185 C 
ATOM     10  N   UNL d   1      28.251 -16.477   0.273  0.00  0.00    -0.232 NA
ATOM     11  C   UNL d   1      27.616 -16.513  -1.098  0.00  0.00     0.281 C 
ATOM     12  H   UNL d   1      27.694 -12.948  -2.861  0.00  0.00     0.188 HD
ENDROOT
BRANCH  11  13
ATOM     13  S   UNL d   1      25.692 -17.041  -0.269  0.00  0.00    -0.111 SA
BRANCH  13  14
ATOM     14  C   UNL d   1      24.185 -17.487  -1.648  0.00  0.00     0.181 C 
BRANCH  14  15
ATOM     15  C   UNL d   1      23.096 -18.449  -1.013  0.00  0.00     0.231 C 
ATOM     16  O   UNL d   1      23.257 -19.671  -0.899  0.00  0.00    -0.272 OA
ATOM     17  N   UNL d   1      21.809 -17.945  -0.821  0.00  0.00    -0.327 N 
ATOM     18  H   UNL d   1      21.478 -17.125  -1.314  0.00  0.00     0.169 HD
BRANCH  17  19
ATOM     19  C   UNL d   1      20.855 -18.806  -0.219  0.00  0.00     0.034 C 
ATOM     20  C   UNL d   1      20.973 -19.229   1.096  0.00  0.00     0.030 C 
ATOM     21  C   UNL d   1      20.082 -20.207   1.542  0.00  0.00     0.009 C 
ATOM     22  C   UNL d   1      18.997 -20.620   0.744  0.00  0.00    -0.062 C 
ATOM     23  C   UNL d   1      17.995 -21.611   1.215  0.00  0.00     0.048 C 
ATOM     24  C   UNL d   1      18.813 -20.105  -0.521  0.00  0.00     0.009 C 
ATOM     25  C   UNL d   1      19.772 -19.259  -0.999  0.00  0.00     0.030 C 
ENDBRANCH  17  19
ENDBRANCH  14  15
ENDBRANCH  13  14
ENDBRANCH  11  13
BRANCH   1  26
ATOM     26  C   UNL d   1      27.933 -15.307  -3.405  0.00  0.00     0.072 C 
ATOM     27  C   UNL d   1      29.201 -15.301  -3.994  0.00  0.00     0.033 C 
ATOM     28  C   UNL d   1      29.385 -15.120  -5.393  0.00  0.00     0.002 C 
ATOM     29  C   UNL d   1      28.322 -14.883  -6.260  0.00  0.00     0.003 C 
ATOM     30  C   UNL d   1      27.081 -14.802  -5.723  0.00  0.00     0.039 C 
ATOM     31  C   UNL d   1      26.928 -15.116  -4.372  0.00  0.00     0.095 C 
BRANCH  31  32
ATOM     32  O   UNL d   1      25.625 -15.320  -4.202  0.00  0.00    -0.349 OA
BRANCH  32  33
ATOM     33  C   UNL d   1      25.160 -14.448  -3.262  0.00  0.00     0.171 C 
ATOM     34  C   UNL d   1      24.251 -13.700  -4.182  0.00  0.00     0.034 C 
ENDBRANCH  32  33
ENDBRANCH  31  32
ENDBRANCH   1  26
TORSDOF 7
ENDMDL
MODEL 5
REMARK VINA RESULT:    -9.735      4.281      5.854
REMARK INTER + INTRA:         -14.013
REMARK INTER:                 -11.823
REMARK INTRA:                  -2.190
REMARK CONF_INDEPENDENT:        2.088
REMARK UNBOUND:                -2.190
REMARK  7 active torsions:
REMARK  status: ('A' for Active; 'I' for Inactive)
REMARK    1  A    between atoms: C_2  and  O_3 
REMARK    2  A    between atoms: O_3  and  C_4 
REMARK    3  A    between atoms: C_9  and  N_10 
REMARK    4  A    between atoms: C_20  and  S_21 
REMARK    5  A    between atoms: S_21  and  C_22 
REMARK    6  A    between atoms: C_22  and  C_23 
REMARK       I    between atoms: C_23  and  N_25 
REMARK    7  A    between atoms: N_25  and  C_26 
ROOT
ATOM      1  N   UNL d   1      26.244 -11.482  -4.905  0.00  0.00    -0.296 N 
ATOM      2  C   UNL d   1      27.259 -11.962  -5.711  0.00  0.00     0.141 C 
ATOM      3  N   UNL d   1      28.028 -11.270  -6.486  0.00  0.00    -0.283 NA
ATOM      4  C   UNL d   1      27.520 -13.413  -5.633  0.00  0.00     0.085 C 
ATOM      5  C   UNL d   1      28.300 -14.280  -6.183  0.00  0.00     0.071 C 
ATOM      6  C   UNL d   1      29.286 -13.999  -7.264  0.00  0.00     0.073 C 
ATOM      7  N   UNL d   1      28.075 -15.575  -5.758  0.00  0.00    -0.152 NA
ATOM      8  N   UNL d   1      27.039 -15.577  -5.038  0.00  0.00    -0.129 NA
ATOM      9  C   UNL d   1      26.563 -14.283  -4.981  0.00  0.00     0.185 C 
ATOM     10  N   UNL d   1      25.440 -13.919  -4.486  0.00  0.00    -0.232 NA
ATOM     11  C   UNL d   1      25.621 -12.510  -3.968  0.00  0.00     0.281 C 
ATOM     12  H   UNL d   1      27.774 -10.278  -6.459  0.00  0.00     0.188 HD
ENDROOT
BRANCH  11  13
ATOM     13  S   UNL d   1      26.718 -13.210  -2.244  0.00  0.00    -0.111 SA
BRANCH  13  14
ATOM     14  C   UNL d   1      27.182 -15.248  -2.212  0.00  0.00     0.181 C 
BRANCH  14  15
ATOM     15  C   UNL d   1      25.872 -16.132  -2.081  0.00  0.00     0.231 C 
ATOM     16  O   UNL d   1      25.154 -16.424  -3.046  0.00  0.00    -0.272 OA
ATOM     17  N   UNL d   1      25.364 -16.365  -0.803  0.00  0.00    -0.327 N 
ATOM     18  H   UNL d   1      25.615 -15.783  -0.014  0.00  0.00     0.169 HD
BRANCH  17  19
ATOM     19  C   UNL d   1      24.213 -17.188  -0.699  0.00  0.00     0.034 C 
ATOM     20  C   UNL d   1      24.301 -18.546  -0.434  0.00  0.00     0.030 C 
ATOM     21  C   UNL d   1      23.128 -19.298  -0.521  0.00  0.00     0.009 C 
ATOM     22  C   UNL d   1      21.876 -18.676  -0.700  0.00  0.00    -0.062 C 
ATOM     23  C   UNL d   1      20.604 -19.442  -0.732  0.00  0.00     0.048 C 
ATOM     24  C   UNL d   1      21.780 -17.308  -0.842  0.00  0.00     0.009 C 
ATOM     25  C   UNL d   1      22.947 -16.601  -0.899  0.00  0.00     0.030 C 
ENDBRANCH  17  19
ENDBRANCH  14  15
ENDBRANCH  13  14
ENDBRANCH  11  13
BRANCH   1  26
ATOM     26  C   UNL d   1      25.858 -10.099  -4.971  0.00  0.00     0.072 C 
ATOM     27  C   UNL d   1      25.539  -9.364  -3.826  0.00  0.00     0.033 C 
ATOM     28  C   UNL d   1      24.958  -8.066  -3.897  0.00  0.00     0.002 C 
ATOM     29  C   UNL d   1      24.617  -7.467  -5.105  0.00  0.00     0.003 C 
ATOM     30  C   UNL d   1      24.835  -8.176  -6.240  0.00  0.00     0.039 C 
ATOM     31  C   UNL d   1      25.527  -9.383  -6.138  0.00  0.00     0.095 C 
BRANCH  31  32
ATOM     32  O   UNL d   1      25.922  -9.670  -7.374  0.00  0.00    -0.349 OA
BRANCH  32  33
ATOM     33  C   UNL d   1      26.728  -8.667  -7.825  0.00  0.00     0.171 C 
ATOM     34  C   UNL d   1      26.656  -9.048  -9.268  0.00  0.00     0.034 C 
ENDBRANCH  32  33
ENDBRANCH  31  32
ENDBRANCH   1  26
TORSDOF 7
ENDMDL
MODEL 6
REMARK VINA RESULT:    -9.090      2.650      5.602
REMARK INTER + INTRA:         -14.494
REMARK INTER:                 -11.178
REMARK INTRA:                  -3.316
REMARK CONF_INDEPENDENT:        2.088
REMARK UNBOUND:                -3.316
REMARK  7 active torsions:
REMARK  status: ('A' for Active; 'I' for Inactive)
REMARK    1  A    between atoms: C_2  and  O_3 
REMARK    2  A    between atoms: O_3  and  C_4 
REMARK    3  A    between atoms: C_9  and  N_10 
REMARK    4  A    between atoms: C_20  and  S_21 
REMARK    5  A    between atoms: S_21  and  C_22 
REMARK    6  A    between atoms: C_22  and  C_23 
REMARK       I    between atoms: C_23  and  N_25 
REMARK    7  A    between atoms: N_25  and  C_26 
ROOT
ATOM      1  N   UNL d   1      29.515 -15.443  -4.489  0.00  0.00    -0.296 N 
ATOM      2  C   UNL d   1      28.197 -15.156  -4.788  0.00  0.00     0.141 C 
ATOM      3  N   UNL d   1      27.636 -15.209  -5.952  0.00  0.00    -0.283 NA
ATOM      4  C   UNL d   1      27.331 -14.804  -3.645  0.00  0.00     0.085 C 
ATOM      5  C   UNL d   1      26.110 -14.450  -3.438  0.00  0.00     0.071 C 
ATOM      6  C   UNL d   1      25.081 -14.221  -4.492  0.00  0.00     0.073 C 
ATOM      7  N   UNL d   1      25.830 -14.176  -2.113  0.00  0.00    -0.152 NA
ATOM      8  N   UNL d   1      26.913 -14.205  -1.469  0.00  0.00    -0.129 NA
ATOM      9  C   UNL d   1      27.926 -14.493  -2.361  0.00  0.00     0.185 C 
ATOM     10  N   UNL d   1      29.180 -14.441  -2.113  0.00  0.00    -0.232 NA
ATOM     11  C   UNL d   1      29.851 -15.464  -3.002  0.00  0.00     0.281 C 
ATOM     12  H   UNL d   1      28.315 -15.473  -6.671  0.00  0.00     0.188 HD
ENDROOT
BRANCH  11  13
ATOM     13  S   UNL d   1      29.168 -17.093  -1.759  0.00  0.00    -0.111 SA
BRANCH  13  14
ATOM     14  C   UNL d   1      28.199 -16.557   0.014  0.00  0.00     0.181 C 
BRANCH  14  15
ATOM     15  C   UNL d   1      26.719 -17.124   0.052  0.00  0.00     0.231 C 
ATOM     16  O   UNL d   1      26.383 -18.092   0.746  0.00  0.00    -0.272 OA
ATOM     17  N   UNL d   1      25.826 -16.690  -0.928  0.00  0.00    -0.327 N 
ATOM     18  H   UNL d   1      26.144 -16.273  -1.794  0.00  0.00     0.169 HD
BRANCH  17  19
ATOM     19  C   UNL d   1      24.495 -17.177  -0.859  0.00  0.00     0.034 C 
ATOM     20  C   UNL d   1      23.405 -16.327  -0.755  0.00  0.00     0.030 C 
ATOM     21  C   UNL d   1      22.156 -16.906  -0.521  0.00  0.00     0.009 C 
ATOM     22  C   UNL d   1      21.981 -18.303  -0.563  0.00  0.00    -0.062 C 
ATOM     23  C   UNL d   1      20.654 -18.945  -0.382  0.00  0.00     0.048 C 
ATOM     24  C   UNL d   1      23.051 -19.143  -0.788  0.00  0.00     0.009 C 
ATOM     25  C   UNL d   1      24.289 -18.572  -0.872  0.00  0.00     0.030 C 
ENDBRANCH  17  19
ENDBRANCH  14  15
ENDBRANCH  13  14
ENDBRANCH  11  13
BRANCH   1  26
ATOM     26  C   UNL d   1      30.455 -15.715  -5.541  0.00  0.00     0.072 C 
ATOM     27  C   UNL d   1      31.291 -14.723  -6.062  0.00  0.00     0.033 C 
ATOM     28  C   UNL d   1      32.070 -14.928  -7.236  0.00  0.00     0.002 C 
ATOM     29  C   UNL d   1      32.010 -16.107  -7.972  0.00  0.00     0.003 C 
ATOM     30  C   UNL d   1      31.154 -17.068  -7.550  0.00  0.00     0.039 C 
ATOM     31  C   UNL d   1      30.511 -16.883  -6.326  0.00  0.00     0.095 C 
BRANCH  31  32
ATOM     32  O   UNL d   1      30.050 -18.082  -5.983  0.00  0.00    -0.349 OA
BRANCH  32  33
ATOM     33  C   UNL d   1      30.961 -18.690  -5.170  0.00  0.00     0.171 C 
ATOM     34  C   UNL d   1      30.520 -20.087  -5.462  0.00  0.00     0.034 C 
ENDBRANCH  32  33
ENDBRANCH  31  32
ENDBRANCH   1  26
TORSDOF 7
ENDMDL
MODEL 7
REMARK VINA RESULT:    -8.791      3.074      4.554
REMARK INTER + INTRA:         -13.882
REMARK INTER:                 -10.879
REMARK INTRA:                  -3.003
REMARK CONF_INDEPENDENT:        2.088
REMARK UNBOUND:                -3.003
REMARK  7 active torsions:
REMARK  status: ('A' for Active; 'I' for Inactive)
REMARK    1  A    between atoms: C_2  and  O_3 
REMARK    2  A    between atoms: O_3  and  C_4 
REMARK    3  A    between atoms: C_9  and  N_10 
REMARK    4  A    between atoms: C_20  and  S_21 
REMARK    5  A    between atoms: S_21  and  C_22 
REMARK    6  A    between atoms: C_22  and  C_23 
REMARK       I    between atoms: C_23  and  N_25 
REMARK    7  A    between atoms: N_25  and  C_26 
ROOT
ATOM      1  N   UNL d   1      27.215 -12.137  -2.772  0.00  0.00    -0.296 N 
ATOM      2  C   UNL d   1      27.655 -12.139  -4.082  0.00  0.00     0.141 C 
ATOM      3  N   UNL d   1      28.193 -11.153  -4.722  0.00  0.00    -0.283 NA
ATOM      4  C   UNL d   1      27.541 -13.422  -4.804  0.00  0.00     0.085 C 
ATOM      5  C   UNL d   1      27.779 -13.885  -5.984  0.00  0.00     0.071 C 
ATOM      6  C   UNL d   1      28.278 -13.094  -7.144  0.00  0.00     0.073 C 
ATOM      7  N   UNL d   1      27.420 -15.210  -6.141  0.00  0.00    -0.152 NA
ATOM      8  N   UNL d   1      26.802 -15.574  -5.103  0.00  0.00    -0.129 NA
ATOM      9  C   UNL d   1      26.741 -14.494  -4.247  0.00  0.00     0.185 C 
ATOM     10  N   UNL d   1      26.052 -14.428  -3.171  0.00  0.00    -0.232 NA
ATOM     11  C   UNL d   1      26.783 -13.496  -2.232  0.00  0.00     0.281 C 
ATOM     12  H   UNL d   1      28.237 -10.318  -4.132  0.00  0.00     0.188 HD
ENDROOT
BRANCH  11  13
ATOM     13  S   UNL d   1      28.264 -15.002  -1.779  0.00  0.00    -0.111 SA
BRANCH  13  14
ATOM     14  C   UNL d   1      28.030 -16.007   0.039  0.00  0.00     0.181 C 
BRANCH  14  15
ATOM     15  C   UNL d   1      26.634 -16.757   0.103  0.00  0.00     0.231 C 
ATOM     16  O   UNL d   1      26.419 -17.724   0.846  0.00  0.00    -0.272 OA
ATOM     17  N   UNL d   1      25.701 -16.491  -0.900  0.00  0.00    -0.327 N 
ATOM     18  H   UNL d   1      25.971 -16.082  -1.785  0.00  0.00     0.169 HD
BRANCH  17  19
ATOM     19  C   UNL d   1      24.443 -17.142  -0.808  0.00  0.00     0.034 C 
ATOM     20  C   UNL d   1      23.251 -16.436  -0.786  0.00  0.00     0.030 C 
ATOM     21  C   UNL d   1      22.081 -17.152  -0.522  0.00  0.00     0.009 C 
ATOM     22  C   UNL d   1      22.090 -18.560  -0.453  0.00  0.00    -0.062 C 
ATOM     23  C   UNL d   1      20.853 -19.353  -0.238  0.00  0.00     0.048 C 
ATOM     24  C   UNL d   1      23.265 -19.267  -0.598  0.00  0.00     0.009 C 
ATOM     25  C   UNL d   1      24.419 -18.548  -0.711  0.00  0.00     0.030 C 
ENDBRANCH  17  19
ENDBRANCH  14  15
ENDBRANCH  13  14
ENDBRANCH  11  13
BRANCH   1  26
ATOM     26  C   UNL d   1      27.206 -10.918  -2.012  0.00  0.00     0.072 C 
ATOM     27  C   UNL d   1      27.558 -10.885  -0.659  0.00  0.00     0.033 C 
ATOM     28  C   UNL d   1      27.351  -9.732   0.149  0.00  0.00     0.002 C 
ATOM     29  C   UNL d   1      26.738  -8.581  -0.337  0.00  0.00     0.003 C 
ATOM     30  C   UNL d   1      26.309  -8.594  -1.622  0.00  0.00     0.039 C 
ATOM     31  C   UNL d   1      26.647  -9.690  -2.416  0.00  0.00     0.095 C 
BRANCH  31  32
ATOM     32  O   UNL d   1      26.445  -9.294  -3.670  0.00  0.00    -0.349 OA
BRANCH  32  33
ATOM     33  C   UNL d   1      25.144  -8.909  -3.807  0.00  0.00     0.171 C 
ATOM     34  C   UNL d   1      25.345  -8.131  -5.067  0.00  0.00     0.034 C 
ENDBRANCH  32  33
ENDBRANCH  31  32
ENDBRANCH   1  26
TORSDOF 7
ENDMDL
MODEL 8
REMARK VINA RESULT:    -8.618      2.609      5.834
REMARK INTER + INTRA:         -14.459
REMARK INTER:                 -10.706
REMARK INTRA:                  -3.753
REMARK CONF_INDEPENDENT:        2.088
REMARK UNBOUND:                -3.753
REMARK  7 active torsions:
REMARK  status: ('A' for Active; 'I' for Inactive)
REMARK    1  A    between atoms: C_2  and  O_3 
REMARK    2  A    between atoms: O_3  and  C_4 
REMARK    3  A    between atoms: C_9  and  N_10 
REMARK    4  A    between atoms: C_20  and  S_21 
REMARK    5  A    between atoms: S_21  and  C_22 
REMARK    6  A    between atoms: C_22  and  C_23 
REMARK       I    between atoms: C_23  and  N_25 
REMARK    7  A    between atoms: N_25  and  C_26 
ROOT
ATOM      1  N   UNL d   1      29.488 -15.771  -4.418  0.00  0.00    -0.296 N 
ATOM      2  C   UNL d   1      28.165 -15.446  -4.649  0.00  0.00     0.141 C 
ATOM      3  N   UNL d   1      27.528 -15.536  -5.770  0.00  0.00    -0.283 NA
ATOM      4  C   UNL d   1      27.390 -14.997  -3.474  0.00  0.00     0.085 C 
ATOM      5  C   UNL d   1      26.199 -14.582  -3.211  0.00  0.00     0.071 C 
ATOM      6  C   UNL d   1      25.112 -14.367  -4.208  0.00  0.00     0.073 C 
ATOM      7  N   UNL d   1      26.016 -14.227  -1.888  0.00  0.00    -0.152 NA
ATOM      8  N   UNL d   1      27.138 -14.267  -1.313  0.00  0.00    -0.129 NA
ATOM      9  C   UNL d   1      28.079 -14.644  -2.250  0.00  0.00     0.185 C 
ATOM     10  N   UNL d   1      29.348 -14.631  -2.085  0.00  0.00    -0.232 NA
ATOM     11  C   UNL d   1      29.919 -15.727  -2.956  0.00  0.00     0.281 C 
ATOM     12  H   UNL d   1      28.148 -15.867  -6.515  0.00  0.00     0.188 HD
ENDROOT
BRANCH  11  13
ATOM     13  S   UNL d   1      29.257 -17.258  -1.584  0.00  0.00    -0.111 SA
BRANCH  13  14
ATOM     14  C   UNL d   1      28.205 -16.597   0.098  0.00  0.00     0.181 C 
BRANCH  14  15
ATOM     15  C   UNL d   1      26.725 -17.167   0.108  0.00  0.00     0.231 C 
ATOM     16  O   UNL d   1      26.390 -18.167   0.756  0.00  0.00    -0.272 OA
ATOM     17  N   UNL d   1      25.832 -16.688  -0.851  0.00  0.00    -0.327 N 
ATOM     18  H   UNL d   1      26.151 -16.231  -1.696  0.00  0.00     0.169 HD
BRANCH  17  19
ATOM     19  C   UNL d   1      24.502 -17.180  -0.805  0.00  0.00     0.034 C 
ATOM     20  C   UNL d   1      23.407 -16.333  -0.733  0.00  0.00     0.030 C 
ATOM     21  C   UNL d   1      22.155 -16.913  -0.520  0.00  0.00     0.009 C 
ATOM     22  C   UNL d   1      21.986 -18.311  -0.552  0.00  0.00    -0.062 C 
ATOM     23  C   UNL d   1      20.658 -18.956  -0.393  0.00  0.00     0.048 C 
ATOM     24  C   UNL d   1      23.064 -19.149  -0.746  0.00  0.00     0.009 C 
ATOM     25  C   UNL d   1      24.301 -18.575  -0.808  0.00  0.00     0.030 C 
ENDBRANCH  17  19
ENDBRANCH  14  15
ENDBRANCH  13  14
ENDBRANCH  11  13
BRANCH   1  26
ATOM     26  C   UNL d   1      30.346 -16.137  -5.510  0.00  0.00     0.072 C 
ATOM     27  C   UNL d   1      31.307 -17.146  -5.391  0.00  0.00     0.033 C 
ATOM     28  C   UNL d   1      32.296 -17.371  -6.390  0.00  0.00     0.002 C 
ATOM     29  C   UNL d   1      32.406 -16.572  -7.523  0.00  0.00     0.003 C 
ATOM     30  C   UNL d   1      31.545 -15.533  -7.644  0.00  0.00     0.039 C 
ATOM     31  C   UNL d   1      30.510 -15.426  -6.714  0.00  0.00     0.095 C 
BRANCH  31  32
ATOM     32  O   UNL d   1      29.632 -14.588  -7.257  0.00  0.00    -0.349 OA
BRANCH  32  33
ATOM     33  C   UNL d   1      29.967 -13.312  -6.914  0.00  0.00     0.171 C 
ATOM     34  C   UNL d   1      28.567 -12.790  -6.874  0.00  0.00     0.034 C 
ENDBRANCH  32  33
ENDBRANCH  31  32
ENDBRANCH   1  26
TORSDOF 7
ENDMDL
