MODEL 1
REMARK VINA RESULT:   -10.171      0.000      0.000
REMARK INTER + INTRA:         -14.645
REMARK INTER:                 -12.558
REMARK INTRA:                  -2.087
REMARK CONF_INDEPENDENT:        2.386
REMARK UNBOUND:                -2.087
REMARK  8 active torsions:
REMARK  status: ('A' for Active; 'I' for Inactive)
REMARK    1  A    between atoms: C_3  and  C_4 
REMARK    2  A    between atoms: C_4  and  C_5 
REMARK       I    between atoms: C_5  and  N_7 
REMARK    3  A    between atoms: N_7  and  CA_8 
REMARK    4  A    between atoms: CA_8  and  C_9 
REMARK    5  A    between atoms: CA_8  and  C_20 
REMARK    6  A    between atoms: C_9  and  C_10 
REMARK    7  A    between atoms: C_16  and  O_17 
REMARK    8  A    between atoms: C_29  and  O_30 
ROOT
ATOM      1  C   UNL d   1      26.931 -16.116  -0.028  0.00  0.00     0.222 C 
ATOM      2  O   UNL d   1      26.311 -17.186  -0.002  0.00  0.00    -0.273 OA
ATOM      3  N   UNL d   1      26.796 -15.429  -1.171  0.00  0.00    -0.346 N 
ATOM      4  H   UNL d   1      27.644 -15.003  -1.602  0.00  0.00     0.163 HD
ENDROOT
BRANCH   3   5
ATOM      5  CA  UNL d   1      25.863 -16.080  -2.200  0.00  0.00     0.186 C 
BRANCH   5   6
ATOM      6  C   UNL d   1      24.130 -16.336  -1.740  0.00  0.00     0.054 C 
BRANCH   6   7
ATOM      7  C   UNL d   1      23.126 -17.760  -1.155  0.00  0.00     0.028 C 
ATOM      8  C   UNL d   1      22.442 -17.129  -0.134  0.00  0.00     0.120 C 
ATOM      9  N   UNL d   1      22.633 -18.163   0.745  0.00  0.00    -0.382 N 
ATOM     10  C   UNL d   1      21.648 -19.031   0.385  0.00  0.00     0.035 C 
ATOM     11  H   UNL d   1      23.540 -18.542   0.995  0.00  0.00     0.160 HD
ATOM     12  C   UNL d   1      20.655 -19.468   1.299  0.00  0.00     0.032 C 
ATOM     13  C   UNL d   1      21.738 -18.937  -1.028  0.00  0.00    -0.017 C 
ATOM     14  C   UNL d   1      19.354 -19.686   0.932  0.00  0.00     0.039 C 
ATOM     15  C   UNL d   1      19.173 -19.829  -0.415  0.00  0.00     0.066 C 
ATOM     16  C   UNL d   1      20.287 -19.454  -1.423  0.00  0.00     0.046 C 
BRANCH  15  17
ATOM     17  O   UNL d   1      17.964 -20.451  -0.747  0.00  0.00    -0.361 OA
ATOM     18  H   UNL d   1      17.867 -20.529  -1.729  0.00  0.00     0.217 HD
ENDBRANCH  15  17
ENDBRANCH   6   7
ENDBRANCH   5   6
BRANCH   5  19
ATOM     19  C   UNL d   1      26.168 -15.235  -3.565  0.00  0.00     0.196 C 
ATOM     20  O   UNL d   1      27.365 -14.783  -3.651  0.00  0.00    -0.646 OA
ATOM     21  OXT UNL d   1      25.238 -15.180  -4.413  0.00  0.00    -0.646 OA
ENDBRANCH   5  19
ENDBRANCH   3   5
BRANCH   1  22
ATOM     22  C   UNL d   1      27.810 -15.619   1.106  0.00  0.00     0.148 C 
BRANCH  22  23
ATOM     23  C   UNL d   1      27.520 -14.195   1.597  0.00  0.00     0.033 C 
ATOM     24  C   UNL d   1      27.722 -13.873   2.905  0.00  0.00    -0.036 C 
ATOM     25  C   UNL d   1      28.254 -14.826   3.955  0.00  0.00     0.050 C 
ATOM     26  C   UNL d   1      27.481 -12.489   3.357  0.00  0.00     0.005 C 
ATOM     27  C   UNL d   1      27.780 -12.004   4.622  0.00  0.00     0.017 C 
ATOM     28  C   UNL d   1      26.965 -11.567   2.465  0.00  0.00     0.099 C 
ATOM     29  C   UNL d   1      27.759 -10.627   4.859  0.00  0.00     0.038 C 
ATOM     30  C   UNL d   1      27.155  -9.760   3.951  0.00  0.00     0.074 C 
ATOM     31  C   UNL d   1      26.700 -10.228   2.737  0.00  0.00     0.006 C 
ATOM     32  C   UNL d   1      25.965  -9.382   1.735  0.00  0.00     0.054 C 
ATOM     33  O   UNL d   1      26.680 -11.920   1.172  0.00  0.00    -0.274 OA
ATOM     34  C   UNL d   1      27.032 -13.117   0.664  0.00  0.00     0.295 C 
ATOM     35  O   UNL d   1      26.913 -13.112  -0.576  0.00  0.00    -0.259 OA
BRANCH  30  36
ATOM     36  O   UNL d   1      27.001  -8.460   4.323  0.00  0.00    -0.360 OA
ATOM     37  H   UNL d   1      26.659  -8.449   5.231  0.00  0.00     0.217 HD
ENDBRANCH  30  36
ENDBRANCH  22  23
ENDBRANCH   1  22
TORSDOF 8
ENDMDL
MODEL 2
REMARK VINA RESULT:    -9.059      4.126      9.528
REMARK INTER + INTRA:         -13.896
REMARK INTER:                 -11.446
REMARK INTRA:                  -2.451
REMARK CONF_INDEPENDENT:        2.386
REMARK UNBOUND:                -2.451
REMARK  8 active torsions:
REMARK  status: ('A' for Active; 'I' for Inactive)
REMARK    1  A    between atoms: C_3  and  C_4 
REMARK    2  A    between atoms: C_4  and  C_5 
REMARK       I    between atoms: C_5  and  N_7 
REMARK    3  A    between atoms: N_7  and  CA_8 
REMARK    4  A    between atoms: CA_8  and  C_9 
REMARK    5  A    between atoms: CA_8  and  C_20 
REMARK    6  A    between atoms: C_9  and  C_10 
REMARK    7  A    between atoms: C_16  and  O_17 
REMARK    8  A    between atoms: C_29  and  O_30 
ROOT
ATOM      1  C   UNL d   1      27.862 -13.150   3.304  0.00  0.00     0.222 C 
ATOM      2  O   UNL d   1      27.035 -13.308   4.210  0.00  0.00    -0.273 OA
ATOM      3  N   UNL d   1      28.389 -11.919   3.250  0.00  0.00    -0.346 N 
ATOM      4  H   UNL d   1      28.484 -11.456   2.321  0.00  0.00     0.163 HD
ENDROOT
BRANCH   3   5
ATOM      5  CA  UNL d   1      27.900 -10.966   4.347  0.00  0.00     0.186 C 
BRANCH   5   6
ATOM      6  C   UNL d   1      29.006 -10.632   5.742  0.00  0.00     0.054 C 
BRANCH   6   7
ATOM      7  C   UNL d   1      29.392 -11.461   7.336  0.00  0.00     0.028 C 
ATOM      8  C   UNL d   1      28.155 -12.025   7.584  0.00  0.00     0.120 C 
ATOM      9  N   UNL d   1      28.158 -11.653   8.904  0.00  0.00    -0.382 N 
ATOM     10  C   UNL d   1      28.913 -12.630   9.476  0.00  0.00     0.035 C 
ATOM     11  H   UNL d   1      28.278 -10.700   9.229  0.00  0.00     0.160 HD
ATOM     12  C   UNL d   1      28.417 -13.456  10.517  0.00  0.00     0.032 C 
ATOM     13  C   UNL d   1      29.941 -12.750   8.505  0.00  0.00    -0.017 C 
ATOM     14  C   UNL d   1      28.738 -14.783  10.628  0.00  0.00     0.039 C 
ATOM     15  C   UNL d   1      29.847 -15.148   9.917  0.00  0.00     0.066 C 
ATOM     16  C   UNL d   1      30.463 -14.213   8.848  0.00  0.00     0.046 C 
BRANCH  15  17
ATOM     17  O   UNL d   1      30.406 -16.356  10.348  0.00  0.00    -0.361 OA
ATOM     18  H   UNL d   1      30.442 -17.010   9.606  0.00  0.00     0.217 HD
ENDBRANCH  15  17
ENDBRANCH   6   7
ENDBRANCH   5   6
BRANCH   5  19
ATOM     19  C   UNL d   1      27.336  -9.685   3.504  0.00  0.00     0.196 C 
ATOM     20  O   UNL d   1      28.004  -9.415   2.443  0.00  0.00    -0.646 OA
ATOM     21  OXT UNL d   1      26.279  -9.151   3.931  0.00  0.00    -0.646 OA
ENDBRANCH   5  19
ENDBRANCH   3   5
BRANCH   1  22
ATOM     22  C   UNL d   1      28.236 -14.227   2.302  0.00  0.00     0.148 C 
BRANCH  22  23
ATOM     23  C   UNL d   1      27.600 -14.092   0.913  0.00  0.00     0.033 C 
ATOM     24  C   UNL d   1      27.210 -15.207   0.234  0.00  0.00    -0.036 C 
ATOM     25  C   UNL d   1      27.327 -16.622   0.760  0.00  0.00     0.050 C 
ATOM     26  C   UNL d   1      26.559 -15.063  -1.083  0.00  0.00     0.005 C 
ATOM     27  C   UNL d   1      25.994 -16.103  -1.807  0.00  0.00     0.017 C 
ATOM     28  C   UNL d   1      26.442 -13.805  -1.646  0.00  0.00     0.099 C 
ATOM     29  C   UNL d   1      25.178 -15.820  -2.906  0.00  0.00     0.038 C 
ATOM     30  C   UNL d   1      25.166 -14.547  -3.470  0.00  0.00     0.074 C 
ATOM     31  C   UNL d   1      25.843 -13.510  -2.866  0.00  0.00     0.006 C 
ATOM     32  C   UNL d   1      25.951 -12.127  -3.449  0.00  0.00     0.054 C 
ATOM     33  O   UNL d   1      26.918 -12.696  -0.997  0.00  0.00    -0.274 OA
ATOM     34  C   UNL d   1      27.368 -12.749   0.272  0.00  0.00     0.295 C 
ATOM     35  O   UNL d   1      27.494 -11.599   0.734  0.00  0.00    -0.259 OA
BRANCH  30  36
ATOM     36  O   UNL d   1      24.499 -14.381  -4.645  0.00  0.00    -0.360 OA
ATOM     37  H   UNL d   1      23.712 -13.841  -4.467  0.00  0.00     0.217 HD
ENDBRANCH  30  36
ENDBRANCH  22  23
ENDBRANCH   1  22
TORSDOF 8
ENDMDL
MODEL 3
REMARK VINA RESULT:    -8.319      4.015      9.615
REMARK INTER + INTRA:         -12.683
REMARK INTER:                 -10.705
REMARK INTRA:                  -1.978
REMARK CONF_INDEPENDENT:        2.386
REMARK UNBOUND:                -1.978
REMARK  8 active torsions:
REMARK  status: ('A' for Active; 'I' for Inactive)
REMARK    1  A    between atoms: C_3  and  C_4 
REMARK    2  A    between atoms: C_4  and  C_5 
REMARK       I    between atoms: C_5  and  N_7 
REMARK    3  A    between atoms: N_7  and  CA_8 
REMARK    4  A    between atoms: CA_8  and  C_9 
REMARK    5  A    between atoms: CA_8  and  C_20 
REMARK    6  A    between atoms: C_9  and  C_10 
REMARK    7  A    between atoms: C_16  and  O_17 
REMARK    8  A    between atoms: C_29  and  O_30 
ROOT
ATOM      1  C   UNL d   1      28.397 -12.929   3.205  0.00  0.00     0.222 C 
ATOM      2  O   UNL d   1      27.848 -13.329   4.238  0.00  0.00    -0.273 OA
ATOM      3  N   UNL d   1      28.473 -11.594   3.104  0.00  0.00    -0.346 N 
ATOM      4  H   UNL d   1      28.238 -11.147   2.192  0.00  0.00     0.163 HD
ENDROOT
BRANCH   3   5
ATOM      5  CA  UNL d   1      27.911 -10.830   4.308  0.00  0.00     0.186 C 
BRANCH   5   6
ATOM      6  C   UNL d   1      29.018 -10.501   5.704  0.00  0.00     0.054 C 
BRANCH   6   7
ATOM      7  C   UNL d   1      29.396 -11.331   7.299  0.00  0.00     0.028 C 
ATOM      8  C   UNL d   1      28.156 -11.889   7.544  0.00  0.00     0.120 C 
ATOM      9  N   UNL d   1      28.156 -11.515   8.863  0.00  0.00    -0.382 N 
ATOM     10  C   UNL d   1      28.906 -12.495   9.439  0.00  0.00     0.035 C 
ATOM     11  H   UNL d   1      28.279 -10.563   9.188  0.00  0.00     0.160 HD
ATOM     12  C   UNL d   1      28.403 -13.317  10.480  0.00  0.00     0.032 C 
ATOM     13  C   UNL d   1      29.937 -12.620   8.471  0.00  0.00    -0.017 C 
ATOM     14  C   UNL d   1      28.719 -14.646  10.594  0.00  0.00     0.039 C 
ATOM     15  C   UNL d   1      29.829 -15.016   9.886  0.00  0.00     0.066 C 
ATOM     16  C   UNL d   1      30.451 -14.085   8.818  0.00  0.00     0.046 C 
BRANCH  15  17
ATOM     17  O   UNL d   1      30.382 -16.226  10.320  0.00  0.00    -0.361 OA
ATOM     18  H   UNL d   1      30.293 -16.922   9.622  0.00  0.00     0.217 HD
ENDBRANCH  15  17
ENDBRANCH   6   7
ENDBRANCH   5   6
BRANCH   5  19
ATOM     19  C   UNL d   1      27.159  -9.552   3.620  0.00  0.00     0.196 C 
ATOM     20  O   UNL d   1      26.653  -8.722   4.457  0.00  0.00    -0.646 OA
ATOM     21  OXT UNL d   1      27.217  -9.473   2.365  0.00  0.00    -0.646 OA
ENDBRANCH   5  19
ENDBRANCH   3   5
BRANCH   1  22
ATOM     22  C   UNL d   1      28.911 -13.846   2.110  0.00  0.00     0.148 C 
BRANCH  22  23
ATOM     23  C   UNL d   1      27.946 -14.094   0.943  0.00  0.00     0.033 C 
ATOM     24  C   UNL d   1      27.716 -13.107   0.031  0.00  0.00    -0.036 C 
ATOM     25  C   UNL d   1      28.374 -11.744   0.052  0.00  0.00     0.050 C 
ATOM     26  C   UNL d   1      26.819 -13.371  -1.111  0.00  0.00     0.005 C 
ATOM     27  C   UNL d   1      26.614 -12.504  -2.175  0.00  0.00     0.017 C 
ATOM     28  C   UNL d   1      26.157 -14.582  -1.185  0.00  0.00     0.099 C 
ATOM     29  C   UNL d   1      25.959 -12.959  -3.322  0.00  0.00     0.038 C 
ATOM     30  C   UNL d   1      25.245 -14.154  -3.305  0.00  0.00     0.074 C 
ATOM     31  C   UNL d   1      25.295 -14.981  -2.203  0.00  0.00     0.006 C 
ATOM     32  C   UNL d   1      24.494 -16.246  -2.066  0.00  0.00     0.054 C 
ATOM     33  O   UNL d   1      26.323 -15.537  -0.216  0.00  0.00    -0.274 OA
ATOM     34  C   UNL d   1      27.250 -15.417   0.754  0.00  0.00     0.295 C 
ATOM     35  O   UNL d   1      27.399 -16.502   1.346  0.00  0.00    -0.259 OA
BRANCH  30  36
ATOM     36  O   UNL d   1      24.478 -14.450  -4.389  0.00  0.00    -0.360 OA
ATOM     37  H   UNL d   1      24.232 -13.614  -4.817  0.00  0.00     0.217 HD
ENDBRANCH  30  36
ENDBRANCH  22  23
ENDBRANCH   1  22
TORSDOF 8
ENDMDL
MODEL 4
REMARK VINA RESULT:    -7.944      5.086      9.245
REMARK INTER + INTRA:         -13.224
REMARK INTER:                 -10.330
REMARK INTRA:                  -2.893
REMARK CONF_INDEPENDENT:        2.386
REMARK UNBOUND:                -2.893
REMARK  8 active torsions:
REMARK  status: ('A' for Active; 'I' for Inactive)
REMARK    1  A    between atoms: C_3  and  C_4 
REMARK    2  A    between atoms: C_4  and  C_5 
REMARK       I    between atoms: C_5  and  N_7 
REMARK    3  A    between atoms: N_7  and  CA_8 
REMARK    4  A    between atoms: CA_8  and  C_9 
REMARK    5  A    between atoms: CA_8  and  C_20 
REMARK    6  A    between atoms: C_9  and  C_10 
REMARK    7  A    between atoms: C_16  and  O_17 
REMARK    8  A    between atoms: C_29  and  O_30 
ROOT
ATOM      1  C   UNL d   1      28.804 -14.627  -5.729  0.00  0.00     0.222 C 
ATOM      2  O   UNL d   1      27.844 -15.317  -6.090  0.00  0.00    -0.273 OA
ATOM      3  N   UNL d   1      28.480 -13.377  -5.372  0.00  0.00    -0.346 N 
ATOM      4  H   UNL d   1      29.074 -12.589  -5.710  0.00  0.00     0.163 HD
ENDROOT
BRANCH   3   5
ATOM      5  CA  UNL d   1      26.980 -13.064  -5.435  0.00  0.00     0.186 C 
BRANCH   5   6
ATOM      6  C   UNL d   1      25.917 -13.716  -4.121  0.00  0.00     0.054 C 
BRANCH   6   7
ATOM      7  C   UNL d   1      25.707 -15.342  -3.291  0.00  0.00     0.028 C 
ATOM      8  C   UNL d   1      26.237 -15.017  -2.058  0.00  0.00     0.120 C 
ATOM      9  N   UNL d   1      26.969 -16.173  -1.975  0.00  0.00    -0.382 N 
ATOM     10  C   UNL d   1      26.042 -17.068  -1.536  0.00  0.00     0.035 C 
ATOM     11  H   UNL d   1      27.639 -16.477  -2.673  0.00  0.00     0.160 HD
ATOM     12  C   UNL d   1      26.208 -17.799  -0.332  0.00  0.00     0.032 C 
ATOM     13  C   UNL d   1      24.930 -16.685  -2.331  0.00  0.00    -0.017 C 
ATOM     14  C   UNL d   1      25.165 -18.101   0.502  0.00  0.00     0.039 C 
ATOM     15  C   UNL d   1      23.935 -17.995  -0.085  0.00  0.00     0.066 C 
ATOM     16  C   UNL d   1      23.752 -17.290  -1.451  0.00  0.00     0.046 C 
BRANCH  15  17
ATOM     17  O   UNL d   1      22.932 -18.685   0.605  0.00  0.00    -0.361 OA
ATOM     18  H   UNL d   1      23.110 -19.659   0.601  0.00  0.00     0.217 HD
ENDBRANCH  15  17
ENDBRANCH   6   7
ENDBRANCH   5   6
BRANCH   5  19
ATOM     19  C   UNL d   1      26.947 -11.452  -5.707  0.00  0.00     0.196 C 
ATOM     20  O   UNL d   1      28.028 -10.840  -5.388  0.00  0.00    -0.646 OA
ATOM     21  OXT UNL d   1      25.913 -10.996  -6.262  0.00  0.00    -0.646 OA
ENDBRANCH   5  19
ENDBRANCH   3   5
BRANCH   1  22
ATOM     22  C   UNL d   1      30.242 -15.115  -5.722  0.00  0.00     0.148 C 
BRANCH  22  23
ATOM     23  C   UNL d   1      30.426 -16.637  -5.691  0.00  0.00     0.033 C 
ATOM     24  C   UNL d   1      31.006 -17.273  -6.748  0.00  0.00    -0.036 C 
ATOM     25  C   UNL d   1      31.530 -16.581  -7.988  0.00  0.00     0.050 C 
ATOM     26  C   UNL d   1      31.217 -18.733  -6.688  0.00  0.00     0.005 C 
ATOM     27  C   UNL d   1      31.917 -19.471  -7.632  0.00  0.00     0.017 C 
ATOM     28  C   UNL d   1      30.739 -19.442  -5.602  0.00  0.00     0.099 C 
ATOM     29  C   UNL d   1      32.283 -20.790  -7.346  0.00  0.00     0.038 C 
ATOM     30  C   UNL d   1      31.704 -21.471  -6.279  0.00  0.00     0.074 C 
ATOM     31  C   UNL d   1      30.875 -20.812  -5.398  0.00  0.00     0.006 C 
ATOM     32  C   UNL d   1      30.145 -21.486  -4.269  0.00  0.00     0.054 C 
ATOM     33  O   UNL d   1      30.077 -18.809  -4.583  0.00  0.00    -0.274 OA
ATOM     34  C   UNL d   1      30.002 -17.466  -4.505  0.00  0.00     0.295 C 
ATOM     35  O   UNL d   1      29.595 -17.120  -3.380  0.00  0.00    -0.259 OA
BRANCH  30  36
ATOM     36  O   UNL d   1      31.959 -22.803  -6.165  0.00  0.00    -0.360 OA
ATOM     37  H   UNL d   1      31.152 -23.283  -6.412  0.00  0.00     0.217 HD
ENDBRANCH  30  36
ENDBRANCH  22  23
ENDBRANCH   1  22
TORSDOF 8
ENDMDL
MODEL 5
REMARK VINA RESULT:    -7.835      2.918      4.657
REMARK INTER + INTRA:         -12.634
REMARK INTER:                 -10.221
REMARK INTRA:                  -2.413
REMARK CONF_INDEPENDENT:        2.386
REMARK UNBOUND:                -2.413
REMARK  8 active torsions:
REMARK  status: ('A' for Active; 'I' for Inactive)
REMARK    1  A    between atoms: C_3  and  C_4 
REMARK    2  A    between atoms: C_4  and  C_5 
REMARK       I    between atoms: C_5  and  N_7 
REMARK    3  A    between atoms: N_7  and  CA_8 
REMARK    4  A    between atoms: CA_8  and  C_9 
REMARK    5  A    between atoms: CA_8  and  C_20 
REMARK    6  A    between atoms: C_9  and  C_10 
REMARK    7  A    between atoms: C_16  and  O_17 
REMARK    8  A    between atoms: C_29  and  O_30 
ROOT
ATOM      1  C   UNL d   1      28.109 -14.216   3.755  0.00  0.00     0.222 C 
ATOM      2  O   UNL d   1      29.168 -14.663   3.296  0.00  0.00    -0.273 OA
ATOM      3  N   UNL d   1      27.255 -13.764   2.827  0.00  0.00    -0.346 N 
ATOM      4  H   UNL d   1      26.772 -12.855   2.991  0.00  0.00     0.163 HD
ENDROOT
BRANCH   3   5
ATOM      5  CA  UNL d   1      27.735 -13.933   1.381  0.00  0.00     0.186 C 
BRANCH   5   6
ATOM      6  C   UNL d   1      27.536 -15.554   0.598  0.00  0.00     0.054 C 
BRANCH   6   7
ATOM      7  C   UNL d   1      26.190 -16.413  -0.312  0.00  0.00     0.028 C 
ATOM      8  C   UNL d   1      25.926 -17.415   0.601  0.00  0.00     0.120 C 
ATOM      9  N   UNL d   1      25.865 -18.390  -0.361  0.00  0.00    -0.382 N 
ATOM     10  C   UNL d   1      24.597 -18.247  -0.834  0.00  0.00     0.035 C 
ATOM     11  H   UNL d   1      26.606 -18.587  -1.024  0.00  0.00     0.160 HD
ATOM     12  C   UNL d   1      23.655 -19.308  -0.808  0.00  0.00     0.032 C 
ATOM     13  C   UNL d   1      24.510 -16.831  -0.889  0.00  0.00    -0.017 C 
ATOM     14  C   UNL d   1      22.322 -19.110  -0.564  0.00  0.00     0.039 C 
ATOM     15  C   UNL d   1      21.911 -17.817  -0.734  0.00  0.00     0.066 C 
ATOM     16  C   UNL d   1      22.929 -16.659  -0.869  0.00  0.00     0.046 C 
BRANCH  15  17
ATOM     17  O   UNL d   1      20.527 -17.695  -0.896  0.00  0.00    -0.361 OA
ATOM     18  H   UNL d   1      20.312 -17.003  -1.570  0.00  0.00     0.217 HD
ENDBRANCH  15  17
ENDBRANCH   6   7
ENDBRANCH   5   6
BRANCH   5  19
ATOM     19  C   UNL d   1      27.088 -12.640   0.620  0.00  0.00     0.196 C 
ATOM     20  O   UNL d   1      26.206 -12.009   1.305  0.00  0.00    -0.646 OA
ATOM     21  OXT UNL d   1      27.566 -12.353  -0.510  0.00  0.00    -0.646 OA
ENDBRANCH   5  19
ENDBRANCH   3   5
BRANCH   1  22
ATOM     22  C   UNL d   1      27.797 -14.137   5.239  0.00  0.00     0.148 C 
BRANCH  22  23
ATOM     23  C   UNL d   1      28.208 -12.835   5.936  0.00  0.00     0.033 C 
ATOM     24  C   UNL d   1      28.702 -12.871   7.206  0.00  0.00    -0.036 C 
ATOM     25  C   UNL d   1      28.915 -14.135   8.011  0.00  0.00     0.050 C 
ATOM     26  C   UNL d   1      29.136 -11.616   7.851  0.00  0.00     0.005 C 
ATOM     27  C   UNL d   1      29.780 -11.537   9.077  0.00  0.00     0.017 C 
ATOM     28  C   UNL d   1      28.946 -10.416   7.191  0.00  0.00     0.099 C 
ATOM     29  C   UNL d   1      30.379 -10.336   9.468  0.00  0.00     0.038 C 
ATOM     30  C   UNL d   1      30.084  -9.148   8.805  0.00  0.00     0.074 C 
ATOM     31  C   UNL d   1      29.315  -9.159   7.662  0.00  0.00     0.006 C 
ATOM     32  C   UNL d   1      28.881  -7.919   6.930  0.00  0.00     0.054 C 
ATOM     33  O   UNL d   1      28.366 -10.378   5.951  0.00  0.00    -0.274 OA
ATOM     34  C   UNL d   1      28.105 -11.498   5.249  0.00  0.00     0.295 C 
ATOM     35  O   UNL d   1      27.833 -11.214   4.067  0.00  0.00    -0.259 OA
BRANCH  30  36
ATOM     36  O   UNL d   1      30.549  -7.988   9.346  0.00  0.00    -0.360 OA
ATOM     37  H   UNL d   1      30.505  -7.302   8.660  0.00  0.00     0.217 HD
ENDBRANCH  30  36
ENDBRANCH  22  23
ENDBRANCH   1  22
TORSDOF 8
ENDMDL
MODEL 6
REMARK VINA RESULT:    -7.589      4.882      7.492
REMARK INTER + INTRA:         -12.800
REMARK INTER:                  -9.975
REMARK INTRA:                  -2.825
REMARK CONF_INDEPENDENT:        2.386
REMARK UNBOUND:                -2.825
REMARK  8 active torsions:
REMARK  status: ('A' for Active; 'I' for Inactive)
REMARK    1  A    between atoms: C_3  and  C_4 
REMARK    2  A    between atoms: C_4  and  C_5 
REMARK       I    between atoms: C_5  and  N_7 
REMARK    3  A    between atoms: N_7  and  CA_8 
REMARK    4  A    between atoms: CA_8  and  C_9 
REMARK    5  A    between atoms: CA_8  and  C_20 
REMARK    6  A    between atoms: C_9  and  C_10 
REMARK    7  A    between atoms: C_16  and  O_17 
REMARK    8  A    between atoms: C_29  and  O_30 
ROOT
ATOM      1  C   UNL d   1      28.207 -14.627  -5.965  0.00  0.00     0.222 C 
ATOM      2  O   UNL d   1      27.124 -15.198  -6.144  0.00  0.00    -0.273 OA
ATOM      3  N   UNL d   1      28.096 -13.347  -5.583  0.00  0.00    -0.346 N 
ATOM      4  H   UNL d   1      28.712 -12.636  -6.031  0.00  0.00     0.163 HD
ENDROOT
BRANCH   3   5
ATOM      5  CA  UNL d   1      26.655 -12.859  -5.395  0.00  0.00     0.186 C 
BRANCH   5   6
ATOM      6  C   UNL d   1      25.652 -13.635  -4.102  0.00  0.00     0.054 C 
BRANCH   6   7
ATOM      7  C   UNL d   1      25.620 -15.277  -3.276  0.00  0.00     0.028 C 
ATOM      8  C   UNL d   1      26.068 -14.892  -2.027  0.00  0.00     0.120 C 
ATOM      9  N   UNL d   1      26.935 -15.948  -1.921  0.00  0.00    -0.382 N 
ATOM     10  C   UNL d   1      26.114 -16.953  -1.509  0.00  0.00     0.035 C 
ATOM     11  H   UNL d   1      27.659 -16.165  -2.597  0.00  0.00     0.160 HD
ATOM     12  C   UNL d   1      26.332 -17.660  -0.300  0.00  0.00     0.032 C 
ATOM     13  C   UNL d   1      24.987 -16.708  -2.339  0.00  0.00    -0.017 C 
ATOM     14  C   UNL d   1      25.309 -18.091   0.503  0.00  0.00     0.039 C 
ATOM     15  C   UNL d   1      24.094 -18.137  -0.122  0.00  0.00     0.066 C 
ATOM     16  C   UNL d   1      23.867 -17.457  -1.494  0.00  0.00     0.046 C 
BRANCH  15  17
ATOM     17  O   UNL d   1      23.164 -18.948   0.538  0.00  0.00    -0.361 OA
ATOM     18  H   UNL d   1      23.238 -19.887   0.233  0.00  0.00     0.217 HD
ENDBRANCH  15  17
ENDBRANCH   6   7
ENDBRANCH   5   6
BRANCH   5  19
ATOM     19  C   UNL d   1      26.814 -11.233  -5.357  0.00  0.00     0.196 C 
ATOM     20  O   UNL d   1      27.828 -10.786  -6.003  0.00  0.00    -0.646 OA
ATOM     21  OXT UNL d   1      25.902 -10.591  -4.772  0.00  0.00    -0.646 OA
ENDBRANCH   5  19
ENDBRANCH   3   5
BRANCH   1  22
ATOM     22  C   UNL d   1      29.557 -15.282  -6.193  0.00  0.00     0.148 C 
BRANCH  22  23
ATOM     23  C   UNL d   1      29.984 -16.309  -5.138  0.00  0.00     0.033 C 
ATOM     24  C   UNL d   1      29.967 -15.974  -3.817  0.00  0.00    -0.036 C 
ATOM     25  C   UNL d   1      29.522 -14.632  -3.275  0.00  0.00     0.050 C 
ATOM     26  C   UNL d   1      30.338 -16.984  -2.807  0.00  0.00     0.005 C 
ATOM     27  C   UNL d   1      30.229 -16.811  -1.435  0.00  0.00     0.017 C 
ATOM     28  C   UNL d   1      30.786 -18.224  -3.224  0.00  0.00     0.099 C 
ATOM     29  C   UNL d   1      30.355 -17.914  -0.586  0.00  0.00     0.038 C 
ATOM     30  C   UNL d   1      30.885 -19.113  -1.054  0.00  0.00     0.074 C 
ATOM     31  C   UNL d   1      31.155 -19.279  -2.395  0.00  0.00     0.006 C 
ATOM     32  C   UNL d   1      31.803 -20.507  -2.974  0.00  0.00     0.054 C 
ATOM     33  O   UNL d   1      30.885 -18.526  -4.557  0.00  0.00    -0.274 OA
ATOM     34  C   UNL d   1      30.407 -17.707  -5.513  0.00  0.00     0.295 C 
ATOM     35  O   UNL d   1      30.367 -18.297  -6.609  0.00  0.00    -0.259 OA
BRANCH  30  36
ATOM     36  O   UNL d   1      31.155 -20.086  -0.142  0.00  0.00    -0.360 OA
ATOM     37  H   UNL d   1      30.791 -19.802   0.713  0.00  0.00     0.217 HD
ENDBRANCH  30  36
ENDBRANCH  22  23
ENDBRANCH   1  22
TORSDOF 8
ENDMDL
