MODEL 1
REMARK VINA RESULT:    -8.408      0.000      0.000
REMARK INTER + INTRA:         -10.893
REMARK INTER:                 -10.198
REMARK INTRA:                  -0.695
REMARK CONF_INDEPENDENT:        1.790
REMARK UNBOUND:                -0.695
REMARK  6 active torsions:
REMARK  status: ('A' for Active; 'I' for Inactive)
REMARK    1  A    between atoms: C_7  and  C_8 
REMARK       I    between atoms: C_8  and  N_10 
REMARK    2  A    between atoms: C_11  and  N_10 
REMARK    3  A    between atoms: C_13  and  C_11 
REMARK    4  A    between atoms: C_13  and  C_15 
REMARK    5  A    between atoms: C_13  and  O_14 
REMARK    6  A    between atoms: C_18  and  O_19 
ROOT
ATOM      1  C   UNL d   1      22.459 -17.718   0.224  0.00  0.00     0.114 C 
ATOM      2  C   UNL d   1      22.647 -16.330  -0.139  0.00  0.00     0.035 C 
ENDROOT
BRANCH   1   3
ATOM      3  N   UNL d   1      23.726 -18.476   0.145  0.00  0.00    -0.350 N 
ATOM      4  C   UNL d   1      25.035 -18.210  -0.290  0.00  0.00     0.252 C 
ATOM      5  O   UNL d   1      25.818 -19.135  -0.146  0.00  0.00    -0.268 OA
ATOM      6  H   UNL d   1      23.637 -19.447   0.448  0.00  0.00     0.163 HD
BRANCH   4   7
ATOM      7  C   UNL d   1      25.573 -16.882  -0.889  0.00  0.00     0.033 A 
ATOM      8  C   UNL d   1      25.545 -16.661  -2.245  0.00  0.00     0.023 A 
ATOM      9  C   UNL d   1      26.055 -15.424  -2.771  0.00  0.00    -0.061 A 
ATOM     10  C   UNL d   1      26.628 -14.386  -1.987  0.00  0.00     0.013 A 
ATOM     11  C   UNL d   1      25.982 -15.198  -4.237  0.00  0.00     0.048 C 
ATOM     12  C   UNL d   1      26.675 -14.568  -0.658  0.00  0.00    -0.061 A 
ATOM     13  C   UNL d   1      27.192 -13.700   0.475  0.00  0.00     0.048 C 
ATOM     14  C   UNL d   1      26.113 -15.765  -0.255  0.00  0.00     0.023 A 
ENDBRANCH   4   7
ENDBRANCH   1   3
BRANCH   1  15
ATOM     15  C   UNL d   1      21.366 -18.202  -0.787  0.00  0.00     0.173 C 
BRANCH  15  16
ATOM     16  C   UNL d   1      20.468 -19.144  -0.101  0.00  0.00    -0.028 A 
ATOM     17  C   UNL d   1      20.654 -19.396   1.253  0.00  0.00     0.012 A 
ATOM     18  C   UNL d   1      19.753 -20.231   1.886  0.00  0.00     0.037 A 
ATOM     19  C   UNL d   1      18.689 -20.775   1.160  0.00  0.00     0.065 A 
ATOM     20  C   UNL d   1      18.513 -20.531  -0.185  0.00  0.00     0.037 A 
ATOM     21  C   UNL d   1      19.427 -19.743  -0.821  0.00  0.00     0.012 A 
BRANCH  19  22
ATOM     22  O   UNL d   1      17.764 -21.589   1.730  0.00  0.00    -0.361 OA
ATOM     23  H   UNL d   1      17.443 -22.188   1.042  0.00  0.00     0.217 HD
ENDBRANCH  19  22
ENDBRANCH  15  16
BRANCH  15  24
ATOM     24  O   UNL d   1      20.561 -17.136  -1.320  0.00  0.00    -0.389 OA
ATOM     25  H   UNL d   1      19.999 -17.511  -2.018  0.00  0.00     0.210 HD
ENDBRANCH  15  24
ENDBRANCH   1  15
TORSDOF 6
ENDMDL
MODEL 2
REMARK VINA RESULT:    -8.209      0.262      2.100
REMARK INTER + INTRA:         -10.687
REMARK INTER:                  -9.999
REMARK INTRA:                  -0.688
REMARK CONF_INDEPENDENT:        1.790
REMARK UNBOUND:                -0.688
REMARK  6 active torsions:
REMARK  status: ('A' for Active; 'I' for Inactive)
REMARK    1  A    between atoms: C_7  and  C_8 
REMARK       I    between atoms: C_8  and  N_10 
REMARK    2  A    between atoms: C_11  and  N_10 
REMARK    3  A    between atoms: C_13  and  C_11 
REMARK    4  A    between atoms: C_13  and  C_15 
REMARK    5  A    between atoms: C_13  and  O_14 
REMARK    6  A    between atoms: C_18  and  O_19 
ROOT
ATOM      1  C   UNL d   1      22.452 -17.778   0.188  0.00  0.00     0.114 C 
ATOM      2  C   UNL d   1      22.700 -16.393  -0.145  0.00  0.00     0.035 C 
ENDROOT
BRANCH   1   3
ATOM      3  N   UNL d   1      23.688 -18.585   0.111  0.00  0.00    -0.350 N 
ATOM      4  C   UNL d   1      25.021 -18.354  -0.268  0.00  0.00     0.252 C 
ATOM      5  O   UNL d   1      25.761 -19.318  -0.145  0.00  0.00    -0.268 OA
ATOM      6  H   UNL d   1      23.550 -19.565   0.362  0.00  0.00     0.163 HD
BRANCH   4   7
ATOM      7  C   UNL d   1      25.633 -17.022  -0.781  0.00  0.00     0.033 A 
ATOM      8  C   UNL d   1      26.289 -16.174   0.079  0.00  0.00     0.023 A 
ATOM      9  C   UNL d   1      26.842 -14.946  -0.423  0.00  0.00    -0.061 A 
ATOM     10  C   UNL d   1      26.744 -14.506  -1.771  0.00  0.00     0.013 A 
ATOM     11  C   UNL d   1      27.575 -14.064   0.521  0.00  0.00     0.048 C 
ATOM     12  C   UNL d   1      26.107 -15.307  -2.640  0.00  0.00    -0.061 A 
ATOM     13  C   UNL d   1      25.820 -15.182  -4.125  0.00  0.00     0.048 C 
ATOM     14  C   UNL d   1      25.661 -16.482  -2.065  0.00  0.00     0.023 A 
ENDBRANCH   4   7
ENDBRANCH   1   3
BRANCH   1  15
ATOM     15  C   UNL d   1      21.354 -18.200  -0.846  0.00  0.00     0.173 C 
BRANCH  15  16
ATOM     16  C   UNL d   1      20.401 -19.104  -0.185  0.00  0.00    -0.028 A 
ATOM     17  C   UNL d   1      19.285 -19.546  -0.886  0.00  0.00     0.012 A 
ATOM     18  C   UNL d   1      18.445 -20.450  -0.264  0.00  0.00     0.037 A 
ATOM     19  C   UNL d   1      18.747 -20.898   1.025  0.00  0.00     0.065 A 
ATOM     20  C   UNL d   1      19.849 -20.450   1.722  0.00  0.00     0.037 A 
ATOM     21  C   UNL d   1      20.654 -19.524   1.127  0.00  0.00     0.012 A 
BRANCH  19  22
ATOM     22  O   UNL d   1      17.969 -21.796   1.682  0.00  0.00    -0.361 OA
ATOM     23  H   UNL d   1      17.672 -22.450   1.034  0.00  0.00     0.217 HD
ENDBRANCH  19  22
ENDBRANCH  15  16
BRANCH  15  24
ATOM     24  O   UNL d   1      20.610 -17.091  -1.380  0.00  0.00    -0.389 OA
ATOM     25  H   UNL d   1      19.931 -17.451  -1.974  0.00  0.00     0.210 HD
ENDBRANCH  15  24
ENDBRANCH   1  15
TORSDOF 6
ENDMDL
MODEL 3
REMARK VINA RESULT:    -7.739      2.761      5.025
REMARK INTER + INTRA:         -10.253
REMARK INTER:                  -9.529
REMARK INTRA:                  -0.724
REMARK CONF_INDEPENDENT:        1.790
REMARK UNBOUND:                -0.724
REMARK  6 active torsions:
REMARK  status: ('A' for Active; 'I' for Inactive)
REMARK    1  A    between atoms: C_7  and  C_8 
REMARK       I    between atoms: C_8  and  N_10 
REMARK    2  A    between atoms: C_11  and  N_10 
REMARK    3  A    between atoms: C_13  and  C_11 
REMARK    4  A    between atoms: C_13  and  C_15 
REMARK    5  A    between atoms: C_13  and  O_14 
REMARK    6  A    between atoms: C_18  and  O_19 
ROOT
ATOM      1  C   UNL d   1      26.563 -16.715  -1.593  0.00  0.00     0.114 C 
ATOM      2  C   UNL d   1      27.721 -15.974  -1.144  0.00  0.00     0.035 C 
ENDROOT
BRANCH   1   3
ATOM      3  N   UNL d   1      25.725 -15.910  -2.506  0.00  0.00    -0.350 N 
ATOM      4  C   UNL d   1      25.914 -15.256  -3.735  0.00  0.00     0.252 C 
ATOM      5  O   UNL d   1      24.916 -14.714  -4.184  0.00  0.00    -0.268 OA
ATOM      6  H   UNL d   1      24.778 -15.753  -2.157  0.00  0.00     0.163 HD
BRANCH   4   7
ATOM      7  C   UNL d   1      27.222 -15.187  -4.570  0.00  0.00     0.033 A 
ATOM      8  C   UNL d   1      27.353 -14.281  -5.594  0.00  0.00     0.023 A 
ATOM      9  C   UNL d   1      28.573 -14.242  -6.353  0.00  0.00    -0.061 A 
ATOM     10  C   UNL d   1      29.683 -15.105  -6.145  0.00  0.00     0.013 A 
ATOM     11  C   UNL d   1      28.701 -13.231  -7.433  0.00  0.00     0.048 C 
ATOM     12  C   UNL d   1      29.591 -16.006  -5.154  0.00  0.00    -0.061 A 
ATOM     13  C   UNL d   1      30.551 -17.062  -4.638  0.00  0.00     0.048 C 
ATOM     14  C   UNL d   1      28.399 -15.923  -4.457  0.00  0.00     0.023 A 
ENDBRANCH   4   7
ENDBRANCH   1   3
BRANCH   1  15
ATOM     15  C   UNL d   1      25.849 -17.102  -0.253  0.00  0.00     0.173 C 
BRANCH  15  16
ATOM     16  C   UNL d   1      24.432 -17.379  -0.532  0.00  0.00    -0.028 A 
ATOM     17  C   UNL d   1      24.028 -18.689  -0.761  0.00  0.00     0.012 A 
ATOM     18  C   UNL d   1      22.680 -18.929  -0.951  0.00  0.00     0.037 A 
ATOM     19  C   UNL d   1      21.776 -17.863  -0.891  0.00  0.00     0.065 A 
ATOM     20  C   UNL d   1      22.181 -16.564  -0.675  0.00  0.00     0.037 A 
ATOM     21  C   UNL d   1      23.515 -16.321  -0.532  0.00  0.00     0.012 A 
BRANCH  19  22
ATOM     22  O   UNL d   1      20.440 -18.037  -1.055  0.00  0.00    -0.361 OA
ATOM     23  H   UNL d   1      20.127 -17.339  -1.647  0.00  0.00     0.217 HD
ENDBRANCH  19  22
ENDBRANCH  15  16
BRANCH  15  24
ATOM     24  O   UNL d   1      26.409 -18.265   0.382  0.00  0.00    -0.389 OA
ATOM     25  H   UNL d   1      27.324 -18.054   0.629  0.00  0.00     0.210 HD
ENDBRANCH  15  24
ENDBRANCH   1  15
TORSDOF 6
ENDMDL
MODEL 4
REMARK VINA RESULT:    -7.635      2.771      5.132
REMARK INTER + INTRA:         -10.016
REMARK INTER:                  -9.425
REMARK INTRA:                  -0.591
REMARK CONF_INDEPENDENT:        1.790
REMARK UNBOUND:                -0.591
REMARK  6 active torsions:
REMARK  status: ('A' for Active; 'I' for Inactive)
REMARK    1  A    between atoms: C_7  and  C_8 
REMARK       I    between atoms: C_8  and  N_10 
REMARK    2  A    between atoms: C_11  and  N_10 
REMARK    3  A    between atoms: C_13  and  C_11 
REMARK    4  A    between atoms: C_13  and  C_15 
REMARK    5  A    between atoms: C_13  and  O_14 
REMARK    6  A    between atoms: C_18  and  O_19 
ROOT
ATOM      1  C   UNL d   1      26.528 -16.684  -1.601  0.00  0.00     0.114 C 
ATOM      2  C   UNL d   1      27.731 -16.014  -1.160  0.00  0.00     0.035 C 
ENDROOT
BRANCH   1   3
ATOM      3  N   UNL d   1      25.718 -15.818  -2.484  0.00  0.00    -0.350 N 
ATOM      4  C   UNL d   1      25.924 -15.142  -3.698  0.00  0.00     0.252 C 
ATOM      5  O   UNL d   1      24.947 -14.544  -4.121  0.00  0.00    -0.268 OA
ATOM      6  H   UNL d   1      24.784 -15.628  -2.120  0.00  0.00     0.163 HD
BRANCH   4   7
ATOM      7  C   UNL d   1      27.225 -15.110  -4.546  0.00  0.00     0.033 A 
ATOM      8  C   UNL d   1      28.273 -15.950  -4.254  0.00  0.00     0.023 A 
ATOM      9  C   UNL d   1      29.467 -15.895  -5.053  0.00  0.00    -0.061 A 
ATOM     10  C   UNL d   1      29.674 -15.001  -6.139  0.00  0.00     0.013 A 
ATOM     11  C   UNL d   1      30.571 -16.836  -4.737  0.00  0.00     0.048 C 
ATOM     12  C   UNL d   1      28.673 -14.163  -6.451  0.00  0.00    -0.061 A 
ATOM     13  C   UNL d   1      28.525 -13.100  -7.525  0.00  0.00     0.048 C 
ATOM     14  C   UNL d   1      27.555 -14.335  -5.655  0.00  0.00     0.023 A 
ENDBRANCH   4   7
ENDBRANCH   1   3
BRANCH   1  15
ATOM     15  C   UNL d   1      25.819 -17.059  -0.257  0.00  0.00     0.173 C 
BRANCH  15  16
ATOM     16  C   UNL d   1      24.409 -17.372  -0.534  0.00  0.00    -0.028 A 
ATOM     17  C   UNL d   1      24.017 -18.700  -0.654  0.00  0.00     0.012 A 
ATOM     18  C   UNL d   1      22.675 -18.966  -0.845  0.00  0.00     0.037 A 
ATOM     19  C   UNL d   1      21.763 -17.907  -0.895  0.00  0.00     0.065 A 
ATOM     20  C   UNL d   1      22.155 -16.591  -0.786  0.00  0.00     0.037 A 
ATOM     21  C   UNL d   1      23.485 -16.325  -0.643  0.00  0.00     0.012 A 
BRANCH  19  22
ATOM     22  O   UNL d   1      20.431 -18.106  -1.065  0.00  0.00    -0.361 OA
ATOM     23  H   UNL d   1      20.103 -17.399  -1.637  0.00  0.00     0.217 HD
ENDBRANCH  19  22
ENDBRANCH  15  16
BRANCH  15  24
ATOM     24  O   UNL d   1      26.400 -18.198   0.403  0.00  0.00    -0.389 OA
ATOM     25  H   UNL d   1      27.284 -18.337   0.025  0.00  0.00     0.210 HD
ENDBRANCH  15  24
ENDBRANCH   1  15
TORSDOF 6
ENDMDL
MODEL 5
REMARK VINA RESULT:    -7.154      2.542      4.758
REMARK INTER + INTRA:          -9.871
REMARK INTER:                  -8.943
REMARK INTRA:                  -0.928
REMARK CONF_INDEPENDENT:        1.790
REMARK UNBOUND:                -0.928
REMARK  6 active torsions:
REMARK  status: ('A' for Active; 'I' for Inactive)
REMARK    1  A    between atoms: C_7  and  C_8 
REMARK       I    between atoms: C_8  and  N_10 
REMARK    2  A    between atoms: C_11  and  N_10 
REMARK    3  A    between atoms: C_13  and  C_11 
REMARK    4  A    between atoms: C_13  and  C_15 
REMARK    5  A    between atoms: C_13  and  O_14 
REMARK    6  A    between atoms: C_18  and  O_19 
ROOT
ATOM      1  C   UNL d   1      26.660 -16.586  -0.593  0.00  0.00     0.114 C 
ATOM      2  C   UNL d   1      27.991 -17.145  -0.670  0.00  0.00     0.035 C 
ENDROOT
BRANCH   1   3
ATOM      3  N   UNL d   1      26.679 -15.211  -0.052  0.00  0.00    -0.350 N 
ATOM      4  C   UNL d   1      26.563 -13.916  -0.585  0.00  0.00     0.252 C 
ATOM      5  O   UNL d   1      26.599 -13.019   0.242  0.00  0.00    -0.268 OA
ATOM      6  H   UNL d   1      26.851 -15.172   0.953  0.00  0.00     0.163 HD
BRANCH   4   7
ATOM      7  C   UNL d   1      26.365 -13.529  -2.076  0.00  0.00     0.033 A 
ATOM      8  C   UNL d   1      26.214 -12.214  -2.445  0.00  0.00     0.023 A 
ATOM      9  C   UNL d   1      26.028 -11.885  -3.832  0.00  0.00    -0.061 A 
ATOM     10  C   UNL d   1      25.959 -12.837  -4.887  0.00  0.00     0.013 A 
ATOM     11  C   UNL d   1      25.900 -10.455  -4.208  0.00  0.00     0.048 C 
ATOM     12  C   UNL d   1      26.099 -14.132  -4.564  0.00  0.00    -0.061 A 
ATOM     13  C   UNL d   1      26.093 -15.400  -5.397  0.00  0.00     0.048 C 
ATOM     14  C   UNL d   1      26.324 -14.331  -3.214  0.00  0.00     0.023 A 
ENDBRANCH   4   7
ENDBRANCH   1   3
BRANCH   1  15
ATOM     15  C   UNL d   1      25.897 -17.613   0.311  0.00  0.00     0.173 C 
BRANCH  15  16
ATOM     16  C   UNL d   1      24.505 -17.712  -0.153  0.00  0.00    -0.028 A 
ATOM     17  C   UNL d   1      23.872 -18.950  -0.143  0.00  0.00     0.012 A 
ATOM     18  C   UNL d   1      22.543 -19.001  -0.518  0.00  0.00     0.037 A 
ATOM     19  C   UNL d   1      21.881 -17.822  -0.875  0.00  0.00     0.065 A 
ATOM     20  C   UNL d   1      22.514 -16.598  -0.894  0.00  0.00     0.037 A 
ATOM     21  C   UNL d   1      23.837 -16.553  -0.567  0.00  0.00     0.012 A 
BRANCH  19  22
ATOM     22  O   UNL d   1      20.573 -17.807  -1.238  0.00  0.00    -0.361 OA
ATOM     23  H   UNL d   1      20.369 -16.914  -1.548  0.00  0.00     0.217 HD
ENDBRANCH  19  22
ENDBRANCH  15  16
BRANCH  15  24
ATOM     24  O   UNL d   1      26.464 -18.934   0.288  0.00  0.00    -0.389 OA
ATOM     25  H   UNL d   1      27.209 -18.946   0.912  0.00  0.00     0.210 HD
ENDBRANCH  15  24
ENDBRANCH   1  15
TORSDOF 6
ENDMDL
MODEL 6
REMARK VINA RESULT:    -7.043      2.641      4.636
REMARK INTER + INTRA:          -9.631
REMARK INTER:                  -8.833
REMARK INTRA:                  -0.798
REMARK CONF_INDEPENDENT:        1.790
REMARK UNBOUND:                -0.798
REMARK  6 active torsions:
REMARK  status: ('A' for Active; 'I' for Inactive)
REMARK    1  A    between atoms: C_7  and  C_8 
REMARK       I    between atoms: C_8  and  N_10 
REMARK    2  A    between atoms: C_11  and  N_10 
REMARK    3  A    between atoms: C_13  and  C_11 
REMARK    4  A    between atoms: C_13  and  C_15 
REMARK    5  A    between atoms: C_13  and  O_14 
REMARK    6  A    between atoms: C_18  and  O_19 
ROOT
ATOM      1  C   UNL d   1      26.478 -16.498  -0.856  0.00  0.00     0.114 C 
ATOM      2  C   UNL d   1      25.662 -16.702  -2.032  0.00  0.00     0.035 C 
ENDROOT
BRANCH   1   3
ATOM      3  N   UNL d   1      27.883 -16.890  -1.096  0.00  0.00    -0.350 N 
ATOM      4  C   UNL d   1      28.820 -16.705  -2.126  0.00  0.00     0.252 C 
ATOM      5  O   UNL d   1      29.923 -17.179  -1.904  0.00  0.00    -0.268 OA
ATOM      6  H   UNL d   1      28.277 -17.466  -0.351  0.00  0.00     0.163 HD
BRANCH   4   7
ATOM      7  C   UNL d   1      28.603 -15.950  -3.466  0.00  0.00     0.033 A 
ATOM      8  C   UNL d   1      29.479 -16.115  -4.513  0.00  0.00     0.023 A 
ATOM      9  C   UNL d   1      29.256 -15.400  -5.740  0.00  0.00    -0.061 A 
ATOM     10  C   UNL d   1      28.188 -14.488  -5.964  0.00  0.00     0.013 A 
ATOM     11  C   UNL d   1      30.199 -15.621  -6.866  0.00  0.00     0.048 C 
ATOM     12  C   UNL d   1      27.315 -14.300  -4.963  0.00  0.00    -0.061 A 
ATOM     13  C   UNL d   1      26.074 -13.435  -4.837  0.00  0.00     0.048 C 
ATOM     14  C   UNL d   1      27.592 -15.073  -3.850  0.00  0.00     0.023 A 
ENDBRANCH   4   7
ENDBRANCH   1   3
BRANCH   1  15
ATOM     15  C   UNL d   1      25.755 -17.364   0.230  0.00  0.00     0.173 C 
BRANCH  15  16
ATOM     16  C   UNL d   1      24.368 -17.600  -0.197  0.00  0.00    -0.028 A 
ATOM     17  C   UNL d   1      23.966 -18.891  -0.522  0.00  0.00     0.012 A 
ATOM     18  C   UNL d   1      22.639 -19.093  -0.852  0.00  0.00     0.037 A 
ATOM     19  C   UNL d   1      21.752 -18.013  -0.833  0.00  0.00     0.065 A 
ATOM     20  C   UNL d   1      22.155 -16.733  -0.520  0.00  0.00     0.037 A 
ATOM     21  C   UNL d   1      23.472 -16.524  -0.238  0.00  0.00     0.012 A 
BRANCH  19  22
ATOM     22  O   UNL d   1      20.435 -18.152  -1.133  0.00  0.00    -0.361 OA
ATOM     23  H   UNL d   1      20.204 -17.450  -1.757  0.00  0.00     0.217 HD
ENDBRANCH  19  22
ENDBRANCH  15  16
BRANCH  15  24
ATOM     24  O   UNL d   1      26.371 -18.645   0.450  0.00  0.00    -0.389 OA
ATOM     25  H   UNL d   1      27.290 -18.487   0.724  0.00  0.00     0.210 HD
ENDBRANCH  15  24
ENDBRANCH   1  15
TORSDOF 6
ENDMDL
MODEL 7
REMARK VINA RESULT:    -6.995      2.522      4.435
REMARK INTER + INTRA:          -9.743
REMARK INTER:                  -8.785
REMARK INTRA:                  -0.958
REMARK CONF_INDEPENDENT:        1.790
REMARK UNBOUND:                -0.958
REMARK  6 active torsions:
REMARK  status: ('A' for Active; 'I' for Inactive)
REMARK    1  A    between atoms: C_7  and  C_8 
REMARK       I    between atoms: C_8  and  N_10 
REMARK    2  A    between atoms: C_11  and  N_10 
REMARK    3  A    between atoms: C_13  and  C_11 
REMARK    4  A    between atoms: C_13  and  C_15 
REMARK    5  A    between atoms: C_13  and  O_14 
REMARK    6  A    between atoms: C_18  and  O_19 
ROOT
ATOM      1  C   UNL d   1      26.653 -17.075  -1.450  0.00  0.00     0.114 C 
ATOM      2  C   UNL d   1      27.820 -16.337  -1.020  0.00  0.00     0.035 C 
ENDROOT
BRANCH   1   3
ATOM      3  N   UNL d   1      25.900 -16.342  -2.489  0.00  0.00    -0.350 N 
ATOM      4  C   UNL d   1      25.698 -14.994  -2.826  0.00  0.00     0.252 C 
ATOM      5  O   UNL d   1      25.007 -14.813  -3.817  0.00  0.00    -0.268 OA
ATOM      6  H   UNL d   1      25.361 -16.952  -3.106  0.00  0.00     0.163 HD
BRANCH   4   7
ATOM      7  C   UNL d   1      26.278 -13.749  -2.102  0.00  0.00     0.033 A 
ATOM      8  C   UNL d   1      26.579 -12.606  -2.803  0.00  0.00     0.023 A 
ATOM      9  C   UNL d   1      27.120 -11.470  -2.107  0.00  0.00    -0.061 A 
ATOM     10  C   UNL d   1      27.402 -11.434  -0.714  0.00  0.00     0.013 A 
ATOM     11  C   UNL d   1      27.406 -10.237  -2.883  0.00  0.00     0.048 C 
ATOM     12  C   UNL d   1      27.123 -12.533   0.004  0.00  0.00    -0.061 A 
ATOM     13  C   UNL d   1      27.274 -12.858   1.479  0.00  0.00     0.048 C 
ATOM     14  C   UNL d   1      26.561 -13.545  -0.753  0.00  0.00     0.023 A 
ENDBRANCH   4   7
ENDBRANCH   1   3
BRANCH   1  15
ATOM     15  C   UNL d   1      25.856 -17.284  -0.118  0.00  0.00     0.173 C 
BRANCH  15  16
ATOM     16  C   UNL d   1      24.436 -17.488  -0.441  0.00  0.00    -0.028 A 
ATOM     17  C   UNL d   1      23.934 -18.782  -0.510  0.00  0.00     0.012 A 
ATOM     18  C   UNL d   1      22.581 -18.941  -0.745  0.00  0.00     0.037 A 
ATOM     19  C   UNL d   1      21.769 -17.812  -0.889  0.00  0.00     0.065 A 
ATOM     20  C   UNL d   1      22.272 -16.530  -0.830  0.00  0.00     0.037 A 
ATOM     21  C   UNL d   1      23.613 -16.373  -0.643  0.00  0.00     0.012 A 
BRANCH  19  22
ATOM     22  O   UNL d   1      20.432 -17.904  -1.107  0.00  0.00    -0.361 OA
ATOM     23  H   UNL d   1      20.231 -17.382  -1.897  0.00  0.00     0.217 HD
ENDBRANCH  19  22
ENDBRANCH  15  16
BRANCH  15  24
ATOM     24  O   UNL d   1      26.301 -18.418   0.648  0.00  0.00    -0.389 OA
ATOM     25  H   UNL d   1      27.170 -18.198   1.021  0.00  0.00     0.210 HD
ENDBRANCH  15  24
ENDBRANCH   1  15
TORSDOF 6
ENDMDL
MODEL 8
REMARK VINA RESULT:    -6.923      2.592      4.585
REMARK INTER + INTRA:          -9.612
REMARK INTER:                  -8.712
REMARK INTRA:                  -0.900
REMARK CONF_INDEPENDENT:        1.790
REMARK UNBOUND:                -0.900
REMARK  6 active torsions:
REMARK  status: ('A' for Active; 'I' for Inactive)
REMARK    1  A    between atoms: C_7  and  C_8 
REMARK       I    between atoms: C_8  and  N_10 
REMARK    2  A    between atoms: C_11  and  N_10 
REMARK    3  A    between atoms: C_13  and  C_11 
REMARK    4  A    between atoms: C_13  and  C_15 
REMARK    5  A    between atoms: C_13  and  O_14 
REMARK    6  A    between atoms: C_18  and  O_19 
ROOT
ATOM      1  C   UNL d   1      26.842 -16.733  -0.565  0.00  0.00     0.114 C 
ATOM      2  C   UNL d   1      28.182 -17.273  -0.613  0.00  0.00     0.035 C 
ENDROOT
BRANCH   1   3
ATOM      3  N   UNL d   1      26.831 -15.355  -0.030  0.00  0.00    -0.350 N 
ATOM      4  C   UNL d   1      26.632 -14.069  -0.560  0.00  0.00     0.252 C 
ATOM      5  O   UNL d   1      26.674 -13.167   0.261  0.00  0.00    -0.268 OA
ATOM      6  H   UNL d   1      27.053 -15.304   0.965  0.00  0.00     0.163 HD
BRANCH   4   7
ATOM      7  C   UNL d   1      26.341 -13.698  -2.040  0.00  0.00     0.033 A 
ATOM      8  C   UNL d   1      26.333 -14.665  -3.016  0.00  0.00     0.023 A 
ATOM      9  C   UNL d   1      26.065 -14.292  -4.379  0.00  0.00    -0.061 A 
ATOM     10  C   UNL d   1      25.825 -12.963  -4.822  0.00  0.00     0.013 A 
ATOM     11  C   UNL d   1      26.029 -15.361  -5.409  0.00  0.00     0.048 C 
ATOM     12  C   UNL d   1      25.828 -11.991  -3.896  0.00  0.00    -0.061 A 
ATOM     13  C   UNL d   1      25.607 -10.492  -3.985  0.00  0.00     0.048 C 
ATOM     14  C   UNL d   1      26.044 -12.465  -2.615  0.00  0.00     0.023 A 
ENDBRANCH   4   7
ENDBRANCH   1   3
BRANCH   1  15
ATOM     15  C   UNL d   1      26.076 -17.766   0.328  0.00  0.00     0.173 C 
BRANCH  15  16
ATOM     16  C   UNL d   1      24.651 -17.746  -0.036  0.00  0.00    -0.028 A 
ATOM     17  C   UNL d   1      24.042 -16.532  -0.331  0.00  0.00     0.012 A 
ATOM     18  C   UNL d   1      22.721 -16.550  -0.738  0.00  0.00     0.037 A 
ATOM     19  C   UNL d   1      22.054 -17.773  -0.854  0.00  0.00     0.065 A 
ATOM     20  C   UNL d   1      22.657 -18.975  -0.551  0.00  0.00     0.037 A 
ATOM     21  C   UNL d   1      23.946 -18.954  -0.107  0.00  0.00     0.012 A 
BRANCH  19  22
ATOM     22  O   UNL d   1      20.761 -17.857  -1.263  0.00  0.00    -0.361 OA
ATOM     23  H   UNL d   1      20.542 -17.024  -1.702  0.00  0.00     0.217 HD
ENDBRANCH  19  22
ENDBRANCH  15  16
BRANCH  15  24
ATOM     24  O   UNL d   1      26.548 -19.117   0.181  0.00  0.00    -0.389 OA
ATOM     25  H   UNL d   1      27.482 -19.133   0.447  0.00  0.00     0.210 HD
ENDBRANCH  15  24
ENDBRANCH   1  15
TORSDOF 6
ENDMDL
MODEL 9
REMARK VINA RESULT:    -6.821      2.498      4.658
REMARK INTER + INTRA:          -9.597
REMARK INTER:                  -8.611
REMARK INTRA:                  -0.986
REMARK CONF_INDEPENDENT:        1.790
REMARK UNBOUND:                -0.986
REMARK  6 active torsions:
REMARK  status: ('A' for Active; 'I' for Inactive)
REMARK    1  A    between atoms: C_7  and  C_8 
REMARK       I    between atoms: C_8  and  N_10 
REMARK    2  A    between atoms: C_11  and  N_10 
REMARK    3  A    between atoms: C_13  and  C_11 
REMARK    4  A    between atoms: C_13  and  C_15 
REMARK    5  A    between atoms: C_13  and  O_14 
REMARK    6  A    between atoms: C_18  and  O_19 
ROOT
ATOM      1  C   UNL d   1      26.555 -17.075  -1.609  0.00  0.00     0.114 C 
ATOM      2  C   UNL d   1      27.831 -16.515  -1.224  0.00  0.00     0.035 C 
ENDROOT
BRANCH   1   3
ATOM      3  N   UNL d   1      25.885 -16.245  -2.633  0.00  0.00    -0.350 N 
ATOM      4  C   UNL d   1      25.749 -14.870  -2.885  0.00  0.00     0.252 C 
ATOM      5  O   UNL d   1      25.118 -14.597  -3.895  0.00  0.00    -0.268 OA
ATOM      6  H   UNL d   1      25.357 -16.791  -3.315  0.00  0.00     0.163 HD
BRANCH   4   7
ATOM      7  C   UNL d   1      26.335 -13.700  -2.049  0.00  0.00     0.033 A 
ATOM      8  C   UNL d   1      26.479 -13.815  -0.687  0.00  0.00     0.023 A 
ATOM      9  C   UNL d   1      27.020 -12.713   0.062  0.00  0.00    -0.061 A 
ATOM     10  C   UNL d   1      27.406 -11.466  -0.498  0.00  0.00     0.013 A 
ATOM     11  C   UNL d   1      27.196 -12.876   1.528  0.00  0.00     0.048 C 
ATOM     12  C   UNL d   1      27.276 -11.316  -1.826  0.00  0.00    -0.061 A 
ATOM     13  C   UNL d   1      27.587 -10.160  -2.760  0.00  0.00     0.048 C 
ATOM     14  C   UNL d   1      26.798 -12.450  -2.454  0.00  0.00     0.023 A 
ENDBRANCH   4   7
ENDBRANCH   1   3
BRANCH   1  15
ATOM     15  C   UNL d   1      25.780 -17.157  -0.251  0.00  0.00     0.173 C 
BRANCH  15  16
ATOM     16  C   UNL d   1      24.359 -17.411  -0.529  0.00  0.00    -0.028 A 
ATOM     17  C   UNL d   1      23.896 -18.721  -0.561  0.00  0.00     0.012 A 
ATOM     18  C   UNL d   1      22.543 -18.926  -0.755  0.00  0.00     0.037 A 
ATOM     19  C   UNL d   1      21.692 -17.825  -0.895  0.00  0.00     0.065 A 
ATOM     20  C   UNL d   1      22.155 -16.527  -0.874  0.00  0.00     0.037 A 
ATOM     21  C   UNL d   1      23.496 -16.325  -0.727  0.00  0.00     0.012 A 
BRANCH  19  22
ATOM     22  O   UNL d   1      20.353 -17.962  -1.073  0.00  0.00    -0.361 OA
ATOM     23  H   UNL d   1      20.122 -17.504  -1.893  0.00  0.00     0.217 HD
ENDBRANCH  19  22
ENDBRANCH  15  16
BRANCH  15  24
ATOM     24  O   UNL d   1      26.252 -18.200   0.619  0.00  0.00    -0.389 OA
ATOM     25  H   UNL d   1      27.153 -17.967   0.897  0.00  0.00     0.210 HD
ENDBRANCH  15  24
ENDBRANCH   1  15
TORSDOF 6
ENDMDL
