MODEL 1
REMARK VINA RESULT:    -8.750      0.000      0.000
REMARK INTER + INTRA:         -12.346
REMARK INTER:                 -11.435
REMARK INTRA:                  -0.912
REMARK CONF_INDEPENDENT:        2.685
REMARK UNBOUND:                -0.912
REMARK  9 active torsions:
REMARK  status: ('A' for Active; 'I' for Inactive)
REMARK    1  A    between atoms: C_2  and  C_3 
REMARK    2  A    between atoms: C_3  and  C_4 
REMARK    3  A    between atoms: CA_5  and  C_4 
REMARK    4  A    between atoms: CA_5  and  N_8 
REMARK    5  A    between atoms: CA_5  and  C_6 
REMARK    6  A    between atoms: C_6  and  O_7 
REMARK       I    between atoms: N_8  and  C_9 
REMARK    7  A    between atoms: C_9  and  C_11 
REMARK    8  A    between atoms: C_15  and  N_16 
REMARK       I    between atoms: N_16  and  C_17 
REMARK    9  A    between atoms: C_17  and  C_19 
ROOT
ATOM      1  C   UNL d   1      24.165 -17.767  -0.485  0.00  0.00     0.034 A 
ATOM      2  C   UNL d   1      25.050 -18.528   0.272  0.00  0.00     0.017 A 
ATOM      3  C   UNL d   1      26.392 -18.125   0.346  0.00  0.00     0.003 A 
ATOM      4  C   UNL d   1      26.848 -16.998  -0.369  0.00  0.00     0.029 A 
ATOM      5  C   UNL d   1      25.953 -16.256  -1.148  0.00  0.00     0.035 A 
ATOM      6  C   UNL d   1      24.632 -16.683  -1.196  0.00  0.00     0.046 A 
ENDROOT
BRANCH   1   7
ATOM      7  C   UNL d   1      22.693 -17.840  -0.403  0.00  0.00     0.252 C 
ATOM      8  N   UNL d   1      22.129 -19.076  -0.094  0.00  0.00    -0.350 N 
ATOM      9  H   UNL d   1      22.741 -19.877   0.017  0.00  0.00     0.163 HD
ATOM     10  O   UNL d   1      22.053 -16.812  -0.625  0.00  0.00    -0.268 OA
BRANCH   8  11
ATOM     11  CA  UNL d   1      20.716 -19.213   0.313  0.00  0.00     0.108 C 
BRANCH  11  12
ATOM     12  C   UNL d   1      19.752 -19.074  -0.895  0.00  0.00     0.189 C 
BRANCH  12  13
ATOM     13  O   UNL d   1      20.251 -19.707  -2.067  0.00  0.00    -0.399 OA
ATOM     14  H   UNL d   1      19.789 -19.325  -2.832  0.00  0.00     0.209 HD
ENDBRANCH  12  13
ENDBRANCH  11  12
BRANCH  11  15
ATOM     15  C   UNL d   1      20.412 -20.558   1.030  0.00  0.00     0.027 C 
BRANCH  15  16
ATOM     16  C   UNL d   1      19.521 -20.439   2.254  0.00  0.00     0.002 C 
BRANCH  16  17
ATOM     17  C   UNL d   1      18.041 -20.449   1.972  0.00  0.00    -0.004 C 
ATOM     18  C   UNL d   1      17.775 -21.572   0.977  0.00  0.00     0.005 C 
ENDBRANCH  16  17
ENDBRANCH  15  16
ENDBRANCH  11  15
ENDBRANCH   8  11
ENDBRANCH   1   7
BRANCH   5  19
ATOM     19  N   UNL d   1      26.340 -15.064  -1.821  0.00  0.00    -0.327 N 
ATOM     20  C   UNL d   1      25.920 -14.748  -3.110  0.00  0.00     0.221 C 
ATOM     21  O   UNL d   1      25.202 -15.451  -3.823  0.00  0.00    -0.273 OA
ATOM     22  H   UNL d   1      26.909 -14.403  -1.307  0.00  0.00     0.169 HD
BRANCH  20  23
ATOM     23  C   UNL d   1      26.399 -13.440  -3.683  0.00  0.00     0.098 C 
ATOM     24  C   UNL d   1      25.333 -12.947  -4.670  0.00  0.00     0.014 C 
ENDBRANCH  20  23
ENDBRANCH   5  19
TORSDOF 9
ENDMDL
MODEL 2
REMARK VINA RESULT:    -7.477      1.431      7.926
REMARK INTER + INTRA:         -11.770
REMARK INTER:                 -10.162
REMARK INTRA:                  -1.608
REMARK CONF_INDEPENDENT:        2.685
REMARK UNBOUND:                -1.608
REMARK  9 active torsions:
REMARK  status: ('A' for Active; 'I' for Inactive)
REMARK    1  A    between atoms: C_2  and  C_3 
REMARK    2  A    between atoms: C_3  and  C_4 
REMARK    3  A    between atoms: CA_5  and  C_4 
REMARK    4  A    between atoms: CA_5  and  N_8 
REMARK    5  A    between atoms: CA_5  and  C_6 
REMARK    6  A    between atoms: C_6  and  O_7 
REMARK       I    between atoms: N_8  and  C_9 
REMARK    7  A    between atoms: C_9  and  C_11 
REMARK    8  A    between atoms: C_15  and  N_16 
REMARK       I    between atoms: N_16  and  C_17 
REMARK    9  A    between atoms: C_17  and  C_19 
ROOT
ATOM      1  C   UNL d   1      25.335 -16.042  -1.503  0.00  0.00     0.034 A 
ATOM      2  C   UNL d   1      26.398 -16.746  -0.948  0.00  0.00     0.017 A 
ATOM      3  C   UNL d   1      26.119 -17.847  -0.123  0.00  0.00     0.003 A 
ATOM      4  C   UNL d   1      24.788 -18.205   0.176  0.00  0.00     0.029 A 
ATOM      5  C   UNL d   1      23.728 -17.472  -0.367  0.00  0.00     0.035 A 
ATOM      6  C   UNL d   1      24.041 -16.391  -1.181  0.00  0.00     0.046 A 
ENDROOT
BRANCH   1   7
ATOM      7  C   UNL d   1      25.436 -15.098  -2.634  0.00  0.00     0.252 C 
ATOM      8  N   UNL d   1      26.694 -14.569  -2.915  0.00  0.00    -0.350 N 
ATOM      9  H   UNL d   1      27.472 -14.814  -2.313  0.00  0.00     0.163 HD
ATOM     10  O   UNL d   1      24.405 -14.826  -3.250  0.00  0.00    -0.268 OA
BRANCH   8  11
ATOM     11  CA  UNL d   1      26.983 -13.868  -4.183  0.00  0.00     0.108 C 
BRANCH  11  12
ATOM     12  C   UNL d   1      27.196 -14.861  -5.356  0.00  0.00     0.189 C 
BRANCH  12  13
ATOM     13  O   UNL d   1      26.130 -15.795  -5.480  0.00  0.00    -0.399 OA
ATOM     14  H   UNL d   1      25.335 -15.394  -5.092  0.00  0.00     0.209 HD
ENDBRANCH  12  13
ENDBRANCH  11  12
BRANCH  11  15
ATOM     15  C   UNL d   1      25.874 -12.859  -4.592  0.00  0.00     0.027 C 
BRANCH  15  16
ATOM     16  C   UNL d   1      25.538 -11.820  -3.536  0.00  0.00     0.002 C 
BRANCH  16  17
ATOM     17  C   UNL d   1      25.631 -10.388  -3.994  0.00  0.00    -0.004 C 
ATOM     18  C   UNL d   1      25.910 -10.406  -5.492  0.00  0.00     0.005 C 
ENDBRANCH  16  17
ENDBRANCH  15  16
ENDBRANCH  11  15
ENDBRANCH   8  11
ENDBRANCH   1   7
BRANCH   5  19
ATOM     19  N   UNL d   1      22.369 -17.841  -0.167  0.00  0.00    -0.327 N 
ATOM     20  C   UNL d   1      21.701 -18.755  -0.978  0.00  0.00     0.221 C 
ATOM     21  O   UNL d   1      22.179 -19.324  -1.960  0.00  0.00    -0.273 OA
ATOM     22  H   UNL d   1      21.893 -17.448   0.636  0.00  0.00     0.169 HD
BRANCH  20  23
ATOM     23  C   UNL d   1      20.268 -19.058  -0.629  0.00  0.00     0.098 C 
ATOM     24  C   UNL d   1      20.273 -19.964   0.609  0.00  0.00     0.014 C 
ENDBRANCH  20  23
ENDBRANCH   5  19
TORSDOF 9
ENDMDL
MODEL 3
REMARK VINA RESULT:    -7.432      1.873      7.889
REMARK INTER + INTRA:         -11.826
REMARK INTER:                 -10.117
REMARK INTRA:                  -1.709
REMARK CONF_INDEPENDENT:        2.685
REMARK UNBOUND:                -1.709
REMARK  9 active torsions:
REMARK  status: ('A' for Active; 'I' for Inactive)
REMARK    1  A    between atoms: C_2  and  C_3 
REMARK    2  A    between atoms: C_3  and  C_4 
REMARK    3  A    between atoms: CA_5  and  C_4 
REMARK    4  A    between atoms: CA_5  and  N_8 
REMARK    5  A    between atoms: CA_5  and  C_6 
REMARK    6  A    between atoms: C_6  and  O_7 
REMARK       I    between atoms: N_8  and  C_9 
REMARK    7  A    between atoms: C_9  and  C_11 
REMARK    8  A    between atoms: C_15  and  N_16 
REMARK       I    between atoms: N_16  and  C_17 
REMARK    9  A    between atoms: C_17  and  C_19 
ROOT
ATOM      1  C   UNL d   1      24.955 -16.062  -1.533  0.00  0.00     0.034 A 
ATOM      2  C   UNL d   1      26.081 -16.705  -1.031  0.00  0.00     0.017 A 
ATOM      3  C   UNL d   1      25.904 -17.817  -0.193  0.00  0.00     0.003 A 
ATOM      4  C   UNL d   1      24.611 -18.247   0.171  0.00  0.00     0.029 A 
ATOM      5  C   UNL d   1      23.486 -17.575  -0.320  0.00  0.00     0.035 A 
ATOM      6  C   UNL d   1      23.699 -16.481  -1.148  0.00  0.00     0.046 A 
ENDROOT
BRANCH   1   7
ATOM      7  C   UNL d   1      24.949 -15.118  -2.669  0.00  0.00     0.252 C 
ATOM      8  N   UNL d   1      26.108 -15.033  -3.437  0.00  0.00    -0.350 N 
ATOM      9  H   UNL d   1      26.915 -15.582  -3.163  0.00  0.00     0.163 HD
ATOM     10  O   UNL d   1      23.928 -14.455  -2.859  0.00  0.00    -0.268 OA
BRANCH   8  11
ATOM     11  CA  UNL d   1      26.126 -14.369  -4.755  0.00  0.00     0.108 C 
BRANCH  11  12
ATOM     12  C   UNL d   1      26.183 -12.824  -4.624  0.00  0.00     0.189 C 
BRANCH  12  13
ATOM     13  O   UNL d   1      25.281 -12.327  -3.642  0.00  0.00    -0.399 OA
ATOM     14  H   UNL d   1      24.383 -12.596  -3.899  0.00  0.00     0.209 HD
ENDBRANCH  12  13
ENDBRANCH  11  12
BRANCH  11  15
ATOM     15  C   UNL d   1      27.307 -14.827  -5.656  0.00  0.00     0.027 C 
BRANCH  15  16
ATOM     16  C   UNL d   1      28.671 -14.776  -4.992  0.00  0.00     0.002 C 
BRANCH  16  17
ATOM     17  C   UNL d   1      29.274 -16.117  -4.663  0.00  0.00    -0.004 C 
ATOM     18  C   UNL d   1      29.148 -16.316  -3.158  0.00  0.00     0.005 C 
ENDBRANCH  16  17
ENDBRANCH  15  16
ENDBRANCH  11  15
ENDBRANCH   8  11
ENDBRANCH   1   7
BRANCH   5  19
ATOM     19  N   UNL d   1      22.161 -18.018  -0.053  0.00  0.00    -0.327 N 
ATOM     20  C   UNL d   1      21.461 -18.873  -0.899  0.00  0.00     0.221 C 
ATOM     21  O   UNL d   1      21.875 -19.322  -1.968  0.00  0.00    -0.273 OA
ATOM     22  H   UNL d   1      21.740 -17.727   0.820  0.00  0.00     0.169 HD
BRANCH  20  23
ATOM     23  C   UNL d   1      20.071 -19.269  -0.472  0.00  0.00     0.098 C 
ATOM     24  C   UNL d   1      20.201 -20.133   0.789  0.00  0.00     0.014 C 
ENDBRANCH  20  23
ENDBRANCH   5  19
TORSDOF 9
ENDMDL
MODEL 4
REMARK VINA RESULT:    -7.367      1.564      7.614
REMARK INTER + INTRA:         -11.152
REMARK INTER:                 -10.052
REMARK INTRA:                  -1.100
REMARK CONF_INDEPENDENT:        2.685
REMARK UNBOUND:                -1.100
REMARK  9 active torsions:
REMARK  status: ('A' for Active; 'I' for Inactive)
REMARK    1  A    between atoms: C_2  and  C_3 
REMARK    2  A    between atoms: C_3  and  C_4 
REMARK    3  A    between atoms: CA_5  and  C_4 
REMARK    4  A    between atoms: CA_5  and  N_8 
REMARK    5  A    between atoms: CA_5  and  C_6 
REMARK    6  A    between atoms: C_6  and  O_7 
REMARK       I    between atoms: N_8  and  C_9 
REMARK    7  A    between atoms: C_9  and  C_11 
REMARK    8  A    between atoms: C_15  and  N_16 
REMARK       I    between atoms: N_16  and  C_17 
REMARK    9  A    between atoms: C_17  and  C_19 
ROOT
ATOM      1  C   UNL d   1      25.260 -16.449  -1.360  0.00  0.00     0.034 A 
ATOM      2  C   UNL d   1      26.260 -17.164  -0.709  0.00  0.00     0.017 A 
ATOM      3  C   UNL d   1      25.888 -18.175   0.191  0.00  0.00     0.003 A 
ATOM      4  C   UNL d   1      24.529 -18.432   0.465  0.00  0.00     0.029 A 
ATOM      5  C   UNL d   1      23.533 -17.689  -0.178  0.00  0.00     0.035 A 
ATOM      6  C   UNL d   1      23.937 -16.698  -1.063  0.00  0.00     0.046 A 
ENDROOT
BRANCH   1   7
ATOM      7  C   UNL d   1      25.457 -15.609  -2.559  0.00  0.00     0.252 C 
ATOM      8  N   UNL d   1      25.740 -14.260  -2.356  0.00  0.00    -0.350 N 
ATOM      9  H   UNL d   1      25.756 -13.903  -1.407  0.00  0.00     0.163 HD
ATOM     10  O   UNL d   1      25.345 -16.146  -3.662  0.00  0.00    -0.268 OA
BRANCH   8  11
ATOM     11  CA  UNL d   1      26.251 -13.397  -3.439  0.00  0.00     0.108 C 
BRANCH  11  12
ATOM     12  C   UNL d   1      25.257 -13.312  -4.628  0.00  0.00     0.189 C 
BRANCH  12  13
ATOM     13  O   UNL d   1      23.943 -13.723  -4.270  0.00  0.00    -0.399 OA
ATOM     14  H   UNL d   1      23.318 -13.276  -4.865  0.00  0.00     0.209 HD
ENDBRANCH  12  13
ENDBRANCH  11  12
BRANCH  11  15
ATOM     15  C   UNL d   1      26.576 -11.951  -2.969  0.00  0.00     0.027 C 
BRANCH  15  16
ATOM     16  C   UNL d   1      27.030 -11.839  -1.525  0.00  0.00     0.002 C 
BRANCH  16  17
ATOM     17  C   UNL d   1      28.188 -12.725  -1.147  0.00  0.00    -0.004 C 
ATOM     18  C   UNL d   1      27.784 -13.492   0.105  0.00  0.00     0.005 C 
ENDBRANCH  16  17
ENDBRANCH  15  16
ENDBRANCH  11  15
ENDBRANCH   8  11
ENDBRANCH   1   7
BRANCH   5  19
ATOM     19  N   UNL d   1      22.148 -17.963  -0.003  0.00  0.00    -0.327 N 
ATOM     20  C   UNL d   1      21.419 -18.777  -0.866  0.00  0.00     0.221 C 
ATOM     21  O   UNL d   1      21.859 -19.325  -1.877  0.00  0.00    -0.273 OA
ATOM     22  H   UNL d   1      21.698 -17.581   0.819  0.00  0.00     0.169 HD
BRANCH  20  23
ATOM     23  C   UNL d   1      19.964 -18.989  -0.539  0.00  0.00     0.098 C 
ATOM     24  C   UNL d   1      19.820 -20.401   0.043  0.00  0.00     0.014 C 
ENDBRANCH  20  23
ENDBRANCH   5  19
TORSDOF 9
ENDMDL
MODEL 5
REMARK VINA RESULT:    -7.367      2.553      7.841
REMARK INTER + INTRA:         -11.092
REMARK INTER:                 -10.051
REMARK INTRA:                  -1.041
REMARK CONF_INDEPENDENT:        2.685
REMARK UNBOUND:                -1.041
REMARK  9 active torsions:
REMARK  status: ('A' for Active; 'I' for Inactive)
REMARK    1  A    between atoms: C_2  and  C_3 
REMARK    2  A    between atoms: C_3  and  C_4 
REMARK    3  A    between atoms: CA_5  and  C_4 
REMARK    4  A    between atoms: CA_5  and  N_8 
REMARK    5  A    between atoms: CA_5  and  C_6 
REMARK    6  A    between atoms: C_6  and  O_7 
REMARK       I    between atoms: N_8  and  C_9 
REMARK    7  A    between atoms: C_9  and  C_11 
REMARK    8  A    between atoms: C_15  and  N_16 
REMARK       I    between atoms: N_16  and  C_17 
REMARK    9  A    between atoms: C_17  and  C_19 
ROOT
ATOM      1  C   UNL d   1      24.927 -17.520  -0.612  0.00  0.00     0.034 A 
ATOM      2  C   UNL d   1      24.462 -16.310  -1.115  0.00  0.00     0.017 A 
ATOM      3  C   UNL d   1      23.077 -16.117  -1.234  0.00  0.00     0.003 A 
ATOM      4  C   UNL d   1      22.174 -17.146  -0.893  0.00  0.00     0.029 A 
ATOM      5  C   UNL d   1      22.656 -18.368  -0.413  0.00  0.00     0.035 A 
ATOM      6  C   UNL d   1      24.032 -18.523  -0.306  0.00  0.00     0.046 A 
ENDROOT
BRANCH   1   7
ATOM      7  C   UNL d   1      26.294 -17.765  -0.110  0.00  0.00     0.252 C 
ATOM      8  N   UNL d   1      27.339 -17.096  -0.745  0.00  0.00    -0.350 N 
ATOM      9  H   UNL d   1      27.127 -16.509  -1.545  0.00  0.00     0.163 HD
ATOM     10  O   UNL d   1      26.430 -18.553   0.826  0.00  0.00    -0.268 OA
BRANCH   8  11
ATOM     11  CA  UNL d   1      28.690 -17.017  -0.156  0.00  0.00     0.108 C 
BRANCH  11  12
ATOM     12  C   UNL d   1      29.784 -17.479  -1.154  0.00  0.00     0.189 C 
BRANCH  12  13
ATOM     13  O   UNL d   1      30.436 -18.672  -0.735  0.00  0.00    -0.399 OA
ATOM     14  H   UNL d   1      30.383 -18.716   0.235  0.00  0.00     0.209 HD
ENDBRANCH  12  13
ENDBRANCH  11  12
BRANCH  11  15
ATOM     15  C   UNL d   1      29.057 -15.592   0.347  0.00  0.00     0.027 C 
BRANCH  15  16
ATOM     16  C   UNL d   1      28.134 -15.038   1.417  0.00  0.00     0.002 C 
BRANCH  16  17
ATOM     17  C   UNL d   1      27.050 -14.121   0.915  0.00  0.00    -0.004 C 
ATOM     18  C   UNL d   1      27.374 -13.782  -0.534  0.00  0.00     0.005 C 
ENDBRANCH  16  17
ENDBRANCH  15  16
ENDBRANCH  11  15
ENDBRANCH   8  11
ENDBRANCH   1   7
BRANCH   5  19
ATOM     19  N   UNL d   1      21.788 -19.407   0.024  0.00  0.00    -0.327 N 
ATOM     20  C   UNL d   1      20.427 -19.432  -0.265  0.00  0.00     0.221 C 
ATOM     21  O   UNL d   1      19.812 -18.571  -0.895  0.00  0.00    -0.273 OA
ATOM     22  H   UNL d   1      22.204 -20.181   0.527  0.00  0.00     0.169 HD
BRANCH  20  23
ATOM     23  C   UNL d   1      19.640 -20.609   0.251  0.00  0.00     0.098 C 
ATOM     24  C   UNL d   1      18.827 -20.129   1.460  0.00  0.00     0.014 C 
ENDBRANCH  20  23
ENDBRANCH   5  19
TORSDOF 9
ENDMDL
MODEL 6
REMARK VINA RESULT:    -6.485      3.839      8.211
REMARK INTER + INTRA:          -9.809
REMARK INTER:                  -9.170
REMARK INTRA:                  -0.639
REMARK CONF_INDEPENDENT:        2.685
REMARK UNBOUND:                -0.639
REMARK  9 active torsions:
REMARK  status: ('A' for Active; 'I' for Inactive)
REMARK    1  A    between atoms: C_2  and  C_3 
REMARK    2  A    between atoms: C_3  and  C_4 
REMARK    3  A    between atoms: CA_5  and  C_4 
REMARK    4  A    between atoms: CA_5  and  N_8 
REMARK    5  A    between atoms: CA_5  and  C_6 
REMARK    6  A    between atoms: C_6  and  O_7 
REMARK       I    between atoms: N_8  and  C_9 
REMARK    7  A    between atoms: C_9  and  C_11 
REMARK    8  A    between atoms: C_15  and  N_16 
REMARK       I    between atoms: N_16  and  C_17 
REMARK    9  A    between atoms: C_17  and  C_19 
ROOT
ATOM      1  C   UNL d   1      25.655 -16.718  -0.295  0.00  0.00     0.034 A 
ATOM      2  C   UNL d   1      25.220 -15.776  -1.221  0.00  0.00     0.017 A 
ATOM      3  C   UNL d   1      23.898 -15.850  -1.687  0.00  0.00     0.003 A 
ATOM      4  C   UNL d   1      23.040 -16.885  -1.261  0.00  0.00     0.029 A 
ATOM      5  C   UNL d   1      23.498 -17.842  -0.348  0.00  0.00     0.035 A 
ATOM      6  C   UNL d   1      24.811 -17.736   0.094  0.00  0.00     0.046 A 
ENDROOT
BRANCH   1   7
ATOM      7  C   UNL d   1      26.867 -16.595   0.540  0.00  0.00     0.252 C 
ATOM      8  N   UNL d   1      27.334 -15.309   0.806  0.00  0.00    -0.350 N 
ATOM      9  H   UNL d   1      26.855 -14.520   0.386  0.00  0.00     0.163 HD
ATOM     10  O   UNL d   1      27.400 -17.632   0.936  0.00  0.00    -0.268 OA
BRANCH   8  11
ATOM     11  CA  UNL d   1      28.335 -15.042   1.858  0.00  0.00     0.108 C 
BRANCH  11  12
ATOM     12  C   UNL d   1      29.649 -14.463   1.271  0.00  0.00     0.189 C 
BRANCH  12  13
ATOM     13  O   UNL d   1      30.809 -15.077   1.822  0.00  0.00    -0.399 OA
ATOM     14  H   UNL d   1      30.695 -16.040   1.759  0.00  0.00     0.209 HD
ENDBRANCH  12  13
ENDBRANCH  11  12
BRANCH  11  15
ATOM     15  C   UNL d   1      27.822 -14.073   2.960  0.00  0.00     0.027 C 
BRANCH  15  16
ATOM     16  C   UNL d   1      28.495 -14.234   4.312  0.00  0.00     0.002 C 
BRANCH  16  17
ATOM     17  C   UNL d   1      27.763 -13.609   5.470  0.00  0.00    -0.004 C 
ATOM     18  C   UNL d   1      28.718 -13.592   6.657  0.00  0.00     0.005 C 
ENDBRANCH  16  17
ENDBRANCH  15  16
ENDBRANCH  11  15
ENDBRANCH   8  11
ENDBRANCH   1   7
BRANCH   5  19
ATOM     19  N   UNL d   1      22.651 -18.855   0.179  0.00  0.00    -0.327 N 
ATOM     20  C   UNL d   1      21.298 -18.954  -0.135  0.00  0.00     0.221 C 
ATOM     21  O   UNL d   1      20.674 -18.184  -0.866  0.00  0.00    -0.273 OA
ATOM     22  H   UNL d   1      23.076 -19.558   0.770  0.00  0.00     0.169 HD
BRANCH  20  23
ATOM     23  C   UNL d   1      20.533 -20.093   0.487  0.00  0.00     0.098 C 
ATOM     24  C   UNL d   1      19.094 -20.030  -0.040  0.00  0.00     0.014 C 
ENDBRANCH  20  23
ENDBRANCH   5  19
TORSDOF 9
ENDMDL
