MODEL 1
REMARK VINA RESULT:    -9.587      0.000      0.000
REMARK INTER + INTRA:         -12.319
REMARK INTER:                 -11.377
REMARK INTRA:                  -0.942
REMARK CONF_INDEPENDENT:        1.790
REMARK UNBOUND:                -0.942
REMARK  6 active torsions:
REMARK  status: ('A' for Active; 'I' for Inactive)
REMARK    1  A    between atoms: C_2  and  C_3 
REMARK       I    between atoms: C_2  and  N_15 
REMARK    2  A    between atoms: C_4  and  C_5 
REMARK    3  A    between atoms: N_15  and  N_16 
REMARK       I    between atoms: N_16  and  C_17 
REMARK    4  A    between atoms: C_17  and  C_19 
REMARK    5  A    between atoms: C_19  and  N_20 
REMARK       I    between atoms: N_20  and  C_21 
REMARK    6  A    between atoms: C_21  and  C_23 
ROOT
ATOM      1  O   UNL d   1      28.964 -17.047  -0.519  0.00  0.00    -0.267 OA
ATOM      2  C   UNL d   1      27.819 -16.627  -0.345  0.00  0.00     0.259 C 
ATOM      3  N   UNL d   1      26.764 -17.129  -1.085  0.00  0.00    -0.264 N 
ATOM      4  H   UNL d   1      26.994 -17.850  -1.771  0.00  0.00     0.190 HD
ENDROOT
BRANCH   3   5
ATOM      5  N   UNL d   1      25.396 -16.760  -1.002  0.00  0.00    -0.266 N 
ATOM      6  C   UNL d   1      24.535 -17.499  -0.190  0.00  0.00     0.253 C 
ATOM      7  O   UNL d   1      24.910 -18.465   0.477  0.00  0.00    -0.270 OA
ATOM      8  H   UNL d   1      25.060 -15.976  -1.547  0.00  0.00     0.190 HD
BRANCH   6   9
ATOM      9  C   UNL d   1      23.064 -17.011  -0.183  0.00  0.00     0.227 C 
BRANCH   9  10
ATOM     10  N   UNL d   1      22.118 -18.008   0.330  0.00  0.00    -0.352 N 
ATOM     11  C   UNL d   1      21.607 -19.020  -0.464  0.00  0.00     0.222 C 
ATOM     12  O   UNL d   1      21.952 -19.148  -1.637  0.00  0.00    -0.273 OA
ATOM     13  H   UNL d   1      21.841 -17.922   1.303  0.00  0.00     0.162 HD
BRANCH  11  14
ATOM     14  C   UNL d   1      20.599 -19.974   0.220  0.00  0.00     0.078 C 
ATOM     15  C   UNL d   1      20.404 -19.580   1.690  0.00  0.00     0.014 C 
ATOM     16  C   UNL d   1      19.371 -20.450   2.405  0.00  0.00     0.001 C 
ATOM     17  C   UNL d   1      18.030 -20.448   1.684  0.00  0.00     0.000 C 
ATOM     18  C   UNL d   1      18.203 -20.876   0.232  0.00  0.00     0.001 C 
ATOM     19  C   UNL d   1      19.228 -19.997  -0.495  0.00  0.00     0.014 C 
ENDBRANCH  11  14
ENDBRANCH   9  10
ENDBRANCH   6   9
ENDBRANCH   3   5
BRANCH   2  20
ATOM     20  C   UNL d   1      27.542 -15.570   0.665  0.00  0.00     0.076 C 
ATOM     21  C   UNL d   1      27.867 -14.274   0.477  0.00  0.00     0.018 C 
BRANCH  21  22
ATOM     22  C   UNL d   1      27.556 -13.254   1.509  0.00  0.00    -0.025 A 
ATOM     23  C   UNL d   1      27.054 -12.015   1.070  0.00  0.00     0.012 A 
ATOM     24  C   UNL d   1      26.867 -10.959   1.956  0.00  0.00     0.002 A 
ATOM     25  C   UNL d   1      27.144 -11.131   3.307  0.00  0.00     0.012 A 
ATOM     26  C   UNL d   1      27.560 -12.375   3.799  0.00  0.00    -0.025 A 
ATOM     27  C   UNL d   1      27.777 -12.539   5.179  0.00  0.00     0.012 A 
ATOM     28  C   UNL d   1      27.767 -13.463   2.905  0.00  0.00    -0.016 A 
ATOM     29  C   UNL d   1      28.184 -13.764   5.699  0.00  0.00     0.001 A 
ATOM     30  C   UNL d   1      28.382 -14.841   4.845  0.00  0.00     0.001 A 
ATOM     31  C   UNL d   1      28.184 -14.691   3.468  0.00  0.00     0.013 A 
ENDBRANCH  21  22
ENDBRANCH   2  20
TORSDOF 6
ENDMDL
MODEL 2
REMARK VINA RESULT:    -9.353      4.618      5.902
REMARK INTER + INTRA:         -12.460
REMARK INTER:                 -11.143
REMARK INTRA:                  -1.317
REMARK CONF_INDEPENDENT:        1.790
REMARK UNBOUND:                -1.317
REMARK  6 active torsions:
REMARK  status: ('A' for Active; 'I' for Inactive)
REMARK    1  A    between atoms: C_2  and  C_3 
REMARK       I    between atoms: C_2  and  N_15 
REMARK    2  A    between atoms: C_4  and  C_5 
REMARK    3  A    between atoms: N_15  and  N_16 
REMARK       I    between atoms: N_16  and  C_17 
REMARK    4  A    between atoms: C_17  and  C_19 
REMARK    5  A    between atoms: C_19  and  N_20 
REMARK       I    between atoms: N_20  and  C_21 
REMARK    6  A    between atoms: C_21  and  C_23 
ROOT
ATOM      1  O   UNL d   1      24.537 -13.464  -4.389  0.00  0.00    -0.267 OA
ATOM      2  C   UNL d   1      24.953 -14.450  -3.779  0.00  0.00     0.259 C 
ATOM      3  N   UNL d   1      24.271 -14.939  -2.680  0.00  0.00    -0.264 N 
ATOM      4  H   UNL d   1      23.422 -14.437  -2.413  0.00  0.00     0.190 HD
ENDROOT
BRANCH   3   5
ATOM      5  N   UNL d   1      24.611 -16.060  -1.878  0.00  0.00    -0.266 N 
ATOM      6  C   UNL d   1      23.662 -16.588  -1.002  0.00  0.00     0.253 C 
ATOM      7  O   UNL d   1      22.523 -16.130  -0.894  0.00  0.00    -0.270 OA
ATOM      8  H   UNL d   1      25.542 -16.450  -1.941  0.00  0.00     0.190 HD
BRANCH   6   9
ATOM      9  C   UNL d   1      24.145 -17.805  -0.172  0.00  0.00     0.227 C 
BRANCH   9  10
ATOM     10  N   UNL d   1      23.050 -18.618   0.369  0.00  0.00    -0.352 N 
ATOM     11  C   UNL d   1      22.044 -19.130  -0.432  0.00  0.00     0.222 C 
ATOM     12  O   UNL d   1      22.041 -18.950  -1.648  0.00  0.00    -0.273 OA
ATOM     13  H   UNL d   1      23.055 -18.788   1.370  0.00  0.00     0.162 HD
BRANCH  11  14
ATOM     14  C   UNL d   1      20.948 -19.944   0.296  0.00  0.00     0.078 C 
ATOM     15  C   UNL d   1      20.655 -19.334   1.673  0.00  0.00     0.014 C 
ATOM     16  C   UNL d   1      19.534 -20.060   2.417  0.00  0.00     0.001 C 
ATOM     17  C   UNL d   1      18.255 -20.125   1.594  0.00  0.00     0.000 C 
ATOM     18  C   UNL d   1      18.524 -20.765   0.238  0.00  0.00     0.001 C 
ATOM     19  C   UNL d   1      19.637 -20.031  -0.520  0.00  0.00     0.014 C 
ENDBRANCH  11  14
ENDBRANCH   9  10
ENDBRANCH   6   9
ENDBRANCH   3   5
BRANCH   2  20
ATOM     20  C   UNL d   1      26.200 -15.139  -4.208  0.00  0.00     0.076 C 
ATOM     21  C   UNL d   1      27.304 -14.476  -4.607  0.00  0.00     0.018 C 
BRANCH  21  22
ATOM     22  C   UNL d   1      28.529 -15.209  -5.012  0.00  0.00    -0.025 A 
ATOM     23  C   UNL d   1      28.968 -15.063  -6.341  0.00  0.00     0.012 A 
ATOM     24  C   UNL d   1      30.024 -15.820  -6.838  0.00  0.00     0.002 A 
ATOM     25  C   UNL d   1      30.688 -16.713  -6.005  0.00  0.00     0.012 A 
ATOM     26  C   UNL d   1      30.341 -16.823  -4.652  0.00  0.00    -0.025 A 
ATOM     27  C   UNL d   1      31.068 -17.691  -3.818  0.00  0.00     0.012 A 
ATOM     28  C   UNL d   1      29.257 -16.064  -4.131  0.00  0.00    -0.016 A 
ATOM     29  C   UNL d   1      30.752 -17.818  -2.469  0.00  0.00     0.001 A 
ATOM     30  C   UNL d   1      29.703 -17.079  -1.936  0.00  0.00     0.001 A 
ATOM     31  C   UNL d   1      28.962 -16.221  -2.756  0.00  0.00     0.013 A 
ENDBRANCH  21  22
ENDBRANCH   2  20
TORSDOF 6
ENDMDL
MODEL 3
REMARK VINA RESULT:    -8.844      4.705      6.705
REMARK INTER + INTRA:         -11.880
REMARK INTER:                 -10.634
REMARK INTRA:                  -1.246
REMARK CONF_INDEPENDENT:        1.790
REMARK UNBOUND:                -1.246
REMARK  6 active torsions:
REMARK  status: ('A' for Active; 'I' for Inactive)
REMARK    1  A    between atoms: C_2  and  C_3 
REMARK       I    between atoms: C_2  and  N_15 
REMARK    2  A    between atoms: C_4  and  C_5 
REMARK    3  A    between atoms: N_15  and  N_16 
REMARK       I    between atoms: N_16  and  C_17 
REMARK    4  A    between atoms: C_17  and  C_19 
REMARK    5  A    between atoms: C_19  and  N_20 
REMARK       I    between atoms: N_20  and  C_21 
REMARK    6  A    between atoms: C_21  and  C_23 
ROOT
ATOM      1  O   UNL d   1      24.575 -13.474  -4.387  0.00  0.00    -0.267 OA
ATOM      2  C   UNL d   1      24.990 -14.450  -3.759  0.00  0.00     0.259 C 
ATOM      3  N   UNL d   1      24.291 -14.938  -2.671  0.00  0.00    -0.264 N 
ATOM      4  H   UNL d   1      23.430 -14.444  -2.427  0.00  0.00     0.190 HD
ENDROOT
BRANCH   3   5
ATOM      5  N   UNL d   1      24.627 -16.047  -1.852  0.00  0.00    -0.266 N 
ATOM      6  C   UNL d   1      23.662 -16.590  -1.003  0.00  0.00     0.253 C 
ATOM      7  O   UNL d   1      22.511 -16.153  -0.933  0.00  0.00    -0.270 OA
ATOM      8  H   UNL d   1      25.568 -16.419  -1.883  0.00  0.00     0.190 HD
BRANCH   6   9
ATOM      9  C   UNL d   1      24.143 -17.792  -0.151  0.00  0.00     0.227 C 
BRANCH   9  10
ATOM     10  N   UNL d   1      23.047 -18.610   0.381  0.00  0.00    -0.352 N 
ATOM     11  C   UNL d   1      22.036 -19.104  -0.425  0.00  0.00     0.222 C 
ATOM     12  O   UNL d   1      22.028 -18.904  -1.638  0.00  0.00    -0.273 OA
ATOM     13  H   UNL d   1      23.055 -18.797   1.379  0.00  0.00     0.162 HD
BRANCH  11  14
ATOM     14  C   UNL d   1      20.939 -19.926   0.293  0.00  0.00     0.078 C 
ATOM     15  C   UNL d   1      20.654 -19.338   1.682  0.00  0.00     0.014 C 
ATOM     16  C   UNL d   1      19.533 -20.072   2.418  0.00  0.00     0.001 C 
ATOM     17  C   UNL d   1      18.251 -20.118   1.599  0.00  0.00     0.000 C 
ATOM     18  C   UNL d   1      18.511 -20.737   0.231  0.00  0.00     0.001 C 
ATOM     19  C   UNL d   1      19.625 -19.994  -0.519  0.00  0.00     0.014 C 
ENDBRANCH  11  14
ENDBRANCH   9  10
ENDBRANCH   6   9
ENDBRANCH   3   5
BRANCH   2  20
ATOM     20  C   UNL d   1      26.255 -15.126  -4.156  0.00  0.00     0.076 C 
ATOM     21  C   UNL d   1      27.437 -14.483  -4.234  0.00  0.00     0.018 C 
BRANCH  21  22
ATOM     22  C   UNL d   1      28.674 -15.206  -4.620  0.00  0.00    -0.025 A 
ATOM     23  C   UNL d   1      29.037 -16.331  -3.856  0.00  0.00     0.012 A 
ATOM     24  C   UNL d   1      30.249 -16.981  -4.063  0.00  0.00     0.002 A 
ATOM     25  C   UNL d   1      31.108 -16.543  -5.065  0.00  0.00     0.012 A 
ATOM     26  C   UNL d   1      30.744 -15.484  -5.906  0.00  0.00    -0.025 A 
ATOM     27  C   UNL d   1      31.606 -15.098  -6.948  0.00  0.00     0.012 A 
ATOM     28  C   UNL d   1      29.513 -14.800  -5.700  0.00  0.00    -0.016 A 
ATOM     29  C   UNL d   1      31.270 -14.054  -7.805  0.00  0.00     0.001 A 
ATOM     30  C   UNL d   1      30.069 -13.380  -7.629  0.00  0.00     0.001 A 
ATOM     31  C   UNL d   1      29.207 -13.743  -6.588  0.00  0.00     0.013 A 
ENDBRANCH  21  22
ENDBRANCH   2  20
TORSDOF 6
ENDMDL
MODEL 4
REMARK VINA RESULT:    -8.314      5.203      8.800
REMARK INTER + INTRA:         -11.756
REMARK INTER:                 -10.103
REMARK INTRA:                  -1.652
REMARK CONF_INDEPENDENT:        1.790
REMARK UNBOUND:                -1.652
REMARK  6 active torsions:
REMARK  status: ('A' for Active; 'I' for Inactive)
REMARK    1  A    between atoms: C_2  and  C_3 
REMARK       I    between atoms: C_2  and  N_15 
REMARK    2  A    between atoms: C_4  and  C_5 
REMARK    3  A    between atoms: N_15  and  N_16 
REMARK       I    between atoms: N_16  and  C_17 
REMARK    4  A    between atoms: C_17  and  C_19 
REMARK    5  A    between atoms: C_19  and  N_20 
REMARK       I    between atoms: N_20  and  C_21 
REMARK    6  A    between atoms: C_21  and  C_23 
ROOT
ATOM      1  O   UNL d   1      23.433 -13.700  -4.269  0.00  0.00    -0.267 OA
ATOM      2  C   UNL d   1      24.662 -13.792  -4.249  0.00  0.00     0.259 C 
ATOM      3  N   UNL d   1      25.443 -12.974  -5.044  0.00  0.00    -0.264 N 
ATOM      4  H   UNL d   1      24.945 -12.308  -5.637  0.00  0.00     0.190 HD
ENDROOT
BRANCH   3   5
ATOM      5  N   UNL d   1      26.859 -12.950  -5.133  0.00  0.00    -0.266 N 
ATOM      6  C   UNL d   1      27.542 -14.108  -5.509  0.00  0.00     0.253 C 
ATOM      7  O   UNL d   1      26.967 -15.164  -5.782  0.00  0.00    -0.270 OA
ATOM      8  H   UNL d   1      27.356 -12.099  -4.906  0.00  0.00     0.190 HD
BRANCH   6   9
ATOM      9  C   UNL d   1      29.085 -13.968  -5.565  0.00  0.00     0.227 C 
BRANCH   9  10
ATOM     10  N   UNL d   1      29.774 -15.215  -5.915  0.00  0.00    -0.352 N 
ATOM     11  C   UNL d   1      30.001 -16.219  -4.990  0.00  0.00     0.222 C 
ATOM     12  O   UNL d   1      29.603 -16.122  -3.830  0.00  0.00    -0.273 OA
ATOM     13  H   UNL d   1      30.090 -15.313  -6.875  0.00  0.00     0.162 HD
BRANCH  11  14
ATOM     14  C   UNL d   1      30.766 -17.459  -5.510  0.00  0.00     0.078 C 
ATOM     15  C   UNL d   1      30.395 -18.700  -4.685  0.00  0.00     0.014 C 
ATOM     16  C   UNL d   1      31.073 -19.973  -5.191  0.00  0.00     0.001 C 
ATOM     17  C   UNL d   1      30.785 -20.222  -6.665  0.00  0.00     0.000 C 
ATOM     18  C   UNL d   1      31.186 -19.013  -7.501  0.00  0.00     0.001 C 
ATOM     19  C   UNL d   1      30.496 -17.735  -7.007  0.00  0.00     0.014 C 
ENDBRANCH  11  14
ENDBRANCH   9  10
ENDBRANCH   6   9
ENDBRANCH   3   5
BRANCH   2  20
ATOM     20  C   UNL d   1      25.335 -14.787  -3.371  0.00  0.00     0.076 C 
ATOM     21  C   UNL d   1      26.188 -14.437  -2.387  0.00  0.00     0.018 C 
BRANCH  21  22
ATOM     22  C   UNL d   1      26.824 -15.467  -1.528  0.00  0.00    -0.025 A 
ATOM     23  C   UNL d   1      28.225 -15.439  -1.404  0.00  0.00     0.012 A 
ATOM     24  C   UNL d   1      28.909 -16.447  -0.733  0.00  0.00     0.002 A 
ATOM     25  C   UNL d   1      28.202 -17.485  -0.137  0.00  0.00     0.012 A 
ATOM     26  C   UNL d   1      26.802 -17.503  -0.159  0.00  0.00    -0.025 A 
ATOM     27  C   UNL d   1      26.110 -18.533   0.501  0.00  0.00     0.012 A 
ATOM     28  C   UNL d   1      26.087 -16.486  -0.852  0.00  0.00    -0.016 A 
ATOM     29  C   UNL d   1      24.719 -18.575   0.503  0.00  0.00     0.001 A 
ATOM     30  C   UNL d   1      24.001 -17.587  -0.159  0.00  0.00     0.001 A 
ATOM     31  C   UNL d   1      24.675 -16.562  -0.832  0.00  0.00     0.013 A 
ENDBRANCH  21  22
ENDBRANCH   2  20
TORSDOF 6
ENDMDL
MODEL 5
REMARK VINA RESULT:    -7.942      5.706      9.212
REMARK INTER + INTRA:         -11.899
REMARK INTER:                  -9.732
REMARK INTRA:                  -2.167
REMARK CONF_INDEPENDENT:        1.790
REMARK UNBOUND:                -2.167
REMARK  6 active torsions:
REMARK  status: ('A' for Active; 'I' for Inactive)
REMARK    1  A    between atoms: C_2  and  C_3 
REMARK       I    between atoms: C_2  and  N_15 
REMARK    2  A    between atoms: C_4  and  C_5 
REMARK    3  A    between atoms: N_15  and  N_16 
REMARK       I    between atoms: N_16  and  C_17 
REMARK    4  A    between atoms: C_17  and  C_19 
REMARK    5  A    between atoms: C_19  and  N_20 
REMARK       I    between atoms: N_20  and  C_21 
REMARK    6  A    between atoms: C_21  and  C_23 
ROOT
ATOM      1  O   UNL d   1      23.422 -13.700  -3.895  0.00  0.00    -0.267 OA
ATOM      2  C   UNL d   1      24.643 -13.843  -3.982  0.00  0.00     0.259 C 
ATOM      3  N   UNL d   1      25.348 -13.262  -5.020  0.00  0.00    -0.264 N 
ATOM      4  H   UNL d   1      24.802 -12.723  -5.694  0.00  0.00     0.190 HD
ENDROOT
BRANCH   3   5
ATOM      5  N   UNL d   1      26.746 -13.325  -5.258  0.00  0.00    -0.266 N 
ATOM      6  C   UNL d   1      27.324 -14.540  -5.628  0.00  0.00     0.253 C 
ATOM      7  O   UNL d   1      26.670 -15.575  -5.771  0.00  0.00    -0.270 OA
ATOM      8  H   UNL d   1      27.307 -12.491  -5.139  0.00  0.00     0.190 HD
BRANCH   6   9
ATOM      9  C   UNL d   1      28.857 -14.493  -5.855  0.00  0.00     0.227 C 
BRANCH   9  10
ATOM     10  N   UNL d   1      29.468 -15.817  -6.010  0.00  0.00    -0.352 N 
ATOM     11  C   UNL d   1      30.837 -15.992  -6.113  0.00  0.00     0.222 C 
ATOM     12  O   UNL d   1      31.611 -15.039  -6.045  0.00  0.00    -0.273 OA
ATOM     13  H   UNL d   1      28.838 -16.613  -6.048  0.00  0.00     0.162 HD
BRANCH  11  14
ATOM     14  C   UNL d   1      31.321 -17.450  -6.300  0.00  0.00     0.078 C 
ATOM     15  C   UNL d   1      30.552 -18.393  -5.363  0.00  0.00     0.014 C 
ATOM     16  C   UNL d   1      30.944 -19.859  -5.545  0.00  0.00     0.001 C 
ATOM     17  C   UNL d   1      30.782 -20.314  -6.989  0.00  0.00     0.000 C 
ATOM     18  C   UNL d   1      31.572 -19.411  -7.927  0.00  0.00     0.001 C 
ATOM     19  C   UNL d   1      31.172 -17.939  -7.759  0.00  0.00     0.014 C 
ENDBRANCH  11  14
ENDBRANCH   9  10
ENDBRANCH   6   9
ENDBRANCH   3   5
BRANCH   2  20
ATOM     20  C   UNL d   1      25.388 -14.645  -2.975  0.00  0.00     0.076 C 
ATOM     21  C   UNL d   1      25.025 -15.894  -2.618  0.00  0.00     0.018 C 
BRANCH  21  22
ATOM     22  C   UNL d   1      25.811 -16.660  -1.618  0.00  0.00    -0.025 A 
ATOM     23  C   UNL d   1      25.101 -17.324  -0.601  0.00  0.00     0.012 A 
ATOM     24  C   UNL d   1      25.764 -17.946   0.451  0.00  0.00     0.002 A 
ATOM     25  C   UNL d   1      27.154 -17.951   0.488  0.00  0.00     0.012 A 
ATOM     26  C   UNL d   1      27.899 -17.380  -0.552  0.00  0.00    -0.025 A 
ATOM     27  C   UNL d   1      29.303 -17.450  -0.520  0.00  0.00     0.012 A 
ATOM     28  C   UNL d   1      27.236 -16.729  -1.630  0.00  0.00    -0.016 A 
ATOM     29  C   UNL d   1      30.071 -16.899  -1.541  0.00  0.00     0.001 A 
ATOM     30  C   UNL d   1      29.444 -16.267  -2.607  0.00  0.00     0.001 A 
ATOM     31  C   UNL d   1      28.048 -16.177  -2.648  0.00  0.00     0.013 A 
ENDBRANCH  21  22
ENDBRANCH   2  20
TORSDOF 6
ENDMDL
MODEL 6
REMARK VINA RESULT:    -7.343      4.844      8.535
REMARK INTER + INTRA:         -11.795
REMARK INTER:                  -9.133
REMARK INTRA:                  -2.661
REMARK CONF_INDEPENDENT:        1.790
REMARK UNBOUND:                -2.661
REMARK  6 active torsions:
REMARK  status: ('A' for Active; 'I' for Inactive)
REMARK    1  A    between atoms: C_2  and  C_3 
REMARK       I    between atoms: C_2  and  N_15 
REMARK    2  A    between atoms: C_4  and  C_5 
REMARK    3  A    between atoms: N_15  and  N_16 
REMARK       I    between atoms: N_16  and  C_17 
REMARK    4  A    between atoms: C_17  and  C_19 
REMARK    5  A    between atoms: C_19  and  N_20 
REMARK       I    between atoms: N_20  and  C_21 
REMARK    6  A    between atoms: C_21  and  C_23 
ROOT
ATOM      1  O   UNL d   1      24.790 -12.612  -3.737  0.00  0.00    -0.267 OA
ATOM      2  C   UNL d   1      25.737 -13.400  -3.726  0.00  0.00     0.259 C 
ATOM      3  N   UNL d   1      26.882 -13.135  -4.455  0.00  0.00    -0.264 N 
ATOM      4  H   UNL d   1      26.887 -12.267  -4.992  0.00  0.00     0.190 HD
ENDROOT
BRANCH   3   5
ATOM      5  N   UNL d   1      28.054 -13.930  -4.544  0.00  0.00    -0.266 N 
ATOM      6  C   UNL d   1      28.008 -15.146  -5.227  0.00  0.00     0.253 C 
ATOM      7  O   UNL d   1      26.987 -15.567  -5.774  0.00  0.00    -0.270 OA
ATOM      8  H   UNL d   1      28.904 -13.612  -4.096  0.00  0.00     0.190 HD
BRANCH   6   9
ATOM      9  C   UNL d   1      29.344 -15.932  -5.254  0.00  0.00     0.227 C 
BRANCH   9  10
ATOM     10  N   UNL d   1      29.634 -16.636  -4.000  0.00  0.00    -0.352 N 
ATOM     11  C   UNL d   1      30.015 -15.970  -2.849  0.00  0.00     0.222 C 
ATOM     12  O   UNL d   1      30.096 -14.743  -2.817  0.00  0.00    -0.273 OA
ATOM     13  H   UNL d   1      29.551 -17.648  -4.011  0.00  0.00     0.162 HD
BRANCH  11  14
ATOM     14  C   UNL d   1      30.312 -16.859  -1.618  0.00  0.00     0.078 C 
ATOM     15  C   UNL d   1      30.822 -18.236  -2.065  0.00  0.00     0.014 C 
ATOM     16  C   UNL d   1      31.192 -19.141  -0.890  0.00  0.00     0.001 C 
ATOM     17  C   UNL d   1      32.208 -18.484   0.035  0.00  0.00     0.000 C 
ATOM     18  C   UNL d   1      31.697 -17.133   0.518  0.00  0.00     0.001 C 
ATOM     19  C   UNL d   1      31.339 -16.215  -0.657  0.00  0.00     0.014 C 
ENDBRANCH  11  14
ENDBRANCH   9  10
ENDBRANCH   6   9
ENDBRANCH   3   5
BRANCH   2  20
ATOM     20  C   UNL d   1      25.673 -14.655  -2.930  0.00  0.00     0.076 C 
ATOM     21  C   UNL d   1      26.263 -14.790  -1.725  0.00  0.00     0.018 C 
BRANCH  21  22
ATOM     22  C   UNL d   1      26.158 -16.059  -0.963  0.00  0.00    -0.025 A 
ATOM     23  C   UNL d   1      27.347 -16.618  -0.459  0.00  0.00     0.012 A 
ATOM     24  C   UNL d   1      27.355 -17.871   0.145  0.00  0.00     0.002 A 
ATOM     25  C   UNL d   1      26.166 -18.576   0.292  0.00  0.00     0.012 A 
ATOM     26  C   UNL d   1      24.947 -18.016  -0.114  0.00  0.00    -0.025 A 
ATOM     27  C   UNL d   1      23.752 -18.726   0.099  0.00  0.00     0.012 A 
ATOM     28  C   UNL d   1      24.923 -16.741  -0.744  0.00  0.00    -0.016 A 
ATOM     29  C   UNL d   1      22.525 -18.194  -0.287  0.00  0.00     0.001 A 
ATOM     30  C   UNL d   1      22.478 -16.947  -0.895  0.00  0.00     0.001 A 
ATOM     31  C   UNL d   1      23.660 -16.234  -1.127  0.00  0.00     0.013 A 
ENDBRANCH  21  22
ENDBRANCH   2  20
TORSDOF 6
ENDMDL
MODEL 7
REMARK VINA RESULT:    -6.899      4.092      8.076
REMARK INTER + INTRA:         -11.881
REMARK INTER:                  -8.689
REMARK INTRA:                  -3.192
REMARK CONF_INDEPENDENT:        1.790
REMARK UNBOUND:                -3.192
REMARK  6 active torsions:
REMARK  status: ('A' for Active; 'I' for Inactive)
REMARK    1  A    between atoms: C_2  and  C_3 
REMARK       I    between atoms: C_2  and  N_15 
REMARK    2  A    between atoms: C_4  and  C_5 
REMARK    3  A    between atoms: N_15  and  N_16 
REMARK       I    between atoms: N_16  and  C_17 
REMARK    4  A    between atoms: C_17  and  C_19 
REMARK    5  A    between atoms: C_19  and  N_20 
REMARK       I    between atoms: N_20  and  C_21 
REMARK    6  A    between atoms: C_21  and  C_23 
ROOT
ATOM      1  O   UNL d   1      27.432 -15.211  -6.394  0.00  0.00    -0.267 OA
ATOM      2  C   UNL d   1      27.351 -14.602  -5.326  0.00  0.00     0.259 C 
ATOM      3  N   UNL d   1      27.194 -13.228  -5.308  0.00  0.00    -0.264 N 
ATOM      4  H   UNL d   1      27.154 -12.765  -6.217  0.00  0.00     0.190 HD
ENDROOT
BRANCH   3   5
ATOM      5  N   UNL d   1      27.079 -12.385  -4.172  0.00  0.00    -0.266 N 
ATOM      6  C   UNL d   1      26.350 -11.199  -4.270  0.00  0.00     0.253 C 
ATOM      7  O   UNL d   1      25.785 -10.846  -5.307  0.00  0.00    -0.270 OA
ATOM      8  H   UNL d   1      27.541 -12.647  -3.311  0.00  0.00     0.190 HD
BRANCH   6   9
ATOM      9  C   UNL d   1      26.299 -10.354  -2.972  0.00  0.00     0.227 C 
BRANCH   9  10
ATOM     10  N   UNL d   1      27.054 -10.941  -1.860  0.00  0.00    -0.352 N 
ATOM     11  C   UNL d   1      26.789 -12.210  -1.374  0.00  0.00     0.222 C 
ATOM     12  O   UNL d   1      25.921 -12.920  -1.879  0.00  0.00    -0.273 OA
ATOM     13  H   UNL d   1      27.786 -10.370  -1.449  0.00  0.00     0.162 HD
BRANCH  11  14
ATOM     14  C   UNL d   1      27.656 -12.673  -0.180  0.00  0.00     0.078 C 
ATOM     15  C   UNL d   1      26.771 -13.264   0.926  0.00  0.00     0.014 C 
ATOM     16  C   UNL d   1      27.577 -13.797   2.110  0.00  0.00     0.001 C 
ATOM     17  C   UNL d   1      28.618 -14.820   1.674  0.00  0.00     0.000 C 
ATOM     18  C   UNL d   1      29.530 -14.232   0.604  0.00  0.00     0.001 C 
ATOM     19  C   UNL d   1      28.727 -13.710  -0.594  0.00  0.00     0.014 C 
ENDBRANCH  11  14
ENDBRANCH   9  10
ENDBRANCH   6   9
ENDBRANCH   3   5
BRANCH   2  20
ATOM     20  C   UNL d   1      27.422 -15.328  -4.029  0.00  0.00     0.076 C 
ATOM     21  C   UNL d   1      26.337 -15.576  -3.268  0.00  0.00     0.018 C 
BRANCH  21  22
ATOM     22  C   UNL d   1      26.457 -16.318  -1.988  0.00  0.00    -0.025 A 
ATOM     23  C   UNL d   1      27.751 -16.535  -1.479  0.00  0.00     0.012 A 
ATOM     24  C   UNL d   1      27.960 -17.337  -0.362  0.00  0.00     0.002 A 
ATOM     25  C   UNL d   1      26.875 -17.910   0.292  0.00  0.00     0.012 A 
ATOM     26  C   UNL d   1      25.565 -17.646  -0.128  0.00  0.00    -0.025 A 
ATOM     27  C   UNL d   1      24.484 -18.190   0.587  0.00  0.00     0.012 A 
ATOM     28  C   UNL d   1      25.334 -16.837  -1.276  0.00  0.00    -0.016 A 
ATOM     29  C   UNL d   1      23.171 -17.941   0.199  0.00  0.00     0.001 A 
ATOM     30  C   UNL d   1      22.922 -17.146  -0.913  0.00  0.00     0.001 A 
ATOM     31  C   UNL d   1      23.988 -16.608  -1.643  0.00  0.00     0.013 A 
ENDBRANCH  21  22
ENDBRANCH   2  20
TORSDOF 6
ENDMDL
MODEL 8
REMARK VINA RESULT:    -6.898      3.766      5.959
REMARK INTER + INTRA:         -12.019
REMARK INTER:                  -8.688
REMARK INTRA:                  -3.331
REMARK CONF_INDEPENDENT:        1.790
REMARK UNBOUND:                -3.331
REMARK  6 active torsions:
REMARK  status: ('A' for Active; 'I' for Inactive)
REMARK    1  A    between atoms: C_2  and  C_3 
REMARK       I    between atoms: C_2  and  N_15 
REMARK    2  A    between atoms: C_4  and  C_5 
REMARK    3  A    between atoms: N_15  and  N_16 
REMARK       I    between atoms: N_16  and  C_17 
REMARK    4  A    between atoms: C_17  and  C_19 
REMARK    5  A    between atoms: C_19  and  N_20 
REMARK       I    between atoms: N_20  and  C_21 
REMARK    6  A    between atoms: C_21  and  C_23 
ROOT
ATOM      1  O   UNL d   1      26.522  -9.360  -3.322  0.00  0.00    -0.267 OA
ATOM      2  C   UNL d   1      26.346 -10.579  -3.306  0.00  0.00     0.259 C 
ATOM      3  N   UNL d   1      25.618 -11.200  -4.305  0.00  0.00    -0.264 N 
ATOM      4  H   UNL d   1      25.243 -10.593  -5.036  0.00  0.00     0.190 HD
ENDROOT
BRANCH   3   5
ATOM      5  N   UNL d   1      25.332 -12.584  -4.435  0.00  0.00    -0.266 N 
ATOM      6  C   UNL d   1      26.334 -13.453  -4.869  0.00  0.00     0.253 C 
ATOM      7  O   UNL d   1      27.475 -13.075  -5.139  0.00  0.00    -0.270 OA
ATOM      8  H   UNL d   1      24.400 -12.919  -4.228  0.00  0.00     0.190 HD
BRANCH   6   9
ATOM      9  C   UNL d   1      25.907 -14.939  -4.981  0.00  0.00     0.227 C 
BRANCH   9  10
ATOM     10  N   UNL d   1      25.749 -15.603  -3.684  0.00  0.00    -0.352 N 
ATOM     11  C   UNL d   1      24.780 -15.224  -2.771  0.00  0.00     0.222 C 
ATOM     12  O   UNL d   1      23.980 -14.326  -3.024  0.00  0.00    -0.273 OA
ATOM     13  H   UNL d   1      26.393 -16.360  -3.473  0.00  0.00     0.162 HD
BRANCH  11  14
ATOM     14  C   UNL d   1      24.762 -16.007  -1.437  0.00  0.00     0.078 C 
ATOM     15  C   UNL d   1      23.413 -16.716  -1.251  0.00  0.00     0.014 C 
ATOM     16  C   UNL d   1      23.356 -17.558   0.023  0.00  0.00     0.001 C 
ATOM     17  C   UNL d   1      24.490 -18.573   0.084  0.00  0.00     0.000 C 
ATOM     18  C   UNL d   1      25.838 -17.878  -0.059  0.00  0.00     0.001 C 
ATOM     19  C   UNL d   1      25.907 -17.043  -1.344  0.00  0.00     0.014 C 
ENDBRANCH  11  14
ENDBRANCH   9  10
ENDBRANCH   6   9
ENDBRANCH   3   5
BRANCH   2  20
ATOM     20  C   UNL d   1      26.910 -11.415  -2.212  0.00  0.00     0.076 C 
ATOM     21  C   UNL d   1      26.384 -12.603  -1.851  0.00  0.00     0.018 C 
BRANCH  21  22
ATOM     22  C   UNL d   1      26.993 -13.407  -0.762  0.00  0.00    -0.025 A 
ATOM     23  C   UNL d   1      26.660 -13.069   0.563  0.00  0.00     0.012 A 
ATOM     24  C   UNL d   1      27.290 -13.679   1.643  0.00  0.00     0.002 A 
ATOM     25  C   UNL d   1      28.241 -14.668   1.420  0.00  0.00     0.012 A 
ATOM     26  C   UNL d   1      28.537 -15.097   0.120  0.00  0.00    -0.025 A 
ATOM     27  C   UNL d   1      29.460 -16.140  -0.074  0.00  0.00     0.012 A 
ATOM     28  C   UNL d   1      27.909 -14.475  -0.996  0.00  0.00    -0.016 A 
ATOM     29  C   UNL d   1      29.770 -16.593  -1.353  0.00  0.00     0.001 A 
ATOM     30  C   UNL d   1      29.162 -16.007  -2.456  0.00  0.00     0.001 A 
ATOM     31  C   UNL d   1      28.251 -14.959  -2.280  0.00  0.00     0.013 A 
ENDBRANCH  21  22
ENDBRANCH   2  20
TORSDOF 6
ENDMDL
MODEL 9
REMARK VINA RESULT:    -6.715      3.845      5.879
REMARK INTER + INTRA:         -11.714
REMARK INTER:                  -8.505
REMARK INTRA:                  -3.209
REMARK CONF_INDEPENDENT:        1.790
REMARK UNBOUND:                -3.209
REMARK  6 active torsions:
REMARK  status: ('A' for Active; 'I' for Inactive)
REMARK    1  A    between atoms: C_2  and  C_3 
REMARK       I    between atoms: C_2  and  N_15 
REMARK    2  A    between atoms: C_4  and  C_5 
REMARK    3  A    between atoms: N_15  and  N_16 
REMARK       I    between atoms: N_16  and  C_17 
REMARK    4  A    between atoms: C_17  and  C_19 
REMARK    5  A    between atoms: C_19  and  N_20 
REMARK       I    between atoms: N_20  and  C_21 
REMARK    6  A    between atoms: C_21  and  C_23 
ROOT
ATOM      1  O   UNL d   1      26.600  -9.322  -3.715  0.00  0.00    -0.267 OA
ATOM      2  C   UNL d   1      26.513 -10.551  -3.695  0.00  0.00     0.259 C 
ATOM      3  N   UNL d   1      25.550 -11.202  -4.444  0.00  0.00    -0.264 N 
ATOM      4  H   UNL d   1      24.929 -10.609  -4.998  0.00  0.00     0.190 HD
ENDROOT
BRANCH   3   5
ATOM      5  N   UNL d   1      25.323 -12.600  -4.535  0.00  0.00    -0.266 N 
ATOM      6  C   UNL d   1      26.365 -13.438  -4.935  0.00  0.00     0.253 C 
ATOM      7  O   UNL d   1      27.492 -13.021  -5.207  0.00  0.00    -0.270 OA
ATOM      8  H   UNL d   1      24.404 -12.968  -4.326  0.00  0.00     0.190 HD
BRANCH   6   9
ATOM      9  C   UNL d   1      26.001 -14.943  -5.007  0.00  0.00     0.227 C 
BRANCH   9  10
ATOM     10  N   UNL d   1      25.955 -15.599  -3.695  0.00  0.00    -0.352 N 
ATOM     11  C   UNL d   1      25.045 -15.235  -2.719  0.00  0.00     0.222 C 
ATOM     12  O   UNL d   1      24.205 -14.360  -2.920  0.00  0.00    -0.273 OA
ATOM     13  H   UNL d   1      26.632 -16.337  -3.526  0.00  0.00     0.162 HD
BRANCH  11  14
ATOM     14  C   UNL d   1      25.144 -16.005  -1.380  0.00  0.00     0.078 C 
ATOM     15  C   UNL d   1      24.458 -17.373  -1.499  0.00  0.00     0.014 C 
ATOM     16  C   UNL d   1      24.577 -18.208  -0.224  0.00  0.00     0.001 C 
ATOM     17  C   UNL d   1      26.027 -18.389   0.204  0.00  0.00     0.000 C 
ATOM     18  C   UNL d   1      26.709 -17.036   0.365  0.00  0.00     0.001 C 
ATOM     19  C   UNL d   1      26.607 -16.199  -0.917  0.00  0.00     0.014 C 
ENDBRANCH  11  14
ENDBRANCH   9  10
ENDBRANCH   6   9
ENDBRANCH   3   5
BRANCH   2  20
ATOM     20  C   UNL d   1      27.440 -11.365  -2.863  0.00  0.00     0.076 C 
ATOM     21  C   UNL d   1      27.018 -12.158  -1.857  0.00  0.00     0.018 C 
BRANCH  21  22
ATOM     22  C   UNL d   1      27.981 -12.963  -1.066  0.00  0.00    -0.025 A 
ATOM     23  C   UNL d   1      29.098 -13.492  -1.740  0.00  0.00     0.012 A 
ATOM     24  C   UNL d   1      29.972 -14.369  -1.107  0.00  0.00     0.002 A 
ATOM     25  C   UNL d   1      29.771 -14.705   0.227  0.00  0.00     0.012 A 
ATOM     26  C   UNL d   1      28.724 -14.130   0.960  0.00  0.00    -0.025 A 
ATOM     27  C   UNL d   1      28.578 -14.443   2.323  0.00  0.00     0.012 A 
ATOM     28  C   UNL d   1      27.814 -13.241   0.324  0.00  0.00    -0.016 A 
ATOM     29  C   UNL d   1      27.552 -13.883   3.079  0.00  0.00     0.001 A 
ATOM     30  C   UNL d   1      26.658 -13.005   2.481  0.00  0.00     0.001 A 
ATOM     31  C   UNL d   1      26.782 -12.694   1.122  0.00  0.00     0.013 A 
ENDBRANCH  21  22
ENDBRANCH   2  20
TORSDOF 6
ENDMDL
