MODEL 1
REMARK VINA RESULT:   -10.651      0.000      0.000
REMARK INTER + INTRA:         -16.995
REMARK INTER:                 -14.529
REMARK INTRA:                  -2.466
REMARK CONF_INDEPENDENT:        3.878
REMARK UNBOUND:                -2.466
REMARK  13 active torsions:
REMARK  status: ('A' for Active; 'I' for Inactive)
REMARK    1  A    between atoms: S_2  and  C_4 
REMARK    2  A    between atoms: S_2  and  N_21 
REMARK    3  A    between atoms: C_4  and  C_5 
REMARK    4  A    between atoms: C_5  and  C_6 
REMARK    5  A    between atoms: C_6  and  C_7 
REMARK    6  A    between atoms: C_7  and  C_8 
REMARK    7  A    between atoms: C_8  and  C_9 
REMARK    8  A    between atoms: C_9  and  S_10 
REMARK    9  A    between atoms: S_10  and  N_13 
REMARK   10  A    between atoms: N_13  and  C_14 
REMARK   11  A    between atoms: C_19  and  O_20 
REMARK   12  A    between atoms: N_21  and  C_22 
REMARK   13  A    between atoms: C_27  and  O_28 
ROOT
ATOM      1  C   UNL d   1      25.568 -17.754  -0.730  0.00  0.00     0.001 C 
ENDROOT
BRANCH   1   2
ATOM      2  C   UNL d   1      24.355 -17.580   0.194  0.00  0.00     0.017 C 
BRANCH   2   3
ATOM      3  C   UNL d   1      23.211 -16.969  -0.580  0.00  0.00     0.163 C 
BRANCH   3   4
ATOM      4  S   UNL d   1      21.830 -18.059  -0.879  0.00  0.00     0.231 S 
ATOM      5  O   UNL d   1      20.705 -17.221  -1.266  0.00  0.00    -0.206 OA
ATOM      6  O   UNL d   1      22.273 -19.132  -1.736  0.00  0.00    -0.206 OA
BRANCH   4   7
ATOM      7  N   UNL d   1      21.406 -18.685   0.626  0.00  0.00    -0.282 N 
ATOM      8  H   UNL d   1      21.801 -18.182   1.417  0.00  0.00     0.178 HD
BRANCH   7   9
ATOM      9  C   UNL d   1      20.251 -19.508   0.831  0.00  0.00     0.075 A 
ATOM     10  C   UNL d   1      19.895 -19.958   2.109  0.00  0.00     0.033 A 
ATOM     11  C   UNL d   1      18.789 -20.812   2.273  0.00  0.00     0.002 A 
ATOM     12  C   UNL d   1      18.010 -21.189   1.177  0.00  0.00     0.003 A 
ATOM     13  C   UNL d   1      18.364 -20.762  -0.092  0.00  0.00     0.039 A 
ATOM     14  C   UNL d   1      19.511 -19.993  -0.252  0.00  0.00     0.092 A 
BRANCH  14  15
ATOM     15  O   UNL d   1      19.991 -19.885  -1.525  0.00  0.00    -0.358 OA
ATOM     16  H   UNL d   1      20.053 -18.939  -1.737  0.00  0.00     0.217 HD
ENDBRANCH  14  15
ENDBRANCH   7   9
ENDBRANCH   4   7
ENDBRANCH   3   4
ENDBRANCH   2   3
ENDBRANCH   1   2
BRANCH   1  17
ATOM     17  C   UNL d   1      25.398 -16.879  -1.966  0.00  0.00     0.001 C 
BRANCH  17  18
ATOM     18  C   UNL d   1      25.911 -15.468  -1.726  0.00  0.00     0.017 C 
BRANCH  18  19
ATOM     19  C   UNL d   1      26.687 -14.926  -2.935  0.00  0.00     0.163 C 
BRANCH  19  20
ATOM     20  S   UNL d   1      25.518 -14.473  -4.219  0.00  0.00     0.231 S 
ATOM     21  O   UNL d   1      25.391 -15.615  -5.101  0.00  0.00    -0.206 OA
ATOM     22  O   UNL d   1      24.369 -13.950  -3.507  0.00  0.00    -0.206 OA
BRANCH  20  23
ATOM     23  N   UNL d   1      26.295 -13.230  -5.066  0.00  0.00    -0.282 N 
ATOM     24  H   UNL d   1      26.424 -13.319  -6.070  0.00  0.00     0.178 HD
BRANCH  23  25
ATOM     25  C   UNL d   1      26.219 -11.891  -4.522  0.00  0.00     0.075 A 
ATOM     26  C   UNL d   1      26.502 -11.650  -3.171  0.00  0.00     0.033 A 
ATOM     27  C   UNL d   1      26.437 -10.342  -2.655  0.00  0.00     0.002 A 
ATOM     28  C   UNL d   1      26.092  -9.272  -3.481  0.00  0.00     0.003 A 
ATOM     29  C   UNL d   1      25.780  -9.505  -4.818  0.00  0.00     0.039 A 
ATOM     30  C   UNL d   1      25.820 -10.807  -5.318  0.00  0.00     0.092 A 
BRANCH  30  31
ATOM     31  O   UNL d   1      25.355 -11.040  -6.578  0.00  0.00    -0.358 OA
ATOM     32  H   UNL d   1      24.515 -11.519  -6.548  0.00  0.00     0.217 HD
ENDBRANCH  30  31
ENDBRANCH  23  25
ENDBRANCH  20  23
ENDBRANCH  19  20
ENDBRANCH  18  19
ENDBRANCH  17  18
ENDBRANCH   1  17
TORSDOF 13
ENDMDL
MODEL 2
REMARK VINA RESULT:    -9.878      1.937      2.550
REMARK INTER + INTRA:         -16.457
REMARK INTER:                 -13.756
REMARK INTRA:                  -2.701
REMARK CONF_INDEPENDENT:        3.878
REMARK UNBOUND:                -2.701
REMARK  13 active torsions:
REMARK  status: ('A' for Active; 'I' for Inactive)
REMARK    1  A    between atoms: S_2  and  C_4 
REMARK    2  A    between atoms: S_2  and  N_21 
REMARK    3  A    between atoms: C_4  and  C_5 
REMARK    4  A    between atoms: C_5  and  C_6 
REMARK    5  A    between atoms: C_6  and  C_7 
REMARK    6  A    between atoms: C_7  and  C_8 
REMARK    7  A    between atoms: C_8  and  C_9 
REMARK    8  A    between atoms: C_9  and  S_10 
REMARK    9  A    between atoms: S_10  and  N_13 
REMARK   10  A    between atoms: N_13  and  C_14 
REMARK   11  A    between atoms: C_19  and  O_20 
REMARK   12  A    between atoms: N_21  and  C_22 
REMARK   13  A    between atoms: C_27  and  O_28 
ROOT
ATOM      1  C   UNL d   1      25.532 -17.809  -0.644  0.00  0.00     0.001 C 
ENDROOT
BRANCH   1   2
ATOM      2  C   UNL d   1      24.294 -17.545   0.223  0.00  0.00     0.017 C 
BRANCH   2   3
ATOM      3  C   UNL d   1      23.175 -17.010  -0.639  0.00  0.00     0.163 C 
BRANCH   3   4
ATOM      4  S   UNL d   1      21.876 -18.178  -1.005  0.00  0.00     0.231 S 
ATOM      5  O   UNL d   1      20.670 -17.404  -1.258  0.00  0.00    -0.206 OA
ATOM      6  O   UNL d   1      22.366 -19.111  -1.990  0.00  0.00    -0.206 OA
BRANCH   4   7
ATOM      7  N   UNL d   1      21.573 -18.994   0.436  0.00  0.00    -0.282 N 
ATOM      8  H   UNL d   1      22.147 -18.690   1.219  0.00  0.00     0.178 HD
BRANCH   7   9
ATOM      9  C   UNL d   1      20.345 -19.684   0.699  0.00  0.00     0.075 A 
ATOM     10  C   UNL d   1      19.990 -20.070   1.997  0.00  0.00     0.033 A 
ATOM     11  C   UNL d   1      18.805 -20.797   2.218  0.00  0.00     0.002 A 
ATOM     12  C   UNL d   1      17.951 -21.106   1.158  0.00  0.00     0.003 A 
ATOM     13  C   UNL d   1      18.302 -20.743  -0.131  0.00  0.00     0.039 A 
ATOM     14  C   UNL d   1      19.518 -20.105  -0.348  0.00  0.00     0.092 A 
BRANCH  14  15
ATOM     15  O   UNL d   1      19.959 -20.071  -1.638  0.00  0.00    -0.358 OA
ATOM     16  H   UNL d   1      20.158 -19.146  -1.857  0.00  0.00     0.217 HD
ENDBRANCH  14  15
ENDBRANCH   7   9
ENDBRANCH   4   7
ENDBRANCH   3   4
ENDBRANCH   2   3
ENDBRANCH   1   2
BRANCH   1  17
ATOM     17  C   UNL d   1      25.461 -16.961  -1.909  0.00  0.00     0.001 C 
BRANCH  17  18
ATOM     18  C   UNL d   1      25.948 -15.543  -1.657  0.00  0.00     0.017 C 
BRANCH  18  19
ATOM     19  C   UNL d   1      26.728 -14.984  -2.855  0.00  0.00     0.163 C 
BRANCH  19  20
ATOM     20  S   UNL d   1      25.584 -14.701  -4.210  0.00  0.00     0.231 S 
ATOM     21  O   UNL d   1      25.530 -15.925  -4.982  0.00  0.00    -0.206 OA
ATOM     22  O   UNL d   1      24.395 -14.160  -3.586  0.00  0.00    -0.206 OA
BRANCH  20  23
ATOM     23  N   UNL d   1      26.343 -13.513  -5.150  0.00  0.00    -0.282 N 
ATOM     24  H   UNL d   1      26.083 -12.540  -5.021  0.00  0.00     0.178 HD
BRANCH  23  25
ATOM     25  C   UNL d   1      27.677 -13.788  -5.637  0.00  0.00     0.075 A 
ATOM     26  C   UNL d   1      28.117 -15.106  -5.817  0.00  0.00     0.033 A 
ATOM     27  C   UNL d   1      29.413 -15.362  -6.303  0.00  0.00     0.002 A 
ATOM     28  C   UNL d   1      30.272 -14.307  -6.613  0.00  0.00     0.003 A 
ATOM     29  C   UNL d   1      29.855 -12.994  -6.411  0.00  0.00     0.039 A 
ATOM     30  C   UNL d   1      28.580 -12.748  -5.903  0.00  0.00     0.092 A 
BRANCH  30  31
ATOM     31  O   UNL d   1      28.248 -11.472  -5.557  0.00  0.00    -0.358 OA
ATOM     32  H   UNL d   1      28.558 -11.269  -4.663  0.00  0.00     0.217 HD
ENDBRANCH  30  31
ENDBRANCH  23  25
ENDBRANCH  20  23
ENDBRANCH  19  20
ENDBRANCH  18  19
ENDBRANCH  17  18
ENDBRANCH   1  17
TORSDOF 13
ENDMDL
MODEL 3
REMARK VINA RESULT:    -9.611      2.258      3.742
REMARK INTER + INTRA:         -16.815
REMARK INTER:                 -13.489
REMARK INTRA:                  -3.326
REMARK CONF_INDEPENDENT:        3.878
REMARK UNBOUND:                -3.326
REMARK  13 active torsions:
REMARK  status: ('A' for Active; 'I' for Inactive)
REMARK    1  A    between atoms: S_2  and  C_4 
REMARK    2  A    between atoms: S_2  and  N_21 
REMARK    3  A    between atoms: C_4  and  C_5 
REMARK    4  A    between atoms: C_5  and  C_6 
REMARK    5  A    between atoms: C_6  and  C_7 
REMARK    6  A    between atoms: C_7  and  C_8 
REMARK    7  A    between atoms: C_8  and  C_9 
REMARK    8  A    between atoms: C_9  and  S_10 
REMARK    9  A    between atoms: S_10  and  N_13 
REMARK   10  A    between atoms: N_13  and  C_14 
REMARK   11  A    between atoms: C_19  and  O_20 
REMARK   12  A    between atoms: N_21  and  C_22 
REMARK   13  A    between atoms: C_27  and  O_28 
ROOT
ATOM      1  C   UNL d   1      25.755 -16.836  -1.568  0.00  0.00     0.001 C 
ENDROOT
BRANCH   1   2
ATOM      2  C   UNL d   1      24.814 -17.792  -0.822  0.00  0.00     0.017 C 
BRANCH   2   3
ATOM      3  C   UNL d   1      23.460 -17.145  -0.656  0.00  0.00     0.163 C 
BRANCH   3   4
ATOM      4  S   UNL d   1      22.066 -18.206  -0.996  0.00  0.00     0.231 S 
ATOM      5  O   UNL d   1      20.920 -17.340  -1.224  0.00  0.00    -0.206 OA
ATOM      6  O   UNL d   1      22.461 -19.173  -1.991  0.00  0.00    -0.206 OA
BRANCH   4   7
ATOM      7  N   UNL d   1      21.729 -18.999   0.451  0.00  0.00    -0.282 N 
ATOM      8  H   UNL d   1      22.310 -18.710   1.234  0.00  0.00     0.178 HD
BRANCH   7   9
ATOM      9  C   UNL d   1      20.476 -19.644   0.713  0.00  0.00     0.075 A 
ATOM     10  C   UNL d   1      20.095 -19.990   2.016  0.00  0.00     0.033 A 
ATOM     11  C   UNL d   1      18.885 -20.673   2.238  0.00  0.00     0.002 A 
ATOM     12  C   UNL d   1      18.033 -20.979   1.175  0.00  0.00     0.003 A 
ATOM     13  C   UNL d   1      18.410 -20.656  -0.117  0.00  0.00     0.039 A 
ATOM     14  C   UNL d   1      19.648 -20.061  -0.333  0.00  0.00     0.092 A 
BRANCH  14  15
ATOM     15  O   UNL d   1      20.105 -20.071  -1.619  0.00  0.00    -0.358 OA
ATOM     16  H   UNL d   1      20.538 -19.217  -1.783  0.00  0.00     0.217 HD
ENDBRANCH  14  15
ENDBRANCH   7   9
ENDBRANCH   4   7
ENDBRANCH   3   4
ENDBRANCH   2   3
ENDBRANCH   1   2
BRANCH   1  17
ATOM     17  C   UNL d   1      24.985 -15.591  -1.993  0.00  0.00     0.001 C 
BRANCH  17  18
ATOM     18  C   UNL d   1      25.922 -14.429  -2.286  0.00  0.00     0.017 C 
BRANCH  18  19
ATOM     19  C   UNL d   1      25.589 -13.748  -3.620  0.00  0.00     0.163 C 
BRANCH  19  20
ATOM     20  S   UNL d   1      26.824 -14.219  -4.835  0.00  0.00     0.231 S 
ATOM     21  O   UNL d   1      26.459 -15.532  -5.325  0.00  0.00    -0.206 OA
ATOM     22  O   UNL d   1      26.912 -13.086  -5.734  0.00  0.00    -0.206 OA
BRANCH  20  23
ATOM     23  N   UNL d   1      28.253 -14.365  -3.937  0.00  0.00    -0.282 N 
ATOM     24  H   UNL d   1      28.307 -13.934  -3.019  0.00  0.00     0.178 HD
BRANCH  23  25
ATOM     25  C   UNL d   1      29.087 -15.522  -4.180  0.00  0.00     0.075 A 
ATOM     26  C   UNL d   1      29.767 -16.149  -3.127  0.00  0.00     0.033 A 
ATOM     27  C   UNL d   1      30.567 -17.280  -3.372  0.00  0.00     0.002 A 
ATOM     28  C   UNL d   1      30.690 -17.793  -4.664  0.00  0.00     0.003 A 
ATOM     29  C   UNL d   1      30.043 -17.160  -5.722  0.00  0.00     0.039 A 
ATOM     30  C   UNL d   1      29.273 -16.022  -5.477  0.00  0.00     0.092 A 
BRANCH  30  31
ATOM     31  O   UNL d   1      28.783 -15.322  -6.539  0.00  0.00    -0.358 OA
ATOM     32  H   UNL d   1      28.271 -14.559  -6.237  0.00  0.00     0.217 HD
ENDBRANCH  30  31
ENDBRANCH  23  25
ENDBRANCH  20  23
ENDBRANCH  19  20
ENDBRANCH  18  19
ENDBRANCH  17  18
ENDBRANCH   1  17
TORSDOF 13
ENDMDL
MODEL 4
REMARK VINA RESULT:    -9.296      1.267     10.142
REMARK INTER + INTRA:         -16.067
REMARK INTER:                 -13.174
REMARK INTRA:                  -2.893
REMARK CONF_INDEPENDENT:        3.878
REMARK UNBOUND:                -2.893
REMARK  13 active torsions:
REMARK  status: ('A' for Active; 'I' for Inactive)
REMARK    1  A    between atoms: S_2  and  C_4 
REMARK    2  A    between atoms: S_2  and  N_21 
REMARK    3  A    between atoms: C_4  and  C_5 
REMARK    4  A    between atoms: C_5  and  C_6 
REMARK    5  A    between atoms: C_6  and  C_7 
REMARK    6  A    between atoms: C_7  and  C_8 
REMARK    7  A    between atoms: C_8  and  C_9 
REMARK    8  A    between atoms: C_9  and  S_10 
REMARK    9  A    between atoms: S_10  and  N_13 
REMARK   10  A    between atoms: N_13  and  C_14 
REMARK   11  A    between atoms: C_19  and  O_20 
REMARK   12  A    between atoms: N_21  and  C_22 
REMARK   13  A    between atoms: C_27  and  O_28 
ROOT
ATOM      1  C   UNL d   1      26.799 -16.980  -0.656  0.00  0.00     0.001 C 
ENDROOT
BRANCH   1   2
ATOM      2  C   UNL d   1      27.387 -16.009  -1.687  0.00  0.00     0.017 C 
BRANCH   2   3
ATOM      3  C   UNL d   1      26.464 -15.914  -2.879  0.00  0.00     0.163 C 
BRANCH   3   4
ATOM      4  S   UNL d   1      25.905 -14.266  -3.275  0.00  0.00     0.231 S 
ATOM      5  O   UNL d   1      24.897 -14.400  -4.316  0.00  0.00    -0.206 OA
ATOM      6  O   UNL d   1      25.598 -13.580  -2.043  0.00  0.00    -0.206 OA
BRANCH   4   7
ATOM      7  N   UNL d   1      27.206 -13.508  -4.028  0.00  0.00    -0.282 N 
ATOM      8  H   UNL d   1      28.103 -13.962  -3.874  0.00  0.00     0.178 HD
BRANCH   7   9
ATOM      9  C   UNL d   1      27.054 -12.626  -5.148  0.00  0.00     0.075 A 
ATOM     10  C   UNL d   1      27.895 -12.716  -6.264  0.00  0.00     0.033 A 
ATOM     11  C   UNL d   1      27.760 -11.801  -7.324  0.00  0.00     0.002 A 
ATOM     12  C   UNL d   1      26.766 -10.821  -7.298  0.00  0.00     0.003 A 
ATOM     13  C   UNL d   1      25.941 -10.714  -6.191  0.00  0.00     0.039 A 
ATOM     14  C   UNL d   1      26.143 -11.566  -5.111  0.00  0.00     0.092 A 
BRANCH  14  15
ATOM     15  O   UNL d   1      25.541 -11.208  -3.940  0.00  0.00    -0.358 OA
ATOM     16  H   UNL d   1      25.918 -11.760  -3.235  0.00  0.00     0.217 HD
ENDBRANCH  14  15
ENDBRANCH   7   9
ENDBRANCH   4   7
ENDBRANCH   3   4
ENDBRANCH   2   3
ENDBRANCH   1   2
BRANCH   1  17
ATOM     17  C   UNL d   1      25.471 -17.526  -1.167  0.00  0.00     0.001 C 
BRANCH  17  18
ATOM     18  C   UNL d   1      24.419 -17.551  -0.069  0.00  0.00     0.017 C 
BRANCH  18  19
ATOM     19  C   UNL d   1      23.117 -16.865  -0.507  0.00  0.00     0.163 C 
BRANCH  19  20
ATOM     20  S   UNL d   1      21.916 -18.125  -0.946  0.00  0.00     0.231 S 
ATOM     21  O   UNL d   1      20.658 -17.449  -1.181  0.00  0.00    -0.206 OA
ATOM     22  O   UNL d   1      22.554 -18.898  -1.992  0.00  0.00    -0.206 OA
BRANCH  20  23
ATOM     23  N   UNL d   1      21.764 -19.058   0.460  0.00  0.00    -0.282 N 
ATOM     24  H   UNL d   1      22.343 -18.839   1.265  0.00  0.00     0.178 HD
BRANCH  23  25
ATOM     25  C   UNL d   1      20.492 -19.699   0.710  0.00  0.00     0.075 A 
ATOM     26  C   UNL d   1      20.061 -19.951   2.020  0.00  0.00     0.033 A 
ATOM     27  C   UNL d   1      18.816 -20.564   2.252  0.00  0.00     0.002 A 
ATOM     28  C   UNL d   1      17.996 -20.926   1.184  0.00  0.00     0.003 A 
ATOM     29  C   UNL d   1      18.427 -20.708  -0.122  0.00  0.00     0.039 A 
ATOM     30  C   UNL d   1      19.674 -20.125  -0.347  0.00  0.00     0.092 A 
BRANCH  30  31
ATOM     31  O   UNL d   1      20.150 -20.069  -1.623  0.00  0.00    -0.358 OA
ATOM     32  H   UNL d   1      20.136 -19.159  -1.953  0.00  0.00     0.217 HD
ENDBRANCH  30  31
ENDBRANCH  23  25
ENDBRANCH  20  23
ENDBRANCH  19  20
ENDBRANCH  18  19
ENDBRANCH  17  18
ENDBRANCH   1  17
TORSDOF 13
ENDMDL
