MODEL 1
REMARK VINA RESULT:   -10.317      0.000      0.000
REMARK INTER + INTRA:         -13.716
REMARK INTER:                 -12.703
REMARK INTRA:                  -1.012
REMARK CONF_INDEPENDENT:        2.386
REMARK UNBOUND:                -1.012
REMARK  8 active torsions:
REMARK  status: ('A' for Active; 'I' for Inactive)
REMARK    1  A    between atoms: O_2  and  C_3 
REMARK    2  A    between atoms: C_6  and  S_7 
REMARK    3  A    between atoms: S_7  and  N_10 
REMARK    4  A    between atoms: N_10  and  C_11 
REMARK    5  A    between atoms: C_14  and  N_15 
REMARK    6  A    between atoms: N_15  and  C_16 
REMARK    7  A    between atoms: C_21  and  N_22 
REMARK    8  A    between atoms: C_31  and  O_32 
ROOT
ATOM      1  C   UNL d   1      25.524 -17.536  -0.078  0.00  0.00     0.042 C 
ATOM      2  C   UNL d   1      25.425 -16.155  -0.280  0.00  0.00     0.032 C 
ATOM      3  C   UNL d   1      26.593 -15.342  -0.321  0.00  0.00     0.032 C 
ATOM      4  C   UNL d   1      27.866 -15.885  -0.074  0.00  0.00     0.033 C 
ATOM      5  C   UNL d   1      27.930 -17.277   0.034  0.00  0.00     0.032 C 
ATOM      6  C   UNL d   1      26.793 -18.084   0.004  0.00  0.00     0.032 C 
ENDROOT
BRANCH   1   7
ATOM      7  N   UNL d   1      24.371 -18.387  -0.047  0.00  0.00    -0.281 N 
ATOM      8  H   UNL d   1      24.314 -19.099   0.671  0.00  0.00     0.179 HD
BRANCH   7   9
ATOM      9  S   UNL d   1      23.047 -18.044  -1.062  0.00  0.00     0.263 S 
ATOM     10  O   UNL d   1      23.321 -18.643  -2.339  0.00  0.00    -0.200 OA
ATOM     11  O   UNL d   1      22.755 -16.616  -0.952  0.00  0.00    -0.200 OA
BRANCH   9  12
ATOM     12  C   UNL d   1      21.598 -18.834  -0.390  0.00  0.00     0.082 A 
ATOM     13  C   UNL d   1      20.603 -19.267  -1.271  0.00  0.00     0.028 A 
ATOM     14  C   UNL d   1      19.372 -19.735  -0.765  0.00  0.00     0.041 A 
ATOM     15  C   UNL d   1      19.128 -19.843   0.622  0.00  0.00     0.101 A 
ATOM     16  C   UNL d   1      20.178 -19.477   1.492  0.00  0.00     0.102 A 
ATOM     17  C   UNL d   1      21.382 -18.950   0.973  0.00  0.00     0.065 A 
BRANCH  15  18
ATOM     18  O   UNL d   1      17.965 -20.521   0.925  0.00  0.00    -0.353 OA
ATOM     19  C   UNL d   1      17.944 -21.950   0.980  0.00  0.00     0.210 C 
ENDBRANCH  15  18
BRANCH  16  20
ATOM     20  O   UNL d   1      20.316 -19.592   2.856  0.00  0.00    -0.353 OA
ATOM     21  C   UNL d   1      19.608 -20.640   3.452  0.00  0.00     0.210 C 
ENDBRANCH  16  20
ENDBRANCH   9  12
ENDBRANCH   7   9
ENDBRANCH   1   7
BRANCH   4  22
ATOM     22  N   UNL d   1      29.042 -15.076  -0.005  0.00  0.00    -0.340 N 
ATOM     23  H   UNL d   1      28.999 -14.257  -0.604  0.00  0.00     0.167 HD
BRANCH  22  24
ATOM     24  C   UNL d   1      29.868 -14.889   1.151  0.00  0.00     0.149 A 
ATOM     25  C   UNL d   1      31.197 -15.237   0.978  0.00  0.00     0.076 A 
ATOM     26  C   UNL d   1      32.082 -15.063   2.020  0.00  0.00     0.026 A 
ATOM     27  C   UNL d   1      33.521 -15.431   1.843  0.00  0.00     0.069 C 
ATOM     28  N   UNL d   1      31.634 -14.555   3.176  0.00  0.00    -0.194 N 
ATOM     29  C   UNL d   1      30.342 -14.232   3.363  0.00  0.00     0.704 A 
ATOM     30  H   UNL d   1      32.239 -14.439   3.980  0.00  0.00     0.184 HD
ATOM     31  N   UNL d   1      29.427 -14.387   2.344  0.00  0.00    -0.047 NA
BRANCH  29  32
ATOM     32  N   UNL d   1      30.044 -13.833   4.648  0.00  0.00    -0.216 N 
ATOM     33  C   UNL d   1      29.350 -14.681   5.618  0.00  0.00     0.141 C 
ATOM     34  C   UNL d   1      28.283 -13.779   6.232  0.00  0.00     0.022 C 
ATOM     35  C   UNL d   1      28.958 -12.418   6.262  0.00  0.00     0.022 C 
ATOM     36  C   UNL d   1      29.896 -12.421   5.039  0.00  0.00     0.141 C 
ENDBRANCH  29  32
ENDBRANCH  22  24
ENDBRANCH   4  22
TORSDOF 8
ENDMDL
MODEL 2
REMARK VINA RESULT:    -9.506      2.867      4.802
REMARK INTER + INTRA:         -13.218
REMARK INTER:                 -11.892
REMARK INTRA:                  -1.325
REMARK CONF_INDEPENDENT:        2.386
REMARK UNBOUND:                -1.325
REMARK  8 active torsions:
REMARK  status: ('A' for Active; 'I' for Inactive)
REMARK    1  A    between atoms: O_2  and  C_3 
REMARK    2  A    between atoms: C_6  and  S_7 
REMARK    3  A    between atoms: S_7  and  N_10 
REMARK    4  A    between atoms: N_10  and  C_11 
REMARK    5  A    between atoms: C_14  and  N_15 
REMARK    6  A    between atoms: N_15  and  C_16 
REMARK    7  A    between atoms: C_21  and  N_22 
REMARK    8  A    between atoms: C_31  and  O_32 
ROOT
ATOM      1  C   UNL d   1      26.830 -13.803  -0.313  0.00  0.00     0.042 C 
ATOM      2  C   UNL d   1      26.303 -13.101   0.776  0.00  0.00     0.032 C 
ATOM      3  C   UNL d   1      26.804 -13.320   2.091  0.00  0.00     0.032 C 
ATOM      4  C   UNL d   1      27.775 -14.305   2.345  0.00  0.00     0.033 C 
ATOM      5  C   UNL d   1      28.337 -14.917   1.221  0.00  0.00     0.032 C 
ATOM      6  C   UNL d   1      27.897 -14.653  -0.075  0.00  0.00     0.032 C 
ENDROOT
BRANCH   1   7
ATOM      7  N   UNL d   1      26.362 -13.596  -1.652  0.00  0.00    -0.281 N 
ATOM      8  H   UNL d   1      26.365 -12.653  -2.026  0.00  0.00     0.179 HD
BRANCH   7   9
ATOM      9  S   UNL d   1      26.027 -14.940  -2.642  0.00  0.00     0.263 S 
ATOM     10  O   UNL d   1      27.283 -15.563  -2.958  0.00  0.00    -0.200 OA
ATOM     11  O   UNL d   1      25.121 -14.503  -3.702  0.00  0.00    -0.200 OA
BRANCH   9  12
ATOM     12  C   UNL d   1      25.062 -16.109  -1.705  0.00  0.00     0.082 A 
ATOM     13  C   UNL d   1      23.677 -15.938  -1.645  0.00  0.00     0.028 A 
ATOM     14  C   UNL d   1      22.906 -16.737  -0.775  0.00  0.00     0.041 A 
ATOM     15  C   UNL d   1      23.486 -17.764   0.005  0.00  0.00     0.101 A 
ATOM     16  C   UNL d   1      24.876 -17.971  -0.133  0.00  0.00     0.102 A 
ATOM     17  C   UNL d   1      25.644 -17.122  -0.961  0.00  0.00     0.065 A 
BRANCH  15  18
ATOM     18  O   UNL d   1      22.558 -18.577   0.622  0.00  0.00    -0.353 OA
ATOM     19  C   UNL d   1      21.571 -19.272  -0.144  0.00  0.00     0.210 C 
ENDBRANCH  15  18
BRANCH  16  20
ATOM     20  O   UNL d   1      25.707 -18.950   0.361  0.00  0.00    -0.353 OA
ATOM     21  C   UNL d   1      27.030 -18.563   0.595  0.00  0.00     0.210 C 
ENDBRANCH  16  20
ENDBRANCH   9  12
ENDBRANCH   7   9
ENDBRANCH   1   7
BRANCH   4  22
ATOM     22  N   UNL d   1      28.218 -14.618   3.667  0.00  0.00    -0.340 N 
ATOM     23  H   UNL d   1      28.903 -15.367   3.691  0.00  0.00     0.167 HD
BRANCH  22  24
ATOM     24  C   UNL d   1      28.354 -13.692   4.751  0.00  0.00     0.149 A 
ATOM     25  C   UNL d   1      28.271 -12.358   4.389  0.00  0.00     0.076 A 
ATOM     26  C   UNL d   1      28.355 -11.387   5.364  0.00  0.00     0.026 A 
ATOM     27  C   UNL d   1      28.262  -9.942   4.985  0.00  0.00     0.069 C 
ATOM     28  N   UNL d   1      28.510 -11.758   6.641  0.00  0.00    -0.194 N 
ATOM     29  C   UNL d   1      28.613 -13.050   7.003  0.00  0.00     0.704 A 
ATOM     30  H   UNL d   1      28.610 -11.081   7.387  0.00  0.00     0.184 HD
ATOM     31  N   UNL d   1      28.529 -14.050   6.058  0.00  0.00    -0.047 NA
BRANCH  29  32
ATOM     32  N   UNL d   1      28.883 -13.238   8.341  0.00  0.00    -0.216 N 
ATOM     33  C   UNL d   1      29.501 -14.451   8.879  0.00  0.00     0.141 C 
ATOM     34  C   UNL d   1      28.653 -14.812  10.096  0.00  0.00     0.022 C 
ATOM     35  C   UNL d   1      28.251 -13.456  10.651  0.00  0.00     0.022 C 
ATOM     36  C   UNL d   1      28.155 -12.541   9.415  0.00  0.00     0.141 C 
ENDBRANCH  29  32
ENDBRANCH  22  24
ENDBRANCH   4  22
TORSDOF 8
ENDMDL
MODEL 3
REMARK VINA RESULT:    -9.156      5.822      9.782
REMARK INTER + INTRA:         -12.803
REMARK INTER:                 -11.542
REMARK INTRA:                  -1.261
REMARK CONF_INDEPENDENT:        2.386
REMARK UNBOUND:                -1.261
REMARK  8 active torsions:
REMARK  status: ('A' for Active; 'I' for Inactive)
REMARK    1  A    between atoms: O_2  and  C_3 
REMARK    2  A    between atoms: C_6  and  S_7 
REMARK    3  A    between atoms: S_7  and  N_10 
REMARK    4  A    between atoms: N_10  and  C_11 
REMARK    5  A    between atoms: C_14  and  N_15 
REMARK    6  A    between atoms: N_15  and  C_16 
REMARK    7  A    between atoms: C_21  and  N_22 
REMARK    8  A    between atoms: C_31  and  O_32 
ROOT
ATOM      1  C   UNL d   1      27.600 -14.116  -4.178  0.00  0.00     0.042 C 
ATOM      2  C   UNL d   1      26.341 -13.937  -4.763  0.00  0.00     0.032 C 
ATOM      3  C   UNL d   1      25.155 -14.221  -4.030  0.00  0.00     0.032 C 
ATOM      4  C   UNL d   1      25.212 -14.769  -2.736  0.00  0.00     0.033 C 
ATOM      5  C   UNL d   1      26.482 -14.847  -2.158  0.00  0.00     0.032 C 
ATOM      6  C   UNL d   1      27.643 -14.503  -2.850  0.00  0.00     0.032 C 
ENDROOT
BRANCH   1   7
ATOM      7  N   UNL d   1      28.815 -13.824  -4.881  0.00  0.00    -0.281 N 
ATOM      8  H   UNL d   1      29.447 -13.135  -4.490  0.00  0.00     0.179 HD
BRANCH   7   9
ATOM      9  S   UNL d   1      29.265 -14.784  -6.214  0.00  0.00     0.263 S 
ATOM     10  O   UNL d   1      30.303 -14.080  -6.916  0.00  0.00    -0.200 OA
ATOM     11  O   UNL d   1      28.045 -15.199  -6.901  0.00  0.00    -0.200 OA
BRANCH   9  12
ATOM     12  C   UNL d   1      29.958 -16.310  -5.607  0.00  0.00     0.082 A 
ATOM     13  C   UNL d   1      30.430 -17.245  -6.531  0.00  0.00     0.028 A 
ATOM     14  C   UNL d   1      30.822 -18.528  -6.095  0.00  0.00     0.041 A 
ATOM     15  C   UNL d   1      30.814 -18.887  -4.728  0.00  0.00     0.101 A 
ATOM     16  C   UNL d   1      30.411 -17.898  -3.805  0.00  0.00     0.102 A 
ATOM     17  C   UNL d   1      29.961 -16.638  -4.261  0.00  0.00     0.065 A 
BRANCH  15  18
ATOM     18  O   UNL d   1      31.432 -20.093  -4.473  0.00  0.00    -0.353 OA
ATOM     19  C   UNL d   1      31.326 -20.712  -3.187  0.00  0.00     0.210 C 
ENDBRANCH  15  18
BRANCH  16  20
ATOM     20  O   UNL d   1      30.422 -17.874  -2.429  0.00  0.00    -0.353 OA
ATOM     21  C   UNL d   1      30.055 -16.660  -1.840  0.00  0.00     0.210 C 
ENDBRANCH  16  20
ENDBRANCH   9  12
ENDBRANCH   7   9
ENDBRANCH   1   7
BRANCH   4  22
ATOM     22  N   UNL d   1      24.039 -15.162  -2.019  0.00  0.00    -0.340 N 
ATOM     23  H   UNL d   1      23.182 -14.810  -2.433  0.00  0.00     0.167 HD
BRANCH  22  24
ATOM     24  C   UNL d   1      23.861 -16.392  -1.307  0.00  0.00     0.149 A 
ATOM     25  C   UNL d   1      25.003 -16.880  -0.695  0.00  0.00     0.076 A 
ATOM     26  C   UNL d   1      24.930 -18.041   0.044  0.00  0.00     0.026 A 
ATOM     27  C   UNL d   1      26.157 -18.575   0.713  0.00  0.00     0.069 C 
ATOM     28  N   UNL d   1      23.752 -18.667   0.157  0.00  0.00    -0.194 N 
ATOM     29  C   UNL d   1      22.640 -18.215  -0.449  0.00  0.00     0.704 A 
ATOM     30  H   UNL d   1      23.656 -19.540   0.662  0.00  0.00     0.184 HD
ATOM     31  N   UNL d   1      22.671 -17.055  -1.193  0.00  0.00    -0.047 NA
BRANCH  29  32
ATOM     32  N   UNL d   1      21.550 -19.047  -0.316  0.00  0.00    -0.216 N 
ATOM     33  C   UNL d   1      20.609 -19.328  -1.401  0.00  0.00     0.141 C 
ATOM     34  C   UNL d   1      19.228 -19.180  -0.768  0.00  0.00     0.022 C 
ATOM     35  C   UNL d   1      19.442 -19.691   0.647  0.00  0.00     0.022 C 
ATOM     36  C   UNL d   1      20.902 -19.326   0.977  0.00  0.00     0.141 C 
ENDBRANCH  29  32
ENDBRANCH  22  24
ENDBRANCH   4  22
TORSDOF 8
ENDMDL
MODEL 4
REMARK VINA RESULT:    -9.152      1.278      3.169
REMARK INTER + INTRA:         -12.591
REMARK INTER:                 -11.538
REMARK INTRA:                  -1.053
REMARK CONF_INDEPENDENT:        2.386
REMARK UNBOUND:                -1.053
REMARK  8 active torsions:
REMARK  status: ('A' for Active; 'I' for Inactive)
REMARK    1  A    between atoms: O_2  and  C_3 
REMARK    2  A    between atoms: C_6  and  S_7 
REMARK    3  A    between atoms: S_7  and  N_10 
REMARK    4  A    between atoms: N_10  and  C_11 
REMARK    5  A    between atoms: C_14  and  N_15 
REMARK    6  A    between atoms: N_15  and  C_16 
REMARK    7  A    between atoms: C_21  and  N_22 
REMARK    8  A    between atoms: C_31  and  O_32 
ROOT
ATOM      1  C   UNL d   1      25.554 -17.490  -0.072  0.00  0.00     0.042 C 
ATOM      2  C   UNL d   1      25.495 -16.096  -0.185  0.00  0.00     0.032 C 
ATOM      3  C   UNL d   1      26.688 -15.328  -0.299  0.00  0.00     0.032 C 
ATOM      4  C   UNL d   1      27.955 -15.933  -0.215  0.00  0.00     0.033 C 
ATOM      5  C   UNL d   1      27.967 -17.330  -0.193  0.00  0.00     0.032 C 
ATOM      6  C   UNL d   1      26.799 -18.090  -0.151  0.00  0.00     0.032 C 
ENDROOT
BRANCH   1   7
ATOM      7  N   UNL d   1      24.373 -18.296   0.029  0.00  0.00    -0.281 N 
ATOM      8  H   UNL d   1      24.283 -18.928   0.816  0.00  0.00     0.179 HD
BRANCH   7   9
ATOM      9  S   UNL d   1      23.074 -18.020  -1.037  0.00  0.00     0.263 S 
ATOM     10  O   UNL d   1      23.398 -18.661  -2.282  0.00  0.00    -0.200 OA
ATOM     11  O   UNL d   1      22.750 -16.596  -0.991  0.00  0.00    -0.200 OA
BRANCH   9  12
ATOM     12  C   UNL d   1      21.620 -18.815  -0.380  0.00  0.00     0.082 A 
ATOM     13  C   UNL d   1      20.626 -19.232  -1.267  0.00  0.00     0.028 A 
ATOM     14  C   UNL d   1      19.393 -19.704  -0.771  0.00  0.00     0.041 A 
ATOM     15  C   UNL d   1      19.146 -19.830   0.615  0.00  0.00     0.101 A 
ATOM     16  C   UNL d   1      20.195 -19.479   1.492  0.00  0.00     0.102 A 
ATOM     17  C   UNL d   1      21.402 -18.949   0.982  0.00  0.00     0.065 A 
BRANCH  15  18
ATOM     18  O   UNL d   1      17.980 -20.509   0.906  0.00  0.00    -0.353 OA
ATOM     19  C   UNL d   1      17.962 -21.937   0.973  0.00  0.00     0.210 C 
ENDBRANCH  15  18
BRANCH  16  20
ATOM     20  O   UNL d   1      20.330 -19.613   2.854  0.00  0.00    -0.353 OA
ATOM     21  C   UNL d   1      19.678 -20.711   3.424  0.00  0.00     0.210 C 
ENDBRANCH  16  20
ENDBRANCH   9  12
ENDBRANCH   7   9
ENDBRANCH   1   7
BRANCH   4  22
ATOM     22  N   UNL d   1      29.166 -15.175  -0.220  0.00  0.00    -0.340 N 
ATOM     23  H   UNL d   1      29.076 -14.282  -0.695  0.00  0.00     0.167 HD
BRANCH  22  24
ATOM     24  C   UNL d   1      30.160 -15.170   0.811  0.00  0.00     0.149 A 
ATOM     25  C   UNL d   1      30.031 -14.151   1.739  0.00  0.00     0.076 A 
ATOM     26  C   UNL d   1      30.918 -14.078   2.791  0.00  0.00     0.026 A 
ATOM     27  C   UNL d   1      30.784 -12.984   3.803  0.00  0.00     0.069 C 
ATOM     28  N   UNL d   1      31.884 -15.001   2.893  0.00  0.00    -0.194 N 
ATOM     29  C   UNL d   1      32.033 -15.983   1.987  0.00  0.00     0.704 A 
ATOM     30  H   UNL d   1      32.578 -14.970   3.629  0.00  0.00     0.184 HD
ATOM     31  N   UNL d   1      31.163 -16.093   0.923  0.00  0.00    -0.047 NA
BRANCH  29  32
ATOM     32  N   UNL d   1      33.146 -16.769   2.190  0.00  0.00    -0.216 N 
ATOM     33  C   UNL d   1      34.355 -16.688   1.368  0.00  0.00     0.141 C 
ATOM     34  C   UNL d   1      34.706 -18.139   1.048  0.00  0.00     0.022 C 
ATOM     35  C   UNL d   1      34.295 -18.880   2.309  0.00  0.00     0.022 C 
ATOM     36  C   UNL d   1      33.095 -18.082   2.856  0.00  0.00     0.141 C 
ENDBRANCH  29  32
ENDBRANCH  22  24
ENDBRANCH   4  22
TORSDOF 8
ENDMDL
MODEL 5
REMARK VINA RESULT:    -8.847      8.580     11.457
REMARK INTER + INTRA:         -12.426
REMARK INTER:                 -11.233
REMARK INTRA:                  -1.192
REMARK CONF_INDEPENDENT:        2.386
REMARK UNBOUND:                -1.192
REMARK  8 active torsions:
REMARK  status: ('A' for Active; 'I' for Inactive)
REMARK    1  A    between atoms: O_2  and  C_3 
REMARK    2  A    between atoms: C_6  and  S_7 
REMARK    3  A    between atoms: S_7  and  N_10 
REMARK    4  A    between atoms: N_10  and  C_11 
REMARK    5  A    between atoms: C_14  and  N_15 
REMARK    6  A    between atoms: N_15  and  C_16 
REMARK    7  A    between atoms: C_21  and  N_22 
REMARK    8  A    between atoms: C_31  and  O_32 
ROOT
ATOM      1  C   UNL d   1      26.456 -11.928  -4.492  0.00  0.00     0.042 C 
ATOM      2  C   UNL d   1      26.147 -11.264  -5.685  0.00  0.00     0.032 C 
ATOM      3  C   UNL d   1      25.523  -9.985  -5.662  0.00  0.00     0.032 C 
ATOM      4  C   UNL d   1      25.122  -9.392  -4.451  0.00  0.00     0.033 C 
ATOM      5  C   UNL d   1      25.530 -10.044  -3.284  0.00  0.00     0.032 C 
ATOM      6  C   UNL d   1      26.204 -11.265  -3.303  0.00  0.00     0.032 C 
ENDROOT
BRANCH   1   7
ATOM      7  N   UNL d   1      27.099 -13.209  -4.477  0.00  0.00    -0.281 N 
ATOM      8  H   UNL d   1      28.088 -13.252  -4.260  0.00  0.00     0.179 HD
BRANCH   7   9
ATOM      9  S   UNL d   1      26.158 -14.622  -4.604  0.00  0.00     0.263 S 
ATOM     10  O   UNL d   1      26.727 -15.423  -5.653  0.00  0.00    -0.200 OA
ATOM     11  O   UNL d   1      24.753 -14.224  -4.645  0.00  0.00    -0.200 OA
BRANCH   9  12
ATOM     12  C   UNL d   1      26.302 -15.540  -3.083  0.00  0.00     0.082 A 
ATOM     13  C   UNL d   1      25.160 -16.150  -2.558  0.00  0.00     0.028 A 
ATOM     14  C   UNL d   1      25.201 -16.733  -1.274  0.00  0.00     0.041 A 
ATOM     15  C   UNL d   1      26.391 -16.777  -0.513  0.00  0.00     0.101 A 
ATOM     16  C   UNL d   1      27.552 -16.226  -1.098  0.00  0.00     0.102 A 
ATOM     17  C   UNL d   1      27.482 -15.590  -2.358  0.00  0.00     0.065 A 
BRANCH  15  18
ATOM     18  O   UNL d   1      26.296 -17.572   0.611  0.00  0.00    -0.353 OA
ATOM     19  C   UNL d   1      27.030 -18.796   0.706  0.00  0.00     0.210 C 
ENDBRANCH  15  18
BRANCH  16  20
ATOM     20  O   UNL d   1      28.868 -16.232  -0.696  0.00  0.00    -0.353 OA
ATOM     21  C   UNL d   1      29.610 -17.358  -1.064  0.00  0.00     0.210 C 
ENDBRANCH  16  20
ENDBRANCH   9  12
ENDBRANCH   7   9
ENDBRANCH   1   7
BRANCH   4  22
ATOM     22  N   UNL d   1      24.401  -8.160  -4.406  0.00  0.00    -0.340 N 
ATOM     23  H   UNL d   1      24.664  -7.571  -3.622  0.00  0.00     0.167 HD
BRANCH  22  24
ATOM     24  C   UNL d   1      23.931  -7.418  -5.538  0.00  0.00     0.149 A 
ATOM     25  C   UNL d   1      24.925  -6.826  -6.299  0.00  0.00     0.076 A 
ATOM     26  C   UNL d   1      24.579  -6.118  -7.429  0.00  0.00     0.026 A 
ATOM     27  C   UNL d   1      25.646  -5.479  -8.262  0.00  0.00     0.069 C 
ATOM     28  N   UNL d   1      23.287  -6.023  -7.768  0.00  0.00    -0.194 N 
ATOM     29  C   UNL d   1      22.310  -6.575  -7.026  0.00  0.00     0.704 A 
ATOM     30  H   UNL d   1      22.982  -5.486  -8.570  0.00  0.00     0.184 HD
ATOM     31  N   UNL d   1      22.615  -7.295  -5.891  0.00  0.00    -0.047 NA
BRANCH  29  32
ATOM     32  N   UNL d   1      21.038  -6.278  -7.463  0.00  0.00    -0.216 N 
ATOM     33  C   UNL d   1      19.880  -6.172  -6.573  0.00  0.00     0.141 C 
ATOM     34  C   UNL d   1      18.781  -6.970  -7.268  0.00  0.00     0.022 C 
ATOM     35  C   UNL d   1      19.048  -6.714  -8.741  0.00  0.00     0.022 C 
ATOM     36  C   UNL d   1      20.576  -6.541  -8.836  0.00  0.00     0.141 C 
ENDBRANCH  29  32
ENDBRANCH  22  24
ENDBRANCH   4  22
TORSDOF 8
ENDMDL
MODEL 6
REMARK VINA RESULT:    -8.825      6.391     10.240
REMARK INTER + INTRA:         -12.485
REMARK INTER:                 -11.211
REMARK INTRA:                  -1.274
REMARK CONF_INDEPENDENT:        2.386
REMARK UNBOUND:                -1.274
REMARK  8 active torsions:
REMARK  status: ('A' for Active; 'I' for Inactive)
REMARK    1  A    between atoms: O_2  and  C_3 
REMARK    2  A    between atoms: C_6  and  S_7 
REMARK    3  A    between atoms: S_7  and  N_10 
REMARK    4  A    between atoms: N_10  and  C_11 
REMARK    5  A    between atoms: C_14  and  N_15 
REMARK    6  A    between atoms: N_15  and  C_16 
REMARK    7  A    between atoms: C_21  and  N_22 
REMARK    8  A    between atoms: C_31  and  O_32 
ROOT
ATOM      1  C   UNL d   1      26.862 -14.281  -5.145  0.00  0.00     0.042 C 
ATOM      2  C   UNL d   1      26.323 -13.233  -4.389  0.00  0.00     0.032 C 
ATOM      3  C   UNL d   1      25.434 -13.500  -3.310  0.00  0.00     0.032 C 
ATOM      4  C   UNL d   1      25.004 -14.809  -3.028  0.00  0.00     0.033 C 
ATOM      5  C   UNL d   1      25.634 -15.831  -3.746  0.00  0.00     0.032 C 
ATOM      6  C   UNL d   1      26.559 -15.575  -4.758  0.00  0.00     0.032 C 
ENDROOT
BRANCH   1   7
ATOM      7  N   UNL d   1      27.772 -14.050  -6.228  0.00  0.00    -0.281 N 
ATOM      8  H   UNL d   1      27.399 -13.733  -7.115  0.00  0.00     0.179 HD
BRANCH   7   9
ATOM      9  S   UNL d   1      29.450 -14.099  -5.939  0.00  0.00     0.263 S 
ATOM     10  O   UNL d   1      29.697 -13.366  -4.728  0.00  0.00    -0.200 OA
ATOM     11  O   UNL d   1      30.131 -13.744  -7.182  0.00  0.00    -0.200 OA
BRANCH   9  12
ATOM     12  C   UNL d   1      29.927 -15.793  -5.655  0.00  0.00     0.082 A 
ATOM     13  C   UNL d   1      30.027 -16.249  -4.338  0.00  0.00     0.028 A 
ATOM     14  C   UNL d   1      30.568 -17.525  -4.074  0.00  0.00     0.041 A 
ATOM     15  C   UNL d   1      30.959 -18.398  -5.114  0.00  0.00     0.101 A 
ATOM     16  C   UNL d   1      30.772 -17.948  -6.439  0.00  0.00     0.102 A 
ATOM     17  C   UNL d   1      30.289 -16.644  -6.687  0.00  0.00     0.065 A 
BRANCH  15  18
ATOM     18  O   UNL d   1      31.255 -19.674  -4.678  0.00  0.00    -0.353 OA
ATOM     19  C   UNL d   1      30.404 -20.775  -5.008  0.00  0.00     0.210 C 
ENDBRANCH  15  18
BRANCH  16  20
ATOM     20  O   UNL d   1      30.913 -18.587  -7.649  0.00  0.00    -0.353 OA
ATOM     21  C   UNL d   1      31.759 -19.701  -7.653  0.00  0.00     0.210 C 
ENDBRANCH  16  20
ENDBRANCH   9  12
ENDBRANCH   7   9
ENDBRANCH   1   7
BRANCH   4  22
ATOM     22  N   UNL d   1      24.033 -15.094  -2.020  0.00  0.00    -0.340 N 
ATOM     23  H   UNL d   1      23.160 -14.594  -2.154  0.00  0.00     0.167 HD
BRANCH  22  24
ATOM     24  C   UNL d   1      23.870 -16.344  -1.337  0.00  0.00     0.149 A 
ATOM     25  C   UNL d   1      25.022 -16.840  -0.751  0.00  0.00     0.076 A 
ATOM     26  C   UNL d   1      24.964 -18.020  -0.041  0.00  0.00     0.026 A 
ATOM     27  C   UNL d   1      26.202 -18.563   0.601  0.00  0.00     0.069 C 
ATOM     28  N   UNL d   1      23.791 -18.656   0.069  0.00  0.00    -0.194 N 
ATOM     29  C   UNL d   1      22.670 -18.195  -0.513  0.00  0.00     0.704 A 
ATOM     30  H   UNL d   1      23.706 -19.542   0.553  0.00  0.00     0.184 HD
ATOM     31  N   UNL d   1      22.685 -17.017  -1.227  0.00  0.00    -0.047 NA
BRANCH  29  32
ATOM     32  N   UNL d   1      21.586 -19.038  -0.389  0.00  0.00    -0.216 N 
ATOM     33  C   UNL d   1      20.655 -19.325  -1.481  0.00  0.00     0.141 C 
ATOM     34  C   UNL d   1      19.269 -19.191  -0.857  0.00  0.00     0.022 C 
ATOM     35  C   UNL d   1      19.478 -19.703   0.559  0.00  0.00     0.022 C 
ATOM     36  C   UNL d   1      20.932 -19.325   0.899  0.00  0.00     0.141 C 
ENDBRANCH  29  32
ENDBRANCH  22  24
ENDBRANCH   4  22
TORSDOF 8
ENDMDL
MODEL 7
REMARK VINA RESULT:    -8.594      5.705     10.420
REMARK INTER + INTRA:         -12.274
REMARK INTER:                 -10.980
REMARK INTRA:                  -1.294
REMARK CONF_INDEPENDENT:        2.386
REMARK UNBOUND:                -1.294
REMARK  8 active torsions:
REMARK  status: ('A' for Active; 'I' for Inactive)
REMARK    1  A    between atoms: O_2  and  C_3 
REMARK    2  A    between atoms: C_6  and  S_7 
REMARK    3  A    between atoms: S_7  and  N_10 
REMARK    4  A    between atoms: N_10  and  C_11 
REMARK    5  A    between atoms: C_14  and  N_15 
REMARK    6  A    between atoms: N_15  and  C_16 
REMARK    7  A    between atoms: C_21  and  N_22 
REMARK    8  A    between atoms: C_31  and  O_32 
ROOT
ATOM      1  C   UNL d   1      27.892 -12.285   4.455  0.00  0.00     0.042 C 
ATOM      2  C   UNL d   1      28.060 -11.839   3.139  0.00  0.00     0.032 C 
ATOM      3  C   UNL d   1      28.149 -12.769   2.065  0.00  0.00     0.032 C 
ATOM      4  C   UNL d   1      28.159 -14.156   2.301  0.00  0.00     0.033 C 
ATOM      5  C   UNL d   1      27.899 -14.556   3.615  0.00  0.00     0.032 C 
ATOM      6  C   UNL d   1      27.742 -13.646   4.659  0.00  0.00     0.032 C 
ENDROOT
BRANCH   1   7
ATOM      7  N   UNL d   1      27.781 -11.376   5.559  0.00  0.00    -0.281 N 
ATOM      8  H   UNL d   1      26.857 -11.083   5.854  0.00  0.00     0.179 HD
BRANCH   7   9
ATOM      9  S   UNL d   1      29.166 -10.991   6.471  0.00  0.00     0.263 S 
ATOM     10  O   UNL d   1      28.898  -9.757   7.155  0.00  0.00    -0.200 OA
ATOM     11  O   UNL d   1      30.331 -11.126   5.599  0.00  0.00    -0.200 OA
BRANCH   9  12
ATOM     12  C   UNL d   1      29.403 -12.256   7.705  0.00  0.00     0.082 A 
ATOM     13  C   UNL d   1      30.512 -13.098   7.596  0.00  0.00     0.028 A 
ATOM     14  C   UNL d   1      30.634 -14.214   8.451  0.00  0.00     0.041 A 
ATOM     15  C   UNL d   1      29.692 -14.479   9.471  0.00  0.00     0.101 A 
ATOM     16  C   UNL d   1      28.624 -13.567   9.615  0.00  0.00     0.102 A 
ATOM     17  C   UNL d   1      28.480 -12.490   8.711  0.00  0.00     0.065 A 
BRANCH  15  18
ATOM     18  O   UNL d   1      30.089 -15.475  10.340  0.00  0.00    -0.353 OA
ATOM     19  C   UNL d   1      31.438 -15.948  10.343  0.00  0.00     0.210 C 
ENDBRANCH  15  18
BRANCH  16  20
ATOM     20  O   UNL d   1      27.639 -13.457  10.569  0.00  0.00    -0.353 OA
ATOM     21  C   UNL d   1      28.080 -13.179  11.867  0.00  0.00     0.210 C 
ENDBRANCH  16  20
ENDBRANCH   9  12
ENDBRANCH   7   9
ENDBRANCH   1   7
BRANCH   4  22
ATOM     22  N   UNL d   1      28.354 -15.108   1.254  0.00  0.00    -0.340 N 
ATOM     23  H   UNL d   1      29.009 -15.844   1.500  0.00  0.00     0.167 HD
BRANCH  22  24
ATOM     24  C   UNL d   1      27.369 -15.523   0.300  0.00  0.00     0.149 A 
ATOM     25  C   UNL d   1      27.620 -15.131  -1.004  0.00  0.00     0.076 A 
ATOM     26  C   UNL d   1      26.749 -15.509  -2.003  0.00  0.00     0.026 A 
ATOM     27  C   UNL d   1      27.015 -15.096  -3.416  0.00  0.00     0.069 C 
ATOM     28  N   UNL d   1      25.681 -16.253  -1.688  0.00  0.00    -0.194 N 
ATOM     29  C   UNL d   1      25.414 -16.622  -0.423  0.00  0.00     0.704 A 
ATOM     30  H   UNL d   1      24.996 -16.527  -2.382  0.00  0.00     0.184 HD
ATOM     31  N   UNL d   1      26.263 -16.268   0.604  0.00  0.00    -0.047 NA
BRANCH  29  32
ATOM     32  N   UNL d   1      24.215 -17.285  -0.273  0.00  0.00    -0.216 N 
ATOM     33  C   UNL d   1      24.076 -18.738  -0.373  0.00  0.00     0.141 C 
ATOM     34  C   UNL d   1      22.858 -18.952  -1.269  0.00  0.00     0.022 C 
ATOM     35  C   UNL d   1      21.948 -17.794  -0.896  0.00  0.00     0.022 C 
ATOM     36  C   UNL d   1      22.909 -16.650  -0.516  0.00  0.00     0.141 C 
ENDBRANCH  29  32
ENDBRANCH  22  24
ENDBRANCH   4  22
TORSDOF 8
ENDMDL
MODEL 8
REMARK VINA RESULT:    -8.445      3.220      4.975
REMARK INTER + INTRA:         -12.310
REMARK INTER:                 -10.831
REMARK INTRA:                  -1.479
REMARK CONF_INDEPENDENT:        2.386
REMARK UNBOUND:                -1.479
REMARK  8 active torsions:
REMARK  status: ('A' for Active; 'I' for Inactive)
REMARK    1  A    between atoms: O_2  and  C_3 
REMARK    2  A    between atoms: C_6  and  S_7 
REMARK    3  A    between atoms: S_7  and  N_10 
REMARK    4  A    between atoms: N_10  and  C_11 
REMARK    5  A    between atoms: C_14  and  N_15 
REMARK    6  A    between atoms: N_15  and  C_16 
REMARK    7  A    between atoms: C_21  and  N_22 
REMARK    8  A    between atoms: C_31  and  O_32 
ROOT
ATOM      1  C   UNL d   1      27.610 -13.097  -3.029  0.00  0.00     0.042 C 
ATOM      2  C   UNL d   1      28.936 -13.451  -2.759  0.00  0.00     0.032 C 
ATOM      3  C   UNL d   1      29.512 -13.187  -1.485  0.00  0.00     0.032 C 
ATOM      4  C   UNL d   1      28.799 -12.489  -0.494  0.00  0.00     0.033 C 
ATOM      5  C   UNL d   1      27.453 -12.235  -0.771  0.00  0.00     0.032 C 
ATOM      6  C   UNL d   1      26.866 -12.555  -1.995  0.00  0.00     0.032 C 
ENDROOT
BRANCH   1   7
ATOM      7  N   UNL d   1      26.992 -13.363  -4.295  0.00  0.00    -0.281 N 
ATOM      8  H   UNL d   1      27.307 -12.843  -5.107  0.00  0.00     0.179 HD
BRANCH   7   9
ATOM      9  S   UNL d   1      25.918 -14.675  -4.447  0.00  0.00     0.263 S 
ATOM     10  O   UNL d   1      26.476 -15.575  -5.418  0.00  0.00    -0.200 OA
ATOM     11  O   UNL d   1      24.570 -14.136  -4.613  0.00  0.00    -0.200 OA
BRANCH   9  12
ATOM     12  C   UNL d   1      25.849 -15.535  -2.887  0.00  0.00     0.082 A 
ATOM     13  C   UNL d   1      27.032 -16.061  -2.360  0.00  0.00     0.028 A 
ATOM     14  C   UNL d   1      26.985 -16.893  -1.222  0.00  0.00     0.041 A 
ATOM     15  C   UNL d   1      25.774 -17.168  -0.547  0.00  0.00     0.101 A 
ATOM     16  C   UNL d   1      24.603 -16.560  -1.051  0.00  0.00     0.102 A 
ATOM     17  C   UNL d   1      24.656 -15.780  -2.228  0.00  0.00     0.065 A 
BRANCH  15  18
ATOM     18  O   UNL d   1      25.951 -17.813   0.659  0.00  0.00    -0.353 OA
ATOM     19  C   UNL d   1      27.030 -18.733   0.846  0.00  0.00     0.210 C 
ENDBRANCH  15  18
BRANCH  16  20
ATOM     20  O   UNL d   1      23.319 -16.508  -0.561  0.00  0.00    -0.353 OA
ATOM     21  C   UNL d   1      22.740 -17.741  -0.244  0.00  0.00     0.210 C 
ENDBRANCH  16  20
ENDBRANCH   9  12
ENDBRANCH   7   9
ENDBRANCH   1   7
BRANCH   4  22
ATOM     22  N   UNL d   1      29.388 -12.118   0.753  0.00  0.00    -0.340 N 
ATOM     23  H   UNL d   1      29.074 -11.214   1.091  0.00  0.00     0.167 HD
BRANCH  22  24
ATOM     24  C   UNL d   1      29.765 -13.015   1.806  0.00  0.00     0.149 A 
ATOM     25  C   UNL d   1      30.775 -13.903   1.479  0.00  0.00     0.076 A 
ATOM     26  C   UNL d   1      31.234 -14.786   2.433  0.00  0.00     0.026 A 
ATOM     27  C   UNL d   1      32.329 -15.747   2.092  0.00  0.00     0.069 C 
ATOM     28  N   UNL d   1      30.693 -14.759   3.658  0.00  0.00    -0.194 N 
ATOM     29  C   UNL d   1      29.697 -13.916   3.982  0.00  0.00     0.704 A 
ATOM     30  H   UNL d   1      30.974 -15.409   4.381  0.00  0.00     0.184 HD
ATOM     31  N   UNL d   1      29.213 -13.015   3.057  0.00  0.00    -0.047 NA
BRANCH  29  32
ATOM     32  N   UNL d   1      29.188 -14.108   5.248  0.00  0.00    -0.216 N 
ATOM     33  C   UNL d   1      27.914 -13.548   5.702  0.00  0.00     0.141 C 
ATOM     34  C   UNL d   1      28.219 -12.950   7.073  0.00  0.00     0.022 C 
ATOM     35  C   UNL d   1      29.253 -13.907   7.644  0.00  0.00     0.022 C 
ATOM     36  C   UNL d   1      30.030 -14.418   6.415  0.00  0.00     0.141 C 
ENDBRANCH  29  32
ENDBRANCH  22  24
ENDBRANCH   4  22
TORSDOF 8
ENDMDL
MODEL 9
REMARK VINA RESULT:    -8.380      2.886      4.964
REMARK INTER + INTRA:         -12.421
REMARK INTER:                 -10.766
REMARK INTRA:                  -1.655
REMARK CONF_INDEPENDENT:        2.386
REMARK UNBOUND:                -1.655
REMARK  8 active torsions:
REMARK  status: ('A' for Active; 'I' for Inactive)
REMARK    1  A    between atoms: O_2  and  C_3 
REMARK    2  A    between atoms: C_6  and  S_7 
REMARK    3  A    between atoms: S_7  and  N_10 
REMARK    4  A    between atoms: N_10  and  C_11 
REMARK    5  A    between atoms: C_14  and  N_15 
REMARK    6  A    between atoms: N_15  and  C_16 
REMARK    7  A    between atoms: C_21  and  N_22 
REMARK    8  A    between atoms: C_31  and  O_32 
ROOT
ATOM      1  C   UNL d   1      27.162 -14.044  -0.640  0.00  0.00     0.042 C 
ATOM      2  C   UNL d   1      28.149 -14.995  -0.357  0.00  0.00     0.032 C 
ATOM      3  C   UNL d   1      28.492 -15.305   0.989  0.00  0.00     0.032 C 
ATOM      4  C   UNL d   1      27.917 -14.607   2.066  0.00  0.00     0.033 C 
ATOM      5  C   UNL d   1      26.875 -13.732   1.745  0.00  0.00     0.032 C 
ATOM      6  C   UNL d   1      26.488 -13.479   0.429  0.00  0.00     0.032 C 
ENDROOT
BRANCH   1   7
ATOM      7  N   UNL d   1      26.779 -13.720  -1.983  0.00  0.00    -0.281 N 
ATOM      8  H   UNL d   1      27.044 -12.816  -2.357  0.00  0.00     0.179 HD
BRANCH   7   9
ATOM      9  S   UNL d   1      26.091 -14.922  -2.973  0.00  0.00     0.263 S 
ATOM     10  O   UNL d   1      27.173 -15.626  -3.605  0.00  0.00    -0.200 OA
ATOM     11  O   UNL d   1      25.037 -14.299  -3.770  0.00  0.00    -0.200 OA
BRANCH   9  12
ATOM     12  C   UNL d   1      25.221 -16.082  -1.937  0.00  0.00     0.082 A 
ATOM     13  C   UNL d   1      23.838 -15.944  -1.793  0.00  0.00     0.028 A 
ATOM     14  C   UNL d   1      23.147 -16.732  -0.849  0.00  0.00     0.041 A 
ATOM     15  C   UNL d   1      23.804 -17.716  -0.076  0.00  0.00     0.101 A 
ATOM     16  C   UNL d   1      25.186 -17.894  -0.297  0.00  0.00     0.102 A 
ATOM     17  C   UNL d   1      25.877 -17.054  -1.200  0.00  0.00     0.065 A 
BRANCH  15  18
ATOM     18  O   UNL d   1      22.939 -18.531   0.626  0.00  0.00    -0.353 OA
ATOM     19  C   UNL d   1      21.698 -18.948   0.051  0.00  0.00     0.210 C 
ENDBRANCH  15  18
BRANCH  16  20
ATOM     20  O   UNL d   1      26.073 -18.834   0.173  0.00  0.00    -0.353 OA
ATOM     21  C   UNL d   1      27.412 -18.432   0.230  0.00  0.00     0.210 C 
ENDBRANCH  16  20
ENDBRANCH   9  12
ENDBRANCH   7   9
ENDBRANCH   1   7
BRANCH   4  22
ATOM     22  N   UNL d   1      28.320 -14.823   3.420  0.00  0.00    -0.340 N 
ATOM     23  H   UNL d   1      29.028 -15.545   3.515  0.00  0.00     0.167 HD
BRANCH  22  24
ATOM     24  C   UNL d   1      28.385 -13.828   4.448  0.00  0.00     0.149 A 
ATOM     25  C   UNL d   1      28.728 -14.307   5.701  0.00  0.00     0.076 A 
ATOM     26  C   UNL d   1      28.850 -13.424   6.752  0.00  0.00     0.026 A 
ATOM     27  C   UNL d   1      29.225 -13.930   8.109  0.00  0.00     0.069 C 
ATOM     28  N   UNL d   1      28.639 -12.119   6.534  0.00  0.00    -0.194 N 
ATOM     29  C   UNL d   1      28.286 -11.644   5.327  0.00  0.00     0.704 A 
ATOM     30  H   UNL d   1      28.685 -11.437   7.281  0.00  0.00     0.184 HD
ATOM     31  N   UNL d   1      28.157 -12.494   4.249  0.00  0.00    -0.047 NA
BRANCH  29  32
ATOM     32  N   UNL d   1      27.999 -10.296   5.316  0.00  0.00    -0.216 N 
ATOM     33  C   UNL d   1      27.090  -9.669   4.355  0.00  0.00     0.141 C 
ATOM     34  C   UNL d   1      27.833  -8.427   3.870  0.00  0.00     0.022 C 
ATOM     35  C   UNL d   1      28.592  -7.974   5.106  0.00  0.00     0.022 C 
ATOM     36  C   UNL d   1      28.906  -9.276   5.869  0.00  0.00     0.141 C 
ENDBRANCH  29  32
ENDBRANCH  22  24
ENDBRANCH   4  22
TORSDOF 8
ENDMDL
