MODEL 1
REMARK VINA RESULT:   -21.498      0.000      0.000
REMARK INTER + INTRA:         -22.828
REMARK INTER:                 -22.393
REMARK INTRA:                  -0.435
REMARK CONF_INDEPENDENT:        0.895
REMARK UNBOUND:                -0.435
REMARK  3 active torsions:
REMARK  status: ('A' for Active; 'I' for Inactive)
REMARK       I    between atoms: C_2  and  N_4 
REMARK    1  A    between atoms: N_4  and  C_5 
REMARK    2  A    between atoms: C_9  and  C_10 
REMARK       I    between atoms: C_10  and  N_12 
REMARK    3  A    between atoms: N_12  and  C_13 
ROOT
ATOM      1  C   UNL d   1      20.614 -19.342   2.124  0.00  0.00     0.055 A 
ATOM      2  C   UNL d   1      20.669 -19.750   3.467  0.00  0.00     0.031 A 
ATOM      3  C   UNL d   1      19.769 -20.704   3.950  0.00  0.00     0.002 A 
ATOM      4  C   UNL d   1      18.776 -21.211   3.115  0.00  0.00     0.002 A 
ATOM      5  C   UNL d   1      18.720 -20.813   1.780  0.00  0.00     0.025 A 
ATOM      6  C   UNL d   1      19.631 -19.881   1.272  0.00  0.00     0.071 A 
ATOM      7  C   UNL d   1      19.568 -19.574  -0.128  0.00  0.00     0.102 C 
ATOM      8  N   UNL d   1      19.530 -19.325  -1.269  0.00  0.00    -0.191 NA
ENDROOT
BRANCH   1   9
ATOM      9  N   UNL d   1      21.605 -18.452   1.648  0.00  0.00    -0.322 N 
ATOM     10  C   UNL d   1      22.436 -18.770   0.579  0.00  0.00     0.256 C 
ATOM     11  O   UNL d   1      22.234 -19.725  -0.169  0.00  0.00    -0.267 OA
ATOM     12  H   UNL d   1      21.625 -17.535   2.072  0.00  0.00     0.169 HD
BRANCH  10  13
ATOM     13  C   UNL d   1      23.563 -17.865   0.250  0.00  0.00     0.034 A 
ATOM     14  C   UNL d   1      24.822 -18.139   0.798  0.00  0.00     0.017 A 
ATOM     15  C   UNL d   1      25.941 -17.426   0.370  0.00  0.00     0.003 A 
ATOM     16  C   UNL d   1      25.796 -16.384  -0.555  0.00  0.00     0.029 A 
ATOM     17  C   UNL d   1      24.536 -16.082  -1.076  0.00  0.00     0.035 A 
ATOM     18  C   UNL d   1      23.428 -16.820  -0.660  0.00  0.00     0.046 A 
BRANCH  17  19
ATOM     19  N   UNL d   1      24.370 -15.097  -2.077  0.00  0.00    -0.327 N 
ATOM     20  C   UNL d   1      25.246 -14.985  -3.148  0.00  0.00     0.218 C 
ATOM     21  C   UNL d   1      24.974 -13.852  -4.100  0.00  0.00     0.117 C 
ATOM     22  O   UNL d   1      26.186 -15.748  -3.364  0.00  0.00    -0.274 OA
ATOM     23  H   UNL d   1      23.537 -14.523  -2.036  0.00  0.00     0.169 HD
ENDBRANCH  17  19
ENDBRANCH  10  13
ENDBRANCH   1   9
TORSDOF 3
ENDMDL
