MODEL 1
REMARK VINA RESULT:    -7.095      0.000      0.000
REMARK INTER + INTRA:         -12.953
REMARK INTER:                 -10.078
REMARK INTRA:                  -2.875
REMARK CONF_INDEPENDENT:        2.983
REMARK UNBOUND:                -2.875
REMARK  10 active torsions:
REMARK  status: ('A' for Active; 'I' for Inactive)
REMARK    1  A    between atoms: C_2  and  C_3 
REMARK    2  A    between atoms: C_3  and  N_4 
REMARK    3  A    between atoms: N_4  and  C_5 
REMARK    4  A    between atoms: N_4  and  C_20 
REMARK    5  A    between atoms: C_5  and  C_6 
REMARK    6  A    between atoms: C_6  and  C_7 
REMARK       I    between atoms: C_7  and  N_9 
REMARK    7  A    between atoms: N_9  and  C_10 
REMARK    8  A    between atoms: C_12  and  N_13 
REMARK    9  A    between atoms: C_20  and  C_21 
REMARK   10  A    between atoms: C_26  and  O_27 
ROOT
ATOM      1  C   UNL d   1      31.253 -15.386   0.704  0.00  0.00     0.244 C 
ENDROOT
BRANCH   1   2
ATOM      2  N   UNL d   1      30.180 -14.708   1.536  0.00  0.00    -0.067 N 
ATOM      3  H   UNL d   1      29.431 -15.410   1.663  0.00  0.00     0.280 HD
BRANCH   2   4
ATOM      4  C   UNL d   1      29.540 -13.459   0.993  0.00  0.00     0.234 C 
BRANCH   4   5
ATOM      5  C   UNL d   1      28.219 -13.738   0.302  0.00  0.00     0.023 C 
ATOM      6  C   UNL d   1      27.092 -12.842   0.719  0.00  0.00     0.007 C 
ENDBRANCH   4   5
ENDBRANCH   2   4
BRANCH   2   7
ATOM      7  C   UNL d   1      30.696 -14.472   2.960  0.00  0.00     0.276 C 
BRANCH   7   8
ATOM      8  C   UNL d   1      29.652 -14.075   3.971  0.00  0.00     0.001 A 
ATOM      9  C   UNL d   1      30.060 -13.292   5.068  0.00  0.00     0.011 A 
ATOM     10  C   UNL d   1      29.145 -12.914   6.050  0.00  0.00     0.001 A 
ATOM     11  C   UNL d   1      27.814 -13.313   5.951  0.00  0.00     0.003 A 
ATOM     12  C   UNL d   1      27.389 -14.081   4.870  0.00  0.00     0.037 A 
ATOM     13  C   UNL d   1      28.305 -14.454   3.892  0.00  0.00     0.073 A 
BRANCH  13  14
ATOM     14  O   UNL d   1      27.876 -15.200   2.822  0.00  0.00    -0.360 OA
ATOM     15  H   UNL d   1      28.121 -16.135   2.985  0.00  0.00     0.217 HD
ENDBRANCH  13  14
ENDBRANCH   7   8
ENDBRANCH   2   7
ENDBRANCH   1   2
BRANCH   1  16
ATOM     16  C   UNL d   1      30.875 -16.783   0.228  0.00  0.00     0.131 C 
BRANCH  16  17
ATOM     17  C   UNL d   1      29.624 -16.748  -0.565  0.00  0.00     0.223 C 
ATOM     18  O   UNL d   1      29.682 -16.507  -1.758  0.00  0.00    -0.273 OA
ATOM     19  N   UNL d   1      28.468 -16.806   0.214  0.00  0.00    -0.327 N 
ATOM     20  H   UNL d   1      28.497 -16.464   1.169  0.00  0.00     0.169 HD
BRANCH  19  21
ATOM     21  C   UNL d   1      27.212 -16.884  -0.417  0.00  0.00     0.043 A 
ATOM     22  C   UNL d   1      26.915 -16.050  -1.511  0.00  0.00     0.066 A 
ATOM     23  C   UNL d   1      25.654 -16.162  -2.124  0.00  0.00     0.105 A 
ATOM     24  C   UNL d   1      24.704 -17.066  -1.638  0.00  0.00     0.037 A 
ATOM     25  C   UNL d   1      25.004 -17.859  -0.534  0.00  0.00     0.011 A 
ATOM     26  C   UNL d   1      26.248 -17.775   0.095  0.00  0.00    -0.035 A 
ATOM     27  C   UNL d   1      26.461 -18.576   1.356  0.00  0.00     0.050 C 
BRANCH  23  28
ATOM     28  N   UNL d   1      25.309 -15.333  -3.289  0.00  0.00    -0.116 N 
ATOM     29  O   UNL d   1      24.455 -14.450  -3.134  0.00  0.00    -0.532 OA
ATOM     30  O   UNL d   1      25.889 -15.572  -4.357  0.00  0.00    -0.532 OA
ENDBRANCH  23  28
ENDBRANCH  19  21
ENDBRANCH  16  17
ENDBRANCH   1  16
TORSDOF 10
ENDMDL
MODEL 2
REMARK VINA RESULT:    -6.631      2.926      7.266
REMARK INTER + INTRA:         -12.667
REMARK INTER:                  -9.614
REMARK INTRA:                  -3.052
REMARK CONF_INDEPENDENT:        2.983
REMARK UNBOUND:                -3.052
REMARK  10 active torsions:
REMARK  status: ('A' for Active; 'I' for Inactive)
REMARK    1  A    between atoms: C_2  and  C_3 
REMARK    2  A    between atoms: C_3  and  N_4 
REMARK    3  A    between atoms: N_4  and  C_5 
REMARK    4  A    between atoms: N_4  and  C_20 
REMARK    5  A    between atoms: C_5  and  C_6 
REMARK    6  A    between atoms: C_6  and  C_7 
REMARK       I    between atoms: C_7  and  N_9 
REMARK    7  A    between atoms: N_9  and  C_10 
REMARK    8  A    between atoms: C_12  and  N_13 
REMARK    9  A    between atoms: C_20  and  C_21 
REMARK   10  A    between atoms: C_26  and  O_27 
ROOT
ATOM      1  C   UNL d   1      26.435 -16.896   0.222  0.00  0.00     0.244 C 
ENDROOT
BRANCH   1   2
ATOM      2  N   UNL d   1      25.808 -16.156  -0.946  0.00  0.00    -0.067 N 
ATOM      3  H   UNL d   1      25.717 -15.171  -0.643  0.00  0.00     0.280 HD
BRANCH   2   4
ATOM      4  C   UNL d   1      24.458 -16.605  -1.435  0.00  0.00     0.234 C 
BRANCH   4   5
ATOM      5  C   UNL d   1      24.072 -17.969  -0.897  0.00  0.00     0.023 C 
ATOM      6  C   UNL d   1      22.634 -18.102  -0.496  0.00  0.00     0.007 C 
ENDBRANCH   4   5
ENDBRANCH   2   4
BRANCH   2   7
ATOM      7  C   UNL d   1      26.803 -16.081  -2.110  0.00  0.00     0.276 C 
BRANCH   7   8
ATOM      8  C   UNL d   1      26.580 -14.953  -3.083  0.00  0.00     0.001 A 
ATOM      9  C   UNL d   1      26.821 -15.201  -4.448  0.00  0.00     0.011 A 
ATOM     10  C   UNL d   1      26.657 -14.190  -5.394  0.00  0.00     0.001 A 
ATOM     11  C   UNL d   1      26.253 -12.920  -4.990  0.00  0.00     0.003 A 
ATOM     12  C   UNL d   1      26.003 -12.655  -3.646  0.00  0.00     0.037 A 
ATOM     13  C   UNL d   1      26.167 -13.668  -2.706  0.00  0.00     0.073 A 
BRANCH  13  14
ATOM     14  O   UNL d   1      25.905 -13.404  -1.384  0.00  0.00    -0.360 OA
ATOM     15  H   UNL d   1      26.734 -13.090  -0.967  0.00  0.00     0.217 HD
ENDBRANCH  13  14
ENDBRANCH   7   8
ENDBRANCH   2   7
ENDBRANCH   1   2
BRANCH   1  16
ATOM     16  C   UNL d   1      27.741 -16.283   0.712  0.00  0.00     0.131 C 
BRANCH  16  17
ATOM     17  C   UNL d   1      27.492 -14.991   1.394  0.00  0.00     0.223 C 
ATOM     18  O   UNL d   1      26.733 -14.186   0.884  0.00  0.00    -0.273 OA
ATOM     19  N   UNL d   1      28.338 -14.763   2.479  0.00  0.00    -0.327 N 
ATOM     20  H   UNL d   1      29.254 -15.200   2.495  0.00  0.00     0.169 HD
BRANCH  19  21
ATOM     21  C   UNL d   1      28.144 -13.620   3.278  0.00  0.00     0.043 A 
ATOM     22  C   UNL d   1      27.615 -12.444   2.717  0.00  0.00     0.066 A 
ATOM     23  C   UNL d   1      27.425 -11.324   3.548  0.00  0.00     0.105 A 
ATOM     24  C   UNL d   1      27.780 -11.372   4.899  0.00  0.00     0.037 A 
ATOM     25  C   UNL d   1      28.332 -12.535   5.429  0.00  0.00     0.011 A 
ATOM     26  C   UNL d   1      28.531 -13.664   4.633  0.00  0.00    -0.035 A 
ATOM     27  C   UNL d   1      29.243 -14.846   5.243  0.00  0.00     0.050 C 
BRANCH  23  28
ATOM     28  N   UNL d   1      26.846 -10.081   3.013  0.00  0.00    -0.116 N 
ATOM     29  O   UNL d   1      26.599  -9.171   3.815  0.00  0.00    -0.532 OA
ATOM     30  O   UNL d   1      26.635 -10.022   1.794  0.00  0.00    -0.532 OA
ENDBRANCH  23  28
ENDBRANCH  19  21
ENDBRANCH  16  17
ENDBRANCH   1  16
TORSDOF 10
ENDMDL
MODEL 3
REMARK VINA RESULT:    -6.581      1.281      1.989
REMARK INTER + INTRA:         -12.772
REMARK INTER:                  -9.564
REMARK INTRA:                  -3.208
REMARK CONF_INDEPENDENT:        2.983
REMARK UNBOUND:                -3.208
REMARK  10 active torsions:
REMARK  status: ('A' for Active; 'I' for Inactive)
REMARK    1  A    between atoms: C_2  and  C_3 
REMARK    2  A    between atoms: C_3  and  N_4 
REMARK    3  A    between atoms: N_4  and  C_5 
REMARK    4  A    between atoms: N_4  and  C_20 
REMARK    5  A    between atoms: C_5  and  C_6 
REMARK    6  A    between atoms: C_6  and  C_7 
REMARK       I    between atoms: C_7  and  N_9 
REMARK    7  A    between atoms: N_9  and  C_10 
REMARK    8  A    between atoms: C_12  and  N_13 
REMARK    9  A    between atoms: C_20  and  C_21 
REMARK   10  A    between atoms: C_26  and  O_27 
ROOT
ATOM      1  C   UNL d   1      31.668 -15.059   0.860  0.00  0.00     0.244 C 
ENDROOT
BRANCH   1   2
ATOM      2  N   UNL d   1      30.971 -14.149   1.855  0.00  0.00    -0.067 N 
ATOM      3  H   UNL d   1      29.980 -14.113   1.564  0.00  0.00     0.280 HD
BRANCH   2   4
ATOM      4  C   UNL d   1      31.455 -12.729   1.985  0.00  0.00     0.234 C 
BRANCH   4   5
ATOM      5  C   UNL d   1      32.865 -12.647   2.537  0.00  0.00     0.023 C 
ATOM      6  C   UNL d   1      32.990 -11.891   3.826  0.00  0.00     0.007 C 
ENDBRANCH   4   5
ENDBRANCH   2   4
BRANCH   2   7
ATOM      7  C   UNL d   1      30.917 -14.825   3.230  0.00  0.00     0.276 C 
BRANCH   7   8
ATOM      8  C   UNL d   1      29.759 -14.422   4.106  0.00  0.00     0.001 A 
ATOM      9  C   UNL d   1      30.038 -14.032   5.431  0.00  0.00     0.011 A 
ATOM     10  C   UNL d   1      29.006 -13.673   6.297  0.00  0.00     0.001 A 
ATOM     11  C   UNL d   1      27.686 -13.699   5.855  0.00  0.00     0.003 A 
ATOM     12  C   UNL d   1      27.389 -14.075   4.547  0.00  0.00     0.037 A 
ATOM     13  C   UNL d   1      28.422 -14.431   3.686  0.00  0.00     0.073 A 
BRANCH  13  14
ATOM     14  O   UNL d   1      28.124 -14.787   2.393  0.00  0.00    -0.360 OA
ATOM     15  H   UNL d   1      28.659 -15.575   2.164  0.00  0.00     0.217 HD
ENDBRANCH  13  14
ENDBRANCH   7   8
ENDBRANCH   2   7
ENDBRANCH   1   2
BRANCH   1  16
ATOM     16  C   UNL d   1      30.892 -16.330   0.539  0.00  0.00     0.131 C 
BRANCH  16  17
ATOM     17  C   UNL d   1      29.541 -16.006   0.021  0.00  0.00     0.223 C 
ATOM     18  O   UNL d   1      29.114 -14.872   0.142  0.00  0.00    -0.273 OA
ATOM     19  N   UNL d   1      28.817 -17.127  -0.384  0.00  0.00    -0.327 N 
ATOM     20  H   UNL d   1      29.018 -18.027   0.041  0.00  0.00     0.169 HD
BRANCH  19  21
ATOM     21  C   UNL d   1      27.558 -16.955  -0.990  0.00  0.00     0.043 A 
ATOM     22  C   UNL d   1      27.437 -16.203  -2.173  0.00  0.00     0.066 A 
ATOM     23  C   UNL d   1      26.165 -16.060  -2.757  0.00  0.00     0.105 A 
ATOM     24  C   UNL d   1      25.039 -16.633  -2.158  0.00  0.00     0.037 A 
ATOM     25  C   UNL d   1      25.173 -17.346  -0.969  0.00  0.00     0.011 A 
ATOM     26  C   UNL d   1      26.422 -17.508  -0.366  0.00  0.00    -0.035 A 
ATOM     27  C   UNL d   1      26.476 -18.189   0.980  0.00  0.00     0.050 C 
BRANCH  23  28
ATOM     28  N   UNL d   1      25.994 -15.310  -4.010  0.00  0.00    -0.116 N 
ATOM     29  O   UNL d   1      26.759 -15.575  -4.948  0.00  0.00    -0.532 OA
ATOM     30  O   UNL d   1      25.098 -14.455  -4.052  0.00  0.00    -0.532 OA
ENDBRANCH  23  28
ENDBRANCH  19  21
ENDBRANCH  16  17
ENDBRANCH   1  16
TORSDOF 10
ENDMDL
MODEL 4
REMARK VINA RESULT:    -6.189      3.229      7.135
REMARK INTER + INTRA:         -12.451
REMARK INTER:                  -9.172
REMARK INTRA:                  -3.279
REMARK CONF_INDEPENDENT:        2.983
REMARK UNBOUND:                -3.279
REMARK  10 active torsions:
REMARK  status: ('A' for Active; 'I' for Inactive)
REMARK    1  A    between atoms: C_2  and  C_3 
REMARK    2  A    between atoms: C_3  and  N_4 
REMARK    3  A    between atoms: N_4  and  C_5 
REMARK    4  A    between atoms: N_4  and  C_20 
REMARK    5  A    between atoms: C_5  and  C_6 
REMARK    6  A    between atoms: C_6  and  C_7 
REMARK       I    between atoms: C_7  and  N_9 
REMARK    7  A    between atoms: N_9  and  C_10 
REMARK    8  A    between atoms: C_12  and  N_13 
REMARK    9  A    between atoms: C_20  and  C_21 
REMARK   10  A    between atoms: C_26  and  O_27 
ROOT
ATOM      1  C   UNL d   1      28.985 -15.871   0.231  0.00  0.00     0.244 C 
ENDROOT
BRANCH   1   2
ATOM      2  N   UNL d   1      27.605 -16.383  -0.139  0.00  0.00    -0.067 N 
ATOM      3  H   UNL d   1      26.965 -15.576  -0.040  0.00  0.00     0.280 HD
BRANCH   2   4
ATOM      4  C   UNL d   1      27.026 -17.519   0.661  0.00  0.00     0.234 C 
BRANCH   4   5
ATOM      5  C   UNL d   1      26.050 -18.355  -0.144  0.00  0.00     0.023 C 
ATOM      6  C   UNL d   1      24.614 -18.201   0.258  0.00  0.00     0.007 C 
ENDBRANCH   4   5
ENDBRANCH   2   4
BRANCH   2   7
ATOM      7  C   UNL d   1      27.552 -16.701  -1.638  0.00  0.00     0.276 C 
BRANCH   7   8
ATOM      8  C   UNL d   1      26.702 -15.774  -2.468  0.00  0.00     0.001 A 
ATOM      9  C   UNL d   1      27.116 -15.502  -3.787  0.00  0.00     0.011 A 
ATOM     10  C   UNL d   1      26.385 -14.633  -4.596  0.00  0.00     0.001 A 
ATOM     11  C   UNL d   1      25.236 -14.022  -4.100  0.00  0.00     0.003 A 
ATOM     12  C   UNL d   1      24.805 -14.283  -2.801  0.00  0.00     0.037 A 
ATOM     13  C   UNL d   1      25.537 -15.153  -1.999  0.00  0.00     0.073 A 
BRANCH  13  14
ATOM     14  O   UNL d   1      25.100 -15.415  -0.723  0.00  0.00    -0.360 OA
ATOM     15  H   UNL d   1      25.581 -14.824  -0.108  0.00  0.00     0.217 HD
ENDBRANCH  13  14
ENDBRANCH   7   8
ENDBRANCH   2   7
ENDBRANCH   1   2
BRANCH   1  16
ATOM     16  C   UNL d   1      29.179 -14.382  -0.022  0.00  0.00     0.131 C 
BRANCH  16  17
ATOM     17  C   UNL d   1      28.328 -13.578   0.887  0.00  0.00     0.223 C 
ATOM     18  O   UNL d   1      27.161 -13.891   1.041  0.00  0.00    -0.273 OA
ATOM     19  N   UNL d   1      28.937 -12.401   1.324  0.00  0.00    -0.327 N 
ATOM     20  H   UNL d   1      29.648 -11.966   0.745  0.00  0.00     0.169 HD
BRANCH  19  21
ATOM     21  C   UNL d   1      28.279 -11.594   2.272  0.00  0.00     0.043 A 
ATOM     22  C   UNL d   1      27.516 -10.489   1.855  0.00  0.00     0.066 A 
ATOM     23  C   UNL d   1      26.864  -9.710   2.829  0.00  0.00     0.105 A 
ATOM     24  C   UNL d   1      26.994 -10.015   4.187  0.00  0.00     0.037 A 
ATOM     25  C   UNL d   1      27.780 -11.093   4.583  0.00  0.00     0.011 A 
ATOM     26  C   UNL d   1      28.438 -11.887   3.641  0.00  0.00    -0.035 A 
ATOM     27  C   UNL d   1      29.367 -12.964   4.146  0.00  0.00     0.050 C 
BRANCH  23  28
ATOM     28  N   UNL d   1      26.030  -8.563   2.439  0.00  0.00    -0.116 N 
ATOM     29  O   UNL d   1      26.313  -7.457   2.920  0.00  0.00    -0.532 OA
ATOM     30  O   UNL d   1      25.092  -8.772   1.658  0.00  0.00    -0.532 OA
ENDBRANCH  23  28
ENDBRANCH  19  21
ENDBRANCH  16  17
ENDBRANCH   1  16
TORSDOF 10
ENDMDL
MODEL 5
REMARK VINA RESULT:    -6.119      3.460      7.148
REMARK INTER + INTRA:         -12.993
REMARK INTER:                  -9.102
REMARK INTRA:                  -3.891
REMARK CONF_INDEPENDENT:        2.983
REMARK UNBOUND:                -3.891
REMARK  10 active torsions:
REMARK  status: ('A' for Active; 'I' for Inactive)
REMARK    1  A    between atoms: C_2  and  C_3 
REMARK    2  A    between atoms: C_3  and  N_4 
REMARK    3  A    between atoms: N_4  and  C_5 
REMARK    4  A    between atoms: N_4  and  C_20 
REMARK    5  A    between atoms: C_5  and  C_6 
REMARK    6  A    between atoms: C_6  and  C_7 
REMARK       I    between atoms: C_7  and  N_9 
REMARK    7  A    between atoms: N_9  and  C_10 
REMARK    8  A    between atoms: C_12  and  N_13 
REMARK    9  A    between atoms: C_20  and  C_21 
REMARK   10  A    between atoms: C_26  and  O_27 
ROOT
ATOM      1  C   UNL d   1      28.496 -15.816   0.358  0.00  0.00     0.244 C 
ENDROOT
BRANCH   1   2
ATOM      2  N   UNL d   1      27.396 -16.446  -0.478  0.00  0.00    -0.067 N 
ATOM      3  H   UNL d   1      26.570 -15.834  -0.369  0.00  0.00     0.280 HD
BRANCH   2   4
ATOM      4  C   UNL d   1      26.965 -17.850  -0.149  0.00  0.00     0.234 C 
BRANCH   4   5
ATOM      5  C   UNL d   1      25.645 -17.891   0.596  0.00  0.00     0.023 C 
ATOM      6  C   UNL d   1      24.487 -18.401  -0.207  0.00  0.00     0.007 C 
ENDBRANCH   4   5
ENDBRANCH   2   4
BRANCH   2   7
ATOM      7  C   UNL d   1      27.739 -16.324  -1.967  0.00  0.00     0.276 C 
BRANCH   7   8
ATOM      8  C   UNL d   1      26.847 -15.410  -2.766  0.00  0.00     0.001 A 
ATOM      9  C   UNL d   1      27.358 -14.869  -3.962  0.00  0.00     0.011 A 
ATOM     10  C   UNL d   1      26.589 -13.997  -4.732  0.00  0.00     0.001 A 
ATOM     11  C   UNL d   1      25.305 -13.653  -4.319  0.00  0.00     0.003 A 
ATOM     12  C   UNL d   1      24.778 -14.182  -3.143  0.00  0.00     0.037 A 
ATOM     13  C   UNL d   1      25.548 -15.053  -2.379  0.00  0.00     0.073 A 
BRANCH  13  14
ATOM     14  O   UNL d   1      25.018 -15.583  -1.228  0.00  0.00    -0.360 OA
ATOM     15  H   UNL d   1      24.845 -14.846  -0.606  0.00  0.00     0.217 HD
ENDBRANCH  13  14
ENDBRANCH   7   8
ENDBRANCH   2   7
ENDBRANCH   1   2
BRANCH   1  16
ATOM     16  C   UNL d   1      27.984 -14.896   1.459  0.00  0.00     0.131 C 
BRANCH  16  17
ATOM     17  C   UNL d   1      27.346 -13.689   0.883  0.00  0.00     0.223 C 
ATOM     18  O   UNL d   1      26.263 -13.793   0.335  0.00  0.00    -0.273 OA
ATOM     19  N   UNL d   1      28.181 -12.572   0.866  0.00  0.00    -0.327 N 
ATOM     20  H   UNL d   1      29.187 -12.706   0.829  0.00  0.00     0.169 HD
BRANCH  19  21
ATOM     21  C   UNL d   1      27.668 -11.332   0.438  0.00  0.00     0.043 A 
ATOM     22  C   UNL d   1      27.070 -10.456   1.361  0.00  0.00     0.066 A 
ATOM     23  C   UNL d   1      26.579  -9.220   0.901  0.00  0.00     0.105 A 
ATOM     24  C   UNL d   1      26.660  -8.883  -0.454  0.00  0.00     0.037 A 
ATOM     25  C   UNL d   1      27.226  -9.777  -1.358  0.00  0.00     0.011 A 
ATOM     26  C   UNL d   1      27.726 -11.009  -0.932  0.00  0.00    -0.035 A 
ATOM     27  C   UNL d   1      28.216 -11.977  -1.982  0.00  0.00     0.050 C 
BRANCH  23  28
ATOM     28  N   UNL d   1      25.973  -8.258   1.834  0.00  0.00    -0.116 N 
ATOM     29  O   UNL d   1      25.194  -7.416   1.365  0.00  0.00    -0.532 OA
ATOM     30  O   UNL d   1      26.280  -8.344   3.030  0.00  0.00    -0.532 OA
ENDBRANCH  23  28
ENDBRANCH  19  21
ENDBRANCH  16  17
ENDBRANCH   1  16
TORSDOF 10
ENDMDL
MODEL 6
REMARK VINA RESULT:    -6.062      4.449      6.618
REMARK INTER + INTRA:         -12.294
REMARK INTER:                  -9.045
REMARK INTRA:                  -3.249
REMARK CONF_INDEPENDENT:        2.983
REMARK UNBOUND:                -3.249
REMARK  10 active torsions:
REMARK  status: ('A' for Active; 'I' for Inactive)
REMARK    1  A    between atoms: C_2  and  C_3 
REMARK    2  A    between atoms: C_3  and  N_4 
REMARK    3  A    between atoms: N_4  and  C_5 
REMARK    4  A    between atoms: N_4  and  C_20 
REMARK    5  A    between atoms: C_5  and  C_6 
REMARK    6  A    between atoms: C_6  and  C_7 
REMARK       I    between atoms: C_7  and  N_9 
REMARK    7  A    between atoms: N_9  and  C_10 
REMARK    8  A    between atoms: C_12  and  N_13 
REMARK    9  A    between atoms: C_20  and  C_21 
REMARK   10  A    between atoms: C_26  and  O_27 
ROOT
ATOM      1  C   UNL d   1      29.925 -14.634   5.735  0.00  0.00     0.244 C 
ENDROOT
BRANCH   1   2
ATOM      2  N   UNL d   1      30.507 -13.677   6.759  0.00  0.00    -0.067 N 
ATOM      3  H   UNL d   1      31.366 -13.290   6.331  0.00  0.00     0.280 HD
BRANCH   2   4
ATOM      4  C   UNL d   1      30.882 -14.220   8.112  0.00  0.00     0.234 C 
BRANCH   4   5
ATOM      5  C   UNL d   1      29.905 -13.803   9.193  0.00  0.00     0.023 C 
ATOM      6  C   UNL d   1      29.314 -14.937   9.975  0.00  0.00     0.007 C 
ENDBRANCH   4   5
ENDBRANCH   2   4
BRANCH   2   7
ATOM      7  C   UNL d   1      29.596 -12.453   6.905  0.00  0.00     0.276 C 
BRANCH   7   8
ATOM      8  C   UNL d   1      29.947 -11.275   6.033  0.00  0.00     0.001 A 
ATOM      9  C   UNL d   1      29.423 -10.016   6.384  0.00  0.00     0.011 A 
ATOM     10  C   UNL d   1      29.692  -8.893   5.603  0.00  0.00     0.001 A 
ATOM     11  C   UNL d   1      30.483  -9.011   4.463  0.00  0.00     0.003 A 
ATOM     12  C   UNL d   1      31.017 -10.247   4.103  0.00  0.00     0.037 A 
ATOM     13  C   UNL d   1      30.747 -11.364   4.887  0.00  0.00     0.073 A 
BRANCH  13  14
ATOM     14  O   UNL d   1      31.288 -12.576   4.533  0.00  0.00    -0.360 OA
ATOM     15  H   UNL d   1      32.216 -12.599   4.846  0.00  0.00     0.217 HD
ENDBRANCH  13  14
ENDBRANCH   7   8
ENDBRANCH   2   7
ENDBRANCH   1   2
BRANCH   1  16
ATOM     16  C   UNL d   1      28.419 -14.826   5.855  0.00  0.00     0.131 C 
BRANCH  16  17
ATOM     17  C   UNL d   1      27.701 -13.989   4.864  0.00  0.00     0.223 C 
ATOM     18  O   UNL d   1      26.498 -14.127   4.730  0.00  0.00    -0.273 OA
ATOM     19  N   UNL d   1      28.550 -13.254   4.037  0.00  0.00    -0.327 N 
ATOM     20  H   UNL d   1      29.487 -13.600   3.855  0.00  0.00     0.169 HD
BRANCH  19  21
ATOM     21  C   UNL d   1      27.999 -12.340   3.118  0.00  0.00     0.043 A 
ATOM     22  C   UNL d   1      27.469 -11.116   3.565  0.00  0.00     0.066 A 
ATOM     23  C   UNL d   1      26.936 -10.223   2.618  0.00  0.00     0.105 A 
ATOM     24  C   UNL d   1      26.910 -10.557   1.261  0.00  0.00     0.037 A 
ATOM     25  C   UNL d   1      27.410 -11.787   0.841  0.00  0.00     0.011 A 
ATOM     26  C   UNL d   1      27.948 -12.694   1.755  0.00  0.00    -0.035 A 
ATOM     27  C   UNL d   1      28.360 -14.054   1.246  0.00  0.00     0.050 C 
BRANCH  23  28
ATOM     28  N   UNL d   1      26.399  -8.918   3.034  0.00  0.00    -0.116 N 
ATOM     29  O   UNL d   1      25.530  -8.400   2.320  0.00  0.00    -0.532 OA
ATOM     30  O   UNL d   1      26.852  -8.414   4.071  0.00  0.00    -0.532 OA
ENDBRANCH  23  28
ENDBRANCH  19  21
ENDBRANCH  16  17
ENDBRANCH   1  16
TORSDOF 10
ENDMDL
MODEL 7
REMARK VINA RESULT:    -6.012      2.020      2.548
REMARK INTER + INTRA:         -12.256
REMARK INTER:                  -8.995
REMARK INTRA:                  -3.261
REMARK CONF_INDEPENDENT:        2.983
REMARK UNBOUND:                -3.261
REMARK  10 active torsions:
REMARK  status: ('A' for Active; 'I' for Inactive)
REMARK    1  A    between atoms: C_2  and  C_3 
REMARK    2  A    between atoms: C_3  and  N_4 
REMARK    3  A    between atoms: N_4  and  C_5 
REMARK    4  A    between atoms: N_4  and  C_20 
REMARK    5  A    between atoms: C_5  and  C_6 
REMARK    6  A    between atoms: C_6  and  C_7 
REMARK       I    between atoms: C_7  and  N_9 
REMARK    7  A    between atoms: N_9  and  C_10 
REMARK    8  A    between atoms: C_12  and  N_13 
REMARK    9  A    between atoms: C_20  and  C_21 
REMARK   10  A    between atoms: C_26  and  O_27 
ROOT
ATOM      1  C   UNL d   1      30.522 -15.138   0.774  0.00  0.00     0.244 C 
ENDROOT
BRANCH   1   2
ATOM      2  N   UNL d   1      29.690 -14.512   1.878  0.00  0.00    -0.067 N 
ATOM      3  H   UNL d   1      28.951 -15.200   2.104  0.00  0.00     0.280 HD
BRANCH   2   4
ATOM      4  C   UNL d   1      29.012 -13.196   1.603  0.00  0.00     0.234 C 
BRANCH   4   5
ATOM      5  C   UNL d   1      27.530 -13.356   1.324  0.00  0.00     0.023 C 
ATOM      6  C   UNL d   1      27.026 -12.576   0.147  0.00  0.00     0.007 C 
ENDBRANCH   4   5
ENDBRANCH   2   4
BRANCH   2   7
ATOM      7  C   UNL d   1      30.513 -14.432   3.169  0.00  0.00     0.276 C 
BRANCH   7   8
ATOM      8  C   UNL d   1      29.753 -14.001   4.397  0.00  0.00     0.001 A 
ATOM      9  C   UNL d   1      30.405 -13.150   5.311  0.00  0.00     0.011 A 
ATOM     10  C   UNL d   1      29.763 -12.737   6.478  0.00  0.00     0.001 A 
ATOM     11  C   UNL d   1      28.467 -13.168   6.749  0.00  0.00     0.003 A 
ATOM     12  C   UNL d   1      27.802 -14.004   5.854  0.00  0.00     0.037 A 
ATOM     13  C   UNL d   1      28.446 -14.411   4.691  0.00  0.00     0.073 A 
BRANCH  13  14
ATOM     14  O   UNL d   1      27.780 -15.225   3.806  0.00  0.00    -0.360 OA
ATOM     15  H   UNL d   1      28.440 -15.798   3.364  0.00  0.00     0.217 HD
ENDBRANCH  13  14
ENDBRANCH   7   8
ENDBRANCH   2   7
ENDBRANCH   1   2
BRANCH   1  16
ATOM     16  C   UNL d   1      29.947 -16.439   0.230  0.00  0.00     0.131 C 
BRANCH  16  17
ATOM     17  C   UNL d   1      28.465 -16.389   0.201  0.00  0.00     0.223 C 
ATOM     18  O   UNL d   1      27.855 -16.239   1.245  0.00  0.00    -0.273 OA
ATOM     19  N   UNL d   1      27.921 -16.726  -1.038  0.00  0.00    -0.327 N 
ATOM     20  H   UNL d   1      28.440 -17.341  -1.657  0.00  0.00     0.169 HD
BRANCH  19  21
ATOM     21  C   UNL d   1      26.530 -16.621  -1.233  0.00  0.00     0.043 A 
ATOM     22  C   UNL d   1      25.674 -17.651  -0.802  0.00  0.00     0.066 A 
ATOM     23  C   UNL d   1      24.289 -17.507  -1.004  0.00  0.00     0.105 A 
ATOM     24  C   UNL d   1      23.777 -16.375  -1.645  0.00  0.00     0.037 A 
ATOM     25  C   UNL d   1      24.643 -15.382  -2.093  0.00  0.00     0.011 A 
ATOM     26  C   UNL d   1      26.022 -15.492  -1.906  0.00  0.00    -0.035 A 
ATOM     27  C   UNL d   1      26.908 -14.437  -2.522  0.00  0.00     0.050 C 
BRANCH  23  28
ATOM     28  N   UNL d   1      23.351 -18.543  -0.544  0.00  0.00    -0.116 N 
ATOM     29  O   UNL d   1      23.078 -18.575   0.664  0.00  0.00    -0.532 OA
ATOM     30  O   UNL d   1      22.895 -19.324  -1.390  0.00  0.00    -0.532 OA
ENDBRANCH  23  28
ENDBRANCH  19  21
ENDBRANCH  16  17
ENDBRANCH   1  16
TORSDOF 10
ENDMDL
MODEL 8
REMARK VINA RESULT:    -5.608      3.651      7.002
REMARK INTER + INTRA:         -12.250
REMARK INTER:                  -8.591
REMARK INTRA:                  -3.659
REMARK CONF_INDEPENDENT:        2.983
REMARK UNBOUND:                -3.659
REMARK  10 active torsions:
REMARK  status: ('A' for Active; 'I' for Inactive)
REMARK    1  A    between atoms: C_2  and  C_3 
REMARK    2  A    between atoms: C_3  and  N_4 
REMARK    3  A    between atoms: N_4  and  C_5 
REMARK    4  A    between atoms: N_4  and  C_20 
REMARK    5  A    between atoms: C_5  and  C_6 
REMARK    6  A    between atoms: C_6  and  C_7 
REMARK       I    between atoms: C_7  and  N_9 
REMARK    7  A    between atoms: N_9  and  C_10 
REMARK    8  A    between atoms: C_12  and  N_13 
REMARK    9  A    between atoms: C_20  and  C_21 
REMARK   10  A    between atoms: C_26  and  O_27 
ROOT
ATOM      1  C   UNL d   1      29.101 -14.399  -0.146  0.00  0.00     0.244 C 
ENDROOT
BRANCH   1   2
ATOM      2  N   UNL d   1      27.888 -14.940   0.588  0.00  0.00    -0.067 N 
ATOM      3  H   UNL d   1      27.064 -14.511   0.134  0.00  0.00     0.280 HD
BRANCH   2   4
ATOM      4  C   UNL d   1      27.773 -14.682   2.067  0.00  0.00     0.234 C 
BRANCH   4   5
ATOM      5  C   UNL d   1      27.032 -13.396   2.374  0.00  0.00     0.023 C 
ATOM      6  C   UNL d   1      27.760 -12.457   3.289  0.00  0.00     0.007 C 
ENDBRANCH   4   5
ENDBRANCH   2   4
BRANCH   2   7
ATOM      7  C   UNL d   1      27.723 -16.435   0.290  0.00  0.00     0.276 C 
BRANCH   7   8
ATOM      8  C   UNL d   1      26.350 -16.858  -0.164  0.00  0.00     0.001 A 
ATOM      9  C   UNL d   1      25.785 -18.006   0.426  0.00  0.00     0.011 A 
ATOM     10  C   UNL d   1      24.528 -18.462   0.030  0.00  0.00     0.001 A 
ATOM     11  C   UNL d   1      23.821 -17.782  -0.958  0.00  0.00     0.003 A 
ATOM     12  C   UNL d   1      24.359 -16.641  -1.549  0.00  0.00     0.037 A 
ATOM     13  C   UNL d   1      25.612 -16.189  -1.150  0.00  0.00     0.073 A 
BRANCH  13  14
ATOM     14  O   UNL d   1      26.131 -15.056  -1.727  0.00  0.00    -0.360 OA
ATOM     15  H   UNL d   1      25.565 -14.298  -1.472  0.00  0.00     0.217 HD
ENDBRANCH  13  14
ENDBRANCH   7   8
ENDBRANCH   2   7
ENDBRANCH   1   2
BRANCH   1  16
ATOM     16  C   UNL d   1      28.759 -13.460  -1.295  0.00  0.00     0.131 C 
BRANCH  16  17
ATOM     17  C   UNL d   1      27.772 -12.440  -0.867  0.00  0.00     0.223 C 
ATOM     18  O   UNL d   1      26.652 -12.794  -0.546  0.00  0.00    -0.273 OA
ATOM     19  N   UNL d   1      28.200 -11.129  -1.076  0.00  0.00    -0.327 N 
ATOM     20  H   UNL d   1      28.870 -10.938  -1.814  0.00  0.00     0.169 HD
BRANCH  19  21
ATOM     21  C   UNL d   1      27.404 -10.061  -0.621  0.00  0.00     0.043 A 
ATOM     22  C   UNL d   1      27.183  -9.877   0.756  0.00  0.00     0.066 A 
ATOM     23  C   UNL d   1      26.390  -8.793   1.175  0.00  0.00     0.105 A 
ATOM     24  C   UNL d   1      25.812  -7.931   0.238  0.00  0.00     0.037 A 
ATOM     25  C   UNL d   1      26.015  -8.148  -1.122  0.00  0.00     0.011 A 
ATOM     26  C   UNL d   1      26.799  -9.213  -1.570  0.00  0.00    -0.035 A 
ATOM     27  C   UNL d   1      26.878  -9.459  -3.057  0.00  0.00     0.050 C 
BRANCH  23  28
ATOM     28  N   UNL d   1      26.156  -8.541   2.605  0.00  0.00    -0.116 N 
ATOM     29  O   UNL d   1      26.662  -7.524   3.100  0.00  0.00    -0.532 OA
ATOM     30  O   UNL d   1      25.473  -9.364   3.230  0.00  0.00    -0.532 OA
ENDBRANCH  23  28
ENDBRANCH  19  21
ENDBRANCH  16  17
ENDBRANCH   1  16
TORSDOF 10
ENDMDL
MODEL 9
REMARK VINA RESULT:    -5.325      2.813      5.363
REMARK INTER + INTRA:         -12.375
REMARK INTER:                  -8.308
REMARK INTRA:                  -4.067
REMARK CONF_INDEPENDENT:        2.983
REMARK UNBOUND:                -4.067
REMARK  10 active torsions:
REMARK  status: ('A' for Active; 'I' for Inactive)
REMARK    1  A    between atoms: C_2  and  C_3 
REMARK    2  A    between atoms: C_3  and  N_4 
REMARK    3  A    between atoms: N_4  and  C_5 
REMARK    4  A    between atoms: N_4  and  C_20 
REMARK    5  A    between atoms: C_5  and  C_6 
REMARK    6  A    between atoms: C_6  and  C_7 
REMARK       I    between atoms: C_7  and  N_9 
REMARK    7  A    between atoms: N_9  and  C_10 
REMARK    8  A    between atoms: C_12  and  N_13 
REMARK    9  A    between atoms: C_20  and  C_21 
REMARK   10  A    between atoms: C_26  and  O_27 
ROOT
ATOM      1  C   UNL d   1      29.823 -16.359   0.230  0.00  0.00     0.244 C 
ENDROOT
BRANCH   1   2
ATOM      2  N   UNL d   1      28.328 -16.122   0.109  0.00  0.00    -0.067 N 
ATOM      3  H   UNL d   1      28.173 -15.762  -0.848  0.00  0.00     0.280 HD
BRANCH   2   4
ATOM      4  C   UNL d   1      27.677 -15.159   1.065  0.00  0.00     0.234 C 
BRANCH   4   5
ATOM      5  C   UNL d   1      27.051 -13.974   0.356  0.00  0.00     0.023 C 
ATOM      6  C   UNL d   1      27.885 -13.389  -0.743  0.00  0.00     0.007 C 
ENDBRANCH   4   5
ENDBRANCH   2   4
BRANCH   2   7
ATOM      7  C   UNL d   1      27.587 -17.465   0.111  0.00  0.00     0.276 C 
BRANCH   7   8
ATOM      8  C   UNL d   1      26.121 -17.397  -0.231  0.00  0.00     0.001 A 
ATOM      9  C   UNL d   1      25.232 -18.197   0.513  0.00  0.00     0.011 A 
ATOM     10  C   UNL d   1      23.868 -18.196   0.227  0.00  0.00     0.001 A 
ATOM     11  C   UNL d   1      23.373 -17.401  -0.803  0.00  0.00     0.003 A 
ATOM     12  C   UNL d   1      24.234 -16.597  -1.547  0.00  0.00     0.037 A 
ATOM     13  C   UNL d   1      25.595 -16.600  -1.256  0.00  0.00     0.073 A 
BRANCH  13  14
ATOM     14  O   UNL d   1      26.437 -15.794  -1.984  0.00  0.00    -0.360 OA
ATOM     15  H   UNL d   1      25.911 -15.363  -2.689  0.00  0.00     0.217 HD
ENDBRANCH  13  14
ENDBRANCH   7   8
ENDBRANCH   2   7
ENDBRANCH   1   2
BRANCH   1  16
ATOM     16  C   UNL d   1      30.507 -16.677  -1.093  0.00  0.00     0.131 C 
BRANCH  16  17
ATOM     17  C   UNL d   1      29.614 -16.368  -2.235  0.00  0.00     0.223 C 
ATOM     18  O   UNL d   1      28.649 -17.081  -2.447  0.00  0.00    -0.273 OA
ATOM     19  N   UNL d   1      30.113 -15.375  -3.078  0.00  0.00    -0.327 N 
ATOM     20  H   UNL d   1      31.117 -15.235  -3.140  0.00  0.00     0.169 HD
BRANCH  19  21
ATOM     21  C   UNL d   1      29.320 -14.912  -4.146  0.00  0.00     0.043 A 
ATOM     22  C   UNL d   1      27.986 -14.526  -3.923  0.00  0.00     0.066 A 
ATOM     23  C   UNL d   1      27.226 -14.059  -5.012  0.00  0.00     0.105 A 
ATOM     24  C   UNL d   1      27.780 -14.004  -6.294  0.00  0.00     0.037 A 
ATOM     25  C   UNL d   1      29.092 -14.421  -6.501  0.00  0.00     0.011 A 
ATOM     26  C   UNL d   1      29.873 -14.887  -5.442  0.00  0.00    -0.035 A 
ATOM     27  C   UNL d   1      31.244 -15.434  -5.759  0.00  0.00     0.050 C 
BRANCH  23  28
ATOM     28  N   UNL d   1      25.837 -13.615  -4.822  0.00  0.00    -0.116 N 
ATOM     29  O   UNL d   1      25.574 -12.429  -5.066  0.00  0.00    -0.532 OA
ATOM     30  O   UNL d   1      25.014 -14.451  -4.426  0.00  0.00    -0.532 OA
ENDBRANCH  23  28
ENDBRANCH  19  21
ENDBRANCH  16  17
ENDBRANCH   1  16
TORSDOF 10
ENDMDL
