MODEL 1
REMARK VINA RESULT:   -29.981      0.000      0.000
REMARK INTER + INTRA:         -32.697
REMARK INTER:                 -31.473
REMARK INTRA:                  -1.224
REMARK CONF_INDEPENDENT:        1.492
REMARK UNBOUND:                -1.224
REMARK  5 active torsions:
REMARK  status: ('A' for Active; 'I' for Inactive)
REMARK    1  A    between atoms: C_7  and  N_8 
REMARK    2  A    between atoms: N_8  and  C_9 
REMARK    3  A    between atoms: C_9  and  N_11 
REMARK    4  A    between atoms: N_11  and  N_12 
REMARK       I    between atoms: N_12  and  C_13 
REMARK    5  A    between atoms: C_13  and  C_15 
ROOT
ATOM      1  C   UNL d   1      25.061 -17.628  -0.138  0.00  0.00     0.126 C 
ATOM      2  C   UNL d   1      24.611 -18.944  -0.145  0.00  0.00     0.039 C 
ATOM      3  C   UNL d   1      23.236 -19.195  -0.199  0.00  0.00     0.027 C 
ATOM      4  C   UNL d   1      22.365 -18.174  -0.565  0.00  0.00     0.069 C 
ATOM      5  C   UNL d   1      21.003 -18.483  -0.895  0.00  0.00     0.101 C 
ATOM      6  N   UNL d   1      19.905 -18.711  -1.215  0.00  0.00    -0.191 NA
ATOM      7  C   UNL d   1      22.899 -16.887  -0.686  0.00  0.00     0.052 C 
ATOM      8  C   UNL d   1      22.046 -15.764  -1.227  0.00  0.00     0.072 C 
ATOM      9  N   UNL d   1      24.213 -16.584  -0.374  0.00  0.00    -0.247 NA
ENDROOT
BRANCH   1  10
ATOM     10  C   UNL d   1      26.537 -17.376   0.175  0.00  0.00     0.288 C 
ATOM     11  N   UNL d   1      26.874 -16.121   0.647  0.00  0.00    -0.262 N 
ATOM     12  H   UNL d   1      26.165 -15.400   0.807  0.00  0.00     0.190 HD
ATOM     13  O   UNL d   1      27.360 -18.286   0.093  0.00  0.00    -0.264 OA
BRANCH  11  14
ATOM     14  N   UNL d   1      28.230 -15.756   1.100  0.00  0.00    -0.273 N 
ATOM     15  H   UNL d   1      28.972 -16.411   0.864  0.00  0.00     0.189 HD
BRANCH  14  16
ATOM     16  C   UNL d   1      28.378 -14.515   1.745  0.00  0.00     0.191 C 
ATOM     17  S   UNL d   1      28.046 -13.156   0.781  0.00  0.00    -0.039 SA
BRANCH  16  18
ATOM     18  N   UNL d   1      28.778 -14.565   3.111  0.00  0.00    -0.330 N 
ATOM     19  H   UNL d   1      29.346 -15.352   3.426  0.00  0.00     0.168 HD
BRANCH  18  20
ATOM     20  C   UNL d   1      28.488 -13.609   4.178  0.00  0.00     0.073 A 
ATOM     21  C   UNL d   1      28.447 -13.943   5.544  0.00  0.00     0.143 A 
ATOM     22  C   UNL d   1      28.155 -12.973   6.537  0.00  0.00     0.045 A 
ATOM     23  F   UNL d   1      28.685 -15.199   5.954  0.00  0.00    -0.204 F 
ATOM     24  C   UNL d   1      27.897 -11.642   6.192  0.00  0.00     0.010 A 
ATOM     25  C   UNL d   1      27.931 -11.285   4.860  0.00  0.00    -0.060 A 
ATOM     26  C   UNL d   1      27.672  -9.899   4.347  0.00  0.00     0.048 C 
ATOM     27  C   UNL d   1      28.222 -12.268   3.911  0.00  0.00     0.039 A 
ENDBRANCH  18  20
ENDBRANCH  16  18
ENDBRANCH  14  16
ENDBRANCH  11  14
ENDBRANCH   1  10
TORSDOF 5
ENDMDL
MODEL 2
REMARK VINA RESULT:   -29.605      4.757      6.095
REMARK INTER + INTRA:         -32.911
REMARK INTER:                 -31.097
REMARK INTRA:                  -1.814
REMARK CONF_INDEPENDENT:        1.492
REMARK UNBOUND:                -1.814
REMARK  5 active torsions:
REMARK  status: ('A' for Active; 'I' for Inactive)
REMARK    1  A    between atoms: C_7  and  N_8 
REMARK    2  A    between atoms: N_8  and  C_9 
REMARK    3  A    between atoms: C_9  and  N_11 
REMARK    4  A    between atoms: N_11  and  N_12 
REMARK       I    between atoms: N_12  and  C_13 
REMARK    5  A    between atoms: C_13  and  C_15 
ROOT
ATOM      1  C   UNL d   1      25.015 -17.584  -0.151  0.00  0.00     0.126 C 
ATOM      2  C   UNL d   1      24.679 -18.932  -0.177  0.00  0.00     0.039 C 
ATOM      3  C   UNL d   1      23.330 -19.301  -0.142  0.00  0.00     0.027 C 
ATOM      4  C   UNL d   1      22.351 -18.348  -0.405  0.00  0.00     0.069 C 
ATOM      5  C   UNL d   1      20.999 -18.763  -0.649  0.00  0.00     0.101 C 
ATOM      6  N   UNL d   1      19.903 -19.075  -0.899  0.00  0.00    -0.191 NA
ATOM      7  C   UNL d   1      22.763 -17.016  -0.514  0.00  0.00     0.052 C 
ATOM      8  C   UNL d   1      21.781 -15.954  -0.948  0.00  0.00     0.072 C 
ATOM      9  N   UNL d   1      24.067 -16.610  -0.285  0.00  0.00    -0.247 NA
ENDROOT
BRANCH   1  10
ATOM     10  C   UNL d   1      26.484 -17.215   0.065  0.00  0.00     0.288 C 
ATOM     11  N   UNL d   1      27.432 -18.106  -0.402  0.00  0.00    -0.262 N 
ATOM     12  H   UNL d   1      27.165 -18.962  -0.896  0.00  0.00     0.190 HD
ATOM     13  O   UNL d   1      26.792 -16.129   0.553  0.00  0.00    -0.264 OA
BRANCH  11  14
ATOM     14  N   UNL d   1      28.884 -17.845  -0.372  0.00  0.00    -0.273 N 
ATOM     15  H   UNL d   1      29.435 -18.453   0.228  0.00  0.00     0.189 HD
BRANCH  14  16
ATOM     16  C   UNL d   1      29.372 -16.836  -1.222  0.00  0.00     0.191 C 
ATOM     17  S   UNL d   1      30.968 -17.057  -1.761  0.00  0.00    -0.039 SA
BRANCH  16  18
ATOM     18  N   UNL d   1      28.466 -15.777  -1.518  0.00  0.00    -0.330 N 
ATOM     19  H   UNL d   1      28.202 -15.136  -0.771  0.00  0.00     0.168 HD
BRANCH  18  20
ATOM     20  C   UNL d   1      27.835 -15.454  -2.797  0.00  0.00     0.073 A 
ATOM     21  C   UNL d   1      26.471 -15.141  -2.943  0.00  0.00     0.143 A 
ATOM     22  C   UNL d   1      25.910 -14.839  -4.211  0.00  0.00     0.045 A 
ATOM     23  F   UNL d   1      25.651 -15.117  -1.880  0.00  0.00    -0.204 F 
ATOM     24  C   UNL d   1      26.698 -14.841  -5.367  0.00  0.00     0.010 A 
ATOM     25  C   UNL d   1      28.039 -15.144  -5.254  0.00  0.00    -0.060 A 
ATOM     26  C   UNL d   1      28.999 -15.187  -6.407  0.00  0.00     0.048 C 
ATOM     27  C   UNL d   1      28.555 -15.436  -3.989  0.00  0.00     0.039 A 
ENDBRANCH  18  20
ENDBRANCH  16  18
ENDBRANCH  14  16
ENDBRANCH  11  14
ENDBRANCH   1  10
TORSDOF 5
ENDMDL
MODEL 3
REMARK VINA RESULT:   -29.508      4.377      5.808
REMARK INTER + INTRA:         -33.058
REMARK INTER:                 -30.999
REMARK INTRA:                  -2.059
REMARK CONF_INDEPENDENT:        1.492
REMARK UNBOUND:                -2.059
REMARK  5 active torsions:
REMARK  status: ('A' for Active; 'I' for Inactive)
REMARK    1  A    between atoms: C_7  and  N_8 
REMARK    2  A    between atoms: N_8  and  C_9 
REMARK    3  A    between atoms: C_9  and  N_11 
REMARK    4  A    between atoms: N_11  and  N_12 
REMARK       I    between atoms: N_12  and  C_13 
REMARK    5  A    between atoms: C_13  and  C_15 
ROOT
ATOM      1  C   UNL d   1      25.154 -17.651  -0.235  0.00  0.00     0.126 C 
ATOM      2  C   UNL d   1      24.662 -18.950  -0.189  0.00  0.00     0.039 C 
ATOM      3  C   UNL d   1      23.279 -19.156  -0.146  0.00  0.00     0.027 C 
ATOM      4  C   UNL d   1      22.419 -18.112  -0.472  0.00  0.00     0.069 C 
ATOM      5  C   UNL d   1      21.029 -18.379  -0.704  0.00  0.00     0.101 C 
ATOM      6  N   UNL d   1      19.905 -18.575  -0.946  0.00  0.00    -0.191 NA
ATOM      7  C   UNL d   1      22.985 -16.846  -0.651  0.00  0.00     0.052 C 
ATOM      8  C   UNL d   1      22.135 -15.703  -1.155  0.00  0.00     0.072 C 
ATOM      9  N   UNL d   1      24.327 -16.582  -0.433  0.00  0.00    -0.247 NA
ENDROOT
BRANCH   1  10
ATOM     10  C   UNL d   1      26.655 -17.444  -0.026  0.00  0.00     0.288 C 
ATOM     11  N   UNL d   1      27.063 -16.197   0.413  0.00  0.00    -0.262 N 
ATOM     12  H   UNL d   1      26.389 -15.454   0.616  0.00  0.00     0.190 HD
ATOM     13  O   UNL d   1      27.442 -18.379  -0.158  0.00  0.00    -0.264 OA
BRANCH  11  14
ATOM     14  N   UNL d   1      28.457 -15.873   0.769  0.00  0.00    -0.273 N 
ATOM     15  H   UNL d   1      28.631 -15.661   1.748  0.00  0.00     0.189 HD
BRANCH  14  16
ATOM     16  C   UNL d   1      29.417 -15.957  -0.256  0.00  0.00     0.191 C 
ATOM     17  S   UNL d   1      30.912 -15.230   0.095  0.00  0.00    -0.039 SA
BRANCH  16  18
ATOM     18  N   UNL d   1      29.011 -16.640  -1.437  0.00  0.00    -0.330 N 
ATOM     19  H   UNL d   1      29.109 -17.654  -1.474  0.00  0.00     0.168 HD
BRANCH  18  20
ATOM     20  C   UNL d   1      28.442 -16.077  -2.661  0.00  0.00     0.073 A 
ATOM     21  C   UNL d   1      29.109 -16.055  -3.900  0.00  0.00     0.143 A 
ATOM     22  C   UNL d   1      28.510 -15.491  -5.056  0.00  0.00     0.045 A 
ATOM     23  F   UNL d   1      30.342 -16.571  -4.029  0.00  0.00    -0.204 F 
ATOM     24  C   UNL d   1      27.227 -14.935  -5.005  0.00  0.00     0.010 A 
ATOM     25  C   UNL d   1      26.549 -14.944  -3.803  0.00  0.00    -0.060 A 
ATOM     26  C   UNL d   1      25.173 -14.380  -3.602  0.00  0.00     0.048 C 
ATOM     27  C   UNL d   1      27.172 -15.508  -2.687  0.00  0.00     0.039 A 
ENDBRANCH  18  20
ENDBRANCH  16  18
ENDBRANCH  14  16
ENDBRANCH  11  14
ENDBRANCH   1  10
TORSDOF 5
ENDMDL
MODEL 4
REMARK VINA RESULT:   -29.498      3.992      5.755
REMARK INTER + INTRA:         -32.802
REMARK INTER:                 -30.990
REMARK INTRA:                  -1.813
REMARK CONF_INDEPENDENT:        1.492
REMARK UNBOUND:                -1.813
REMARK  5 active torsions:
REMARK  status: ('A' for Active; 'I' for Inactive)
REMARK    1  A    between atoms: C_7  and  N_8 
REMARK    2  A    between atoms: N_8  and  C_9 
REMARK    3  A    between atoms: C_9  and  N_11 
REMARK    4  A    between atoms: N_11  and  N_12 
REMARK       I    between atoms: N_12  and  C_13 
REMARK    5  A    between atoms: C_13  and  C_15 
ROOT
ATOM      1  C   UNL d   1      25.137 -17.654  -0.205  0.00  0.00     0.126 C 
ATOM      2  C   UNL d   1      24.642 -18.952  -0.162  0.00  0.00     0.039 C 
ATOM      3  C   UNL d   1      23.258 -19.156  -0.151  0.00  0.00     0.027 C 
ATOM      4  C   UNL d   1      22.408 -18.113  -0.505  0.00  0.00     0.069 C 
ATOM      5  C   UNL d   1      21.023 -18.379  -0.770  0.00  0.00     0.101 C 
ATOM      6  N   UNL d   1      19.905 -18.575  -1.038  0.00  0.00    -0.191 NA
ATOM      7  C   UNL d   1      22.980 -16.849  -0.680  0.00  0.00     0.052 C 
ATOM      8  C   UNL d   1      22.145 -15.708  -1.212  0.00  0.00     0.072 C 
ATOM      9  N   UNL d   1      24.317 -16.586  -0.431  0.00  0.00    -0.247 NA
ENDROOT
BRANCH   1  10
ATOM     10  C   UNL d   1      26.633 -17.448   0.039  0.00  0.00     0.288 C 
ATOM     11  N   UNL d   1      27.091 -16.143   0.072  0.00  0.00    -0.262 N 
ATOM     12  H   UNL d   1      26.454 -15.349  -0.034  0.00  0.00     0.190 HD
ATOM     13  O   UNL d   1      27.366 -18.404   0.284  0.00  0.00    -0.264 OA
BRANCH  11  14
ATOM     14  N   UNL d   1      28.479 -15.774   0.408  0.00  0.00    -0.273 N 
ATOM     15  H   UNL d   1      28.892 -16.259   1.201  0.00  0.00     0.189 HD
BRANCH  14  16
ATOM     16  C   UNL d   1      29.119 -14.848  -0.436  0.00  0.00     0.191 C 
ATOM     17  S   UNL d   1      30.814 -14.831  -0.334  0.00  0.00    -0.039 SA
BRANCH  16  18
ATOM     18  N   UNL d   1      28.265 -14.061  -1.260  0.00  0.00    -0.330 N 
ATOM     19  H   UNL d   1      28.063 -13.102  -0.980  0.00  0.00     0.168 HD
BRANCH  18  20
ATOM     20  C   UNL d   1      27.608 -14.441  -2.510  0.00  0.00     0.073 A 
ATOM     21  C   UNL d   1      26.220 -14.626  -2.645  0.00  0.00     0.143 A 
ATOM     22  C   UNL d   1      25.636 -14.998  -3.883  0.00  0.00     0.045 A 
ATOM     23  F   UNL d   1      25.396 -14.454  -1.597  0.00  0.00    -0.204 F 
ATOM     24  C   UNL d   1      26.425 -15.195  -5.021  0.00  0.00     0.010 A 
ATOM     25  C   UNL d   1      27.789 -15.019  -4.920  0.00  0.00    -0.060 A 
ATOM     26  C   UNL d   1      28.755 -15.200  -6.055  0.00  0.00     0.048 C 
ATOM     27  C   UNL d   1      28.327 -14.653  -3.684  0.00  0.00     0.039 A 
ENDBRANCH  18  20
ENDBRANCH  16  18
ENDBRANCH  14  16
ENDBRANCH  11  14
ENDBRANCH   1  10
TORSDOF 5
ENDMDL
MODEL 5
REMARK VINA RESULT:   -29.272      3.363      5.143
REMARK INTER + INTRA:         -32.772
REMARK INTER:                 -30.763
REMARK INTRA:                  -2.009
REMARK CONF_INDEPENDENT:        1.492
REMARK UNBOUND:                -2.009
REMARK  5 active torsions:
REMARK  status: ('A' for Active; 'I' for Inactive)
REMARK    1  A    between atoms: C_7  and  N_8 
REMARK    2  A    between atoms: N_8  and  C_9 
REMARK    3  A    between atoms: C_9  and  N_11 
REMARK    4  A    between atoms: N_11  and  N_12 
REMARK       I    between atoms: N_12  and  C_13 
REMARK    5  A    between atoms: C_13  and  C_15 
ROOT
ATOM      1  C   UNL d   1      25.135 -17.617  -0.216  0.00  0.00     0.126 C 
ATOM      2  C   UNL d   1      24.648 -18.919  -0.166  0.00  0.00     0.039 C 
ATOM      3  C   UNL d   1      23.265 -19.131  -0.149  0.00  0.00     0.027 C 
ATOM      4  C   UNL d   1      22.407 -18.095  -0.502  0.00  0.00     0.069 C 
ATOM      5  C   UNL d   1      21.023 -18.371  -0.759  0.00  0.00     0.101 C 
ATOM      6  N   UNL d   1      19.905 -18.575  -1.022  0.00  0.00    -0.191 NA
ATOM      7  C   UNL d   1      22.971 -16.827  -0.682  0.00  0.00     0.052 C 
ATOM      8  C   UNL d   1      22.125 -15.694  -1.214  0.00  0.00     0.072 C 
ATOM      9  N   UNL d   1      24.307 -16.555  -0.441  0.00  0.00    -0.247 NA
ENDROOT
BRANCH   1  10
ATOM     10  C   UNL d   1      26.630 -17.401   0.021  0.00  0.00     0.288 C 
ATOM     11  N   UNL d   1      27.029 -16.133   0.405  0.00  0.00    -0.262 N 
ATOM     12  H   UNL d   1      26.352 -15.381   0.553  0.00  0.00     0.190 HD
ATOM     13  O   UNL d   1      27.418 -18.342  -0.042  0.00  0.00    -0.264 OA
BRANCH  11  14
ATOM     14  N   UNL d   1      28.415 -15.792   0.780  0.00  0.00    -0.273 N 
ATOM     15  H   UNL d   1      29.028 -16.576   0.989  0.00  0.00     0.189 HD
BRANCH  14  16
ATOM     16  C   UNL d   1      28.773 -14.433   0.743  0.00  0.00     0.191 C 
ATOM     17  S   UNL d   1      29.568 -13.858   2.131  0.00  0.00    -0.039 SA
BRANCH  16  18
ATOM     18  N   UNL d   1      28.428 -13.728  -0.445  0.00  0.00    -0.330 N 
ATOM     19  H   UNL d   1      28.589 -12.722  -0.482  0.00  0.00     0.168 HD
BRANCH  18  20
ATOM     20  C   UNL d   1      27.857 -14.260  -1.682  0.00  0.00     0.073 A 
ATOM     21  C   UNL d   1      28.563 -15.071  -2.589  0.00  0.00     0.143 A 
ATOM     22  C   UNL d   1      27.959 -15.556  -3.778  0.00  0.00     0.045 A 
ATOM     23  F   UNL d   1      29.840 -15.415  -2.357  0.00  0.00    -0.204 F 
ATOM     24  C   UNL d   1      26.632 -15.244  -4.092  0.00  0.00     0.010 A 
ATOM     25  C   UNL d   1      25.915 -14.451  -3.220  0.00  0.00    -0.060 A 
ATOM     26  C   UNL d   1      24.488 -14.034  -3.430  0.00  0.00     0.048 C 
ATOM     27  C   UNL d   1      26.544 -13.993  -2.060  0.00  0.00     0.039 A 
ENDBRANCH  18  20
ENDBRANCH  16  18
ENDBRANCH  14  16
ENDBRANCH  11  14
ENDBRANCH   1  10
TORSDOF 5
ENDMDL
MODEL 6
REMARK VINA RESULT:   -29.197      1.799      2.511
REMARK INTER + INTRA:         -32.331
REMARK INTER:                 -30.688
REMARK INTRA:                  -1.643
REMARK CONF_INDEPENDENT:        1.492
REMARK UNBOUND:                -1.643
REMARK  5 active torsions:
REMARK  status: ('A' for Active; 'I' for Inactive)
REMARK    1  A    between atoms: C_7  and  N_8 
REMARK    2  A    between atoms: N_8  and  C_9 
REMARK    3  A    between atoms: C_9  and  N_11 
REMARK    4  A    between atoms: N_11  and  N_12 
REMARK       I    between atoms: N_12  and  C_13 
REMARK    5  A    between atoms: C_13  and  C_15 
ROOT
ATOM      1  C   UNL d   1      25.162 -17.645  -0.300  0.00  0.00     0.126 C 
ATOM      2  C   UNL d   1      24.671 -18.943  -0.225  0.00  0.00     0.039 C 
ATOM      3  C   UNL d   1      23.289 -19.148  -0.155  0.00  0.00     0.027 C 
ATOM      4  C   UNL d   1      22.423 -18.110  -0.482  0.00  0.00     0.069 C 
ATOM      5  C   UNL d   1      21.029 -18.380  -0.687  0.00  0.00     0.101 C 
ATOM      6  N   UNL d   1      19.901 -18.580  -0.906  0.00  0.00    -0.191 NA
ATOM      7  C   UNL d   1      22.986 -16.846  -0.691  0.00  0.00     0.052 C 
ATOM      8  C   UNL d   1      22.127 -15.712  -1.197  0.00  0.00     0.072 C 
ATOM      9  N   UNL d   1      24.331 -16.579  -0.500  0.00  0.00    -0.247 NA
ENDROOT
BRANCH   1  10
ATOM     10  C   UNL d   1      26.666 -17.435  -0.120  0.00  0.00     0.288 C 
ATOM     11  N   UNL d   1      27.364 -16.926  -1.200  0.00  0.00    -0.262 N 
ATOM     12  H   UNL d   1      26.892 -16.674  -2.072  0.00  0.00     0.190 HD
ATOM     13  O   UNL d   1      27.200 -17.627   0.971  0.00  0.00    -0.264 OA
BRANCH  11  14
ATOM     14  N   UNL d   1      28.793 -16.562  -1.150  0.00  0.00    -0.273 N 
ATOM     15  H   UNL d   1      29.419 -17.129  -1.716  0.00  0.00     0.189 HD
BRANCH  14  16
ATOM     16  C   UNL d   1      29.140 -15.431  -0.390  0.00  0.00     0.191 C 
ATOM     17  S   UNL d   1      29.908 -14.187  -1.257  0.00  0.00    -0.039 SA
BRANCH  16  18
ATOM     18  N   UNL d   1      28.799 -15.478   0.991  0.00  0.00    -0.330 N 
ATOM     19  H   UNL d   1      28.888 -16.364   1.487  0.00  0.00     0.168 HD
BRANCH  18  20
ATOM     20  C   UNL d   1      28.322 -14.392   1.846  0.00  0.00     0.073 A 
ATOM     21  C   UNL d   1      27.697 -13.227   1.363  0.00  0.00     0.143 A 
ATOM     22  C   UNL d   1      27.258 -12.202   2.240  0.00  0.00     0.045 A 
ATOM     23  F   UNL d   1      27.494 -13.048   0.048  0.00  0.00    -0.204 F 
ATOM     24  C   UNL d   1      27.430 -12.313   3.624  0.00  0.00     0.010 A 
ATOM     25  C   UNL d   1      28.039 -13.444   4.126  0.00  0.00    -0.060 A 
ATOM     26  C   UNL d   1      28.293 -13.695   5.584  0.00  0.00     0.048 C 
ATOM     27  C   UNL d   1      28.459 -14.432   3.231  0.00  0.00     0.039 A 
ENDBRANCH  18  20
ENDBRANCH  16  18
ENDBRANCH  14  16
ENDBRANCH  11  14
ENDBRANCH   1  10
TORSDOF 5
ENDMDL
MODEL 7
REMARK VINA RESULT:   -29.096      4.184      6.219
REMARK INTER + INTRA:         -32.306
REMARK INTER:                 -30.588
REMARK INTRA:                  -1.719
REMARK CONF_INDEPENDENT:        1.492
REMARK UNBOUND:                -1.719
REMARK  5 active torsions:
REMARK  status: ('A' for Active; 'I' for Inactive)
REMARK    1  A    between atoms: C_7  and  N_8 
REMARK    2  A    between atoms: N_8  and  C_9 
REMARK    3  A    between atoms: C_9  and  N_11 
REMARK    4  A    between atoms: N_11  and  N_12 
REMARK       I    between atoms: N_12  and  C_13 
REMARK    5  A    between atoms: C_13  and  C_15 
ROOT
ATOM      1  C   UNL d   1      25.137 -17.656  -0.192  0.00  0.00     0.126 C 
ATOM      2  C   UNL d   1      24.647 -18.957  -0.183  0.00  0.00     0.039 C 
ATOM      3  C   UNL d   1      23.263 -19.167  -0.173  0.00  0.00     0.027 C 
ATOM      4  C   UNL d   1      22.408 -18.117  -0.494  0.00  0.00     0.069 C 
ATOM      5  C   UNL d   1      21.024 -18.382  -0.761  0.00  0.00     0.101 C 
ATOM      6  N   UNL d   1      19.905 -18.575  -1.031  0.00  0.00    -0.191 NA
ATOM      7  C   UNL d   1      22.975 -16.847  -0.635  0.00  0.00     0.052 C 
ATOM      8  C   UNL d   1      22.133 -15.695  -1.130  0.00  0.00     0.072 C 
ATOM      9  N   UNL d   1      24.311 -16.585  -0.383  0.00  0.00    -0.247 NA
ENDROOT
BRANCH   1  10
ATOM     10  C   UNL d   1      26.632 -17.451   0.053  0.00  0.00     0.288 C 
ATOM     11  N   UNL d   1      27.039 -16.187   0.439  0.00  0.00    -0.262 N 
ATOM     12  H   UNL d   1      26.367 -15.429   0.582  0.00  0.00     0.190 HD
ATOM     13  O   UNL d   1      27.413 -18.399  -0.006  0.00  0.00    -0.264 OA
BRANCH  11  14
ATOM     14  N   UNL d   1      28.425 -15.856   0.821  0.00  0.00    -0.273 N 
ATOM     15  H   UNL d   1      28.572 -15.599   1.794  0.00  0.00     0.189 HD
BRANCH  14  16
ATOM     16  C   UNL d   1      29.414 -15.996  -0.169  0.00  0.00     0.191 C 
ATOM     17  S   UNL d   1      30.048 -14.538  -0.768  0.00  0.00    -0.039 SA
BRANCH  16  18
ATOM     18  N   UNL d   1      29.752 -17.332  -0.529  0.00  0.00    -0.330 N 
ATOM     19  H   UNL d   1      29.627 -18.072   0.162  0.00  0.00     0.168 HD
BRANCH  18  20
ATOM     20  C   UNL d   1      30.271 -17.825  -1.804  0.00  0.00     0.073 A 
ATOM     21  C   UNL d   1      31.025 -19.005  -1.943  0.00  0.00     0.143 A 
ATOM     22  C   UNL d   1      31.507 -19.434  -3.206  0.00  0.00     0.045 A 
ATOM     23  F   UNL d   1      31.314 -19.768  -0.876  0.00  0.00    -0.204 F 
ATOM     24  C   UNL d   1      31.248 -18.696  -4.366  0.00  0.00     0.010 A 
ATOM     25  C   UNL d   1      30.510 -17.535  -4.260  0.00  0.00    -0.060 A 
ATOM     26  C   UNL d   1      30.161 -16.644  -5.416  0.00  0.00     0.048 C 
ATOM     27  C   UNL d   1      30.053 -17.145  -2.999  0.00  0.00     0.039 A 
ENDBRANCH  18  20
ENDBRANCH  16  18
ENDBRANCH  14  16
ENDBRANCH  11  14
ENDBRANCH   1  10
TORSDOF 5
ENDMDL
MODEL 8
REMARK VINA RESULT:   -28.408      4.384      6.572
REMARK INTER + INTRA:         -31.719
REMARK INTER:                 -29.899
REMARK INTRA:                  -1.820
REMARK CONF_INDEPENDENT:        1.492
REMARK UNBOUND:                -1.820
REMARK  5 active torsions:
REMARK  status: ('A' for Active; 'I' for Inactive)
REMARK    1  A    between atoms: C_7  and  N_8 
REMARK    2  A    between atoms: N_8  and  C_9 
REMARK    3  A    between atoms: C_9  and  N_11 
REMARK    4  A    between atoms: N_11  and  N_12 
REMARK       I    between atoms: N_12  and  C_13 
REMARK    5  A    between atoms: C_13  and  C_15 
ROOT
ATOM      1  C   UNL d   1      25.126 -17.686  -0.255  0.00  0.00     0.126 C 
ATOM      2  C   UNL d   1      24.635 -18.986  -0.200  0.00  0.00     0.039 C 
ATOM      3  C   UNL d   1      23.252 -19.193  -0.153  0.00  0.00     0.027 C 
ATOM      4  C   UNL d   1      22.391 -18.152  -0.483  0.00  0.00     0.069 C 
ATOM      5  C   UNL d   1      21.000 -18.422  -0.712  0.00  0.00     0.101 C 
ATOM      6  N   UNL d   1      19.876 -18.620  -0.951  0.00  0.00    -0.191 NA
ATOM      7  C   UNL d   1      22.955 -16.886  -0.671  0.00  0.00     0.052 C 
ATOM      8  C   UNL d   1      22.103 -15.747  -1.179  0.00  0.00     0.072 C 
ATOM      9  N   UNL d   1      24.297 -16.620  -0.457  0.00  0.00    -0.247 NA
ENDROOT
BRANCH   1  10
ATOM     10  C   UNL d   1      26.627 -17.477  -0.049  0.00  0.00     0.288 C 
ATOM     11  N   UNL d   1      27.057 -16.180   0.168  0.00  0.00    -0.262 N 
ATOM     12  H   UNL d   1      26.398 -15.399   0.217  0.00  0.00     0.190 HD
ATOM     13  O   UNL d   1      27.392 -18.437   0.009  0.00  0.00    -0.264 OA
BRANCH  11  14
ATOM     14  N   UNL d   1      28.451 -15.827   0.494  0.00  0.00    -0.273 N 
ATOM     15  H   UNL d   1      28.664 -15.709   1.481  0.00  0.00     0.189 HD
BRANCH  14  16
ATOM     16  C   UNL d   1      29.363 -15.758  -0.576  0.00  0.00     0.191 C 
ATOM     17  S   UNL d   1      30.496 -14.496  -0.477  0.00  0.00    -0.039 SA
BRANCH  16  18
ATOM     18  N   UNL d   1      29.216 -16.751  -1.586  0.00  0.00    -0.330 N 
ATOM     19  H   UNL d   1      28.677 -17.589  -1.373  0.00  0.00     0.168 HD
BRANCH  18  20
ATOM     20  C   UNL d   1      29.745 -16.744  -2.949  0.00  0.00     0.073 A 
ATOM     21  C   UNL d   1      29.313 -15.861  -3.956  0.00  0.00     0.143 A 
ATOM     22  C   UNL d   1      29.859 -15.902  -5.264  0.00  0.00     0.045 A 
ATOM     23  F   UNL d   1      28.363 -14.944  -3.708  0.00  0.00    -0.204 F 
ATOM     24  C   UNL d   1      30.854 -16.825  -5.602  0.00  0.00     0.010 A 
ATOM     25  C   UNL d   1      31.298 -17.703  -4.635  0.00  0.00    -0.060 A 
ATOM     26  C   UNL d   1      32.354 -18.746  -4.857  0.00  0.00     0.048 C 
ATOM     27  C   UNL d   1      30.736 -17.632  -3.358  0.00  0.00     0.039 A 
ENDBRANCH  18  20
ENDBRANCH  16  18
ENDBRANCH  14  16
ENDBRANCH  11  14
ENDBRANCH   1  10
TORSDOF 5
ENDMDL
MODEL 9
REMARK VINA RESULT:   -28.337      4.616      6.513
REMARK INTER + INTRA:         -31.744
REMARK INTER:                 -29.829
REMARK INTRA:                  -1.915
REMARK CONF_INDEPENDENT:        1.492
REMARK UNBOUND:                -1.915
REMARK  5 active torsions:
REMARK  status: ('A' for Active; 'I' for Inactive)
REMARK    1  A    between atoms: C_7  and  N_8 
REMARK    2  A    between atoms: N_8  and  C_9 
REMARK    3  A    between atoms: C_9  and  N_11 
REMARK    4  A    between atoms: N_11  and  N_12 
REMARK       I    between atoms: N_12  and  C_13 
REMARK    5  A    between atoms: C_13  and  C_15 
ROOT
ATOM      1  C   UNL d   1      24.921 -16.825  -0.347  0.00  0.00     0.126 C 
ATOM      2  C   UNL d   1      23.874 -15.926  -0.517  0.00  0.00     0.039 C 
ATOM      3  C   UNL d   1      22.615 -16.407  -0.895  0.00  0.00     0.027 C 
ATOM      4  C   UNL d   1      22.337 -17.765  -0.783  0.00  0.00     0.069 C 
ATOM      5  C   UNL d   1      20.984 -18.227  -0.895  0.00  0.00     0.101 C 
ATOM      6  N   UNL d   1      19.888 -18.625  -0.934  0.00  0.00    -0.191 NA
ATOM      7  C   UNL d   1      23.402 -18.615  -0.466  0.00  0.00     0.052 C 
ATOM      8  C   UNL d   1      23.143 -20.075  -0.178  0.00  0.00     0.072 C 
ATOM      9  N   UNL d   1      24.710 -18.174  -0.351  0.00  0.00    -0.247 NA
ENDROOT
BRANCH   1  10
ATOM     10  C   UNL d   1      26.333 -16.260  -0.185  0.00  0.00     0.288 C 
ATOM     11  N   UNL d   1      27.354 -17.168   0.026  0.00  0.00    -0.262 N 
ATOM     12  H   UNL d   1      27.178 -18.176   0.046  0.00  0.00     0.190 HD
ATOM     13  O   UNL d   1      26.548 -15.058  -0.330  0.00  0.00    -0.264 OA
BRANCH  11  14
ATOM     14  N   UNL d   1      28.779 -16.795   0.089  0.00  0.00    -0.273 N 
ATOM     15  H   UNL d   1      29.247 -16.961   0.977  0.00  0.00     0.189 HD
BRANCH  14  16
ATOM     16  C   UNL d   1      29.370 -16.315  -1.094  0.00  0.00     0.191 C 
ATOM     17  S   UNL d   1      30.805 -17.099  -1.553  0.00  0.00    -0.039 SA
BRANCH  16  18
ATOM     18  N   UNL d   1      28.686 -15.249  -1.745  0.00  0.00    -0.330 N 
ATOM     19  H   UNL d   1      28.327 -14.480  -1.179  0.00  0.00     0.168 HD
BRANCH  18  20
ATOM     20  C   UNL d   1      28.415 -15.081  -3.172  0.00  0.00     0.073 A 
ATOM     21  C   UNL d   1      27.320 -14.362  -3.685  0.00  0.00     0.143 A 
ATOM     22  C   UNL d   1      27.104 -14.235  -5.081  0.00  0.00     0.045 A 
ATOM     23  F   UNL d   1      26.439 -13.769  -2.864  0.00  0.00    -0.204 F 
ATOM     24  C   UNL d   1      27.977 -14.822  -6.003  0.00  0.00     0.010 A 
ATOM     25  C   UNL d   1      29.060 -15.533  -5.528  0.00  0.00    -0.060 A 
ATOM     26  C   UNL d   1      30.074 -16.217  -6.399  0.00  0.00     0.048 C 
ATOM     27  C   UNL d   1      29.240 -15.636  -4.147  0.00  0.00     0.039 A 
ENDBRANCH  18  20
ENDBRANCH  16  18
ENDBRANCH  14  16
ENDBRANCH  11  14
ENDBRANCH   1  10
TORSDOF 5
ENDMDL
