MODEL 1
REMARK VINA RESULT:    -8.399      0.000      0.000
REMARK INTER + INTRA:         -17.750
REMARK INTER:                 -11.979
REMARK INTRA:                  -5.771
REMARK CONF_INDEPENDENT:        3.580
REMARK UNBOUND:                -5.771
REMARK  12 active torsions:
REMARK  status: ('A' for Active; 'I' for Inactive)
REMARK    1  A    between atoms: C_2  and  C_3 
REMARK    2  A    between atoms: C_3  and  C_4 
REMARK    3  A    between atoms: C_5  and  C_6 
REMARK    4  A    between atoms: C_6  and  C_7 
REMARK    5  A    between atoms: C_6  and  N_21 
REMARK       I    between atoms: C_7  and  N_9 
REMARK    6  A    between atoms: N_9  and  C_10 
REMARK    7  A    between atoms: C_10  and  S_11 
REMARK    8  A    between atoms: S_11  and  C_14 
REMARK       I    between atoms: N_21  and  C_22 
REMARK    9  A    between atoms: N_21  and  C_32 
REMARK   10  A    between atoms: C_22  and  C_24 
REMARK   11  A    between atoms: C_28  and  O_29 
REMARK   12  A    between atoms: C_30  and  O_31 
ROOT
ATOM      1  C   UNL d   1      26.656 -16.381   0.465  0.00  0.00     0.208 C 
ENDROOT
BRANCH   1   2
ATOM      2  C   UNL d   1      25.444 -16.745  -0.383  0.00  0.00     0.004 C 
ATOM      3  C   UNL d   1      24.656 -17.818  -0.205  0.00  0.00    -0.028 C 
BRANCH   3   4
ATOM      4  C   UNL d   1      23.418 -18.025  -1.012  0.00  0.00     0.026 C 
BRANCH   4   5
ATOM      5  C   UNL d   1      22.302 -18.532  -0.111  0.00  0.00    -0.001 C 
ATOM      6  C   UNL d   1      21.106 -18.948  -0.939  0.00  0.00     0.005 C 
ENDBRANCH   4   5
ENDBRANCH   3   4
ENDBRANCH   1   2
BRANCH   1   7
ATOM      7  C   UNL d   1      27.601 -17.559   0.118  0.00  0.00     0.245 C 
ATOM      8  O   UNL d   1      27.405 -18.734   0.429  0.00  0.00    -0.271 OA
ATOM      9  N   UNL d   1      28.746 -17.199  -0.569  0.00  0.00    -0.345 N 
ATOM     10  H   UNL d   1      29.063 -16.238  -0.553  0.00  0.00     0.163 HD
BRANCH   9  11
ATOM     11  C   UNL d   1      29.750 -18.200  -0.893  0.00  0.00     0.268 C 
BRANCH  11  12
ATOM     12  S   UNL d   1      31.123 -17.598  -1.883  0.00  0.00     0.192 S 
ATOM     13  O   UNL d   1      30.953 -16.155  -2.005  0.00  0.00    -0.221 OA
ATOM     14  O   UNL d   1      32.350 -18.135  -1.335  0.00  0.00    -0.221 OA
BRANCH  12  15
ATOM     15  C   UNL d   1      30.921 -18.307  -3.495  0.00  0.00     0.060 A 
ATOM     16  C   UNL d   1      30.615 -17.479  -4.578  0.00  0.00     0.024 A 
ATOM     17  C   UNL d   1      30.566 -18.016  -5.865  0.00  0.00     0.008 A 
ATOM     18  C   UNL d   1      30.812 -19.378  -6.078  0.00  0.00    -0.062 A 
ATOM     19  C   UNL d   1      30.780 -19.956  -7.464  0.00  0.00     0.048 C 
ATOM     20  C   UNL d   1      31.100 -20.201  -4.979  0.00  0.00     0.008 A 
ATOM     21  C   UNL d   1      31.156 -19.670  -3.687  0.00  0.00     0.024 A 
ENDBRANCH  12  15
ENDBRANCH  11  12
ENDBRANCH   9  11
ENDBRANCH   1   7
BRANCH   1  22
ATOM     22  N   UNL d   1      27.145 -14.977   0.263  0.00  0.00    -0.296 N 
ATOM     23  C   UNL d   1      27.669 -14.489  -0.956  0.00  0.00     0.262 C 
ATOM     24  O   UNL d   1      28.771 -13.932  -1.009  0.00  0.00    -0.267 OA
BRANCH  23  25
ATOM     25  C   UNL d   1      26.907 -14.615  -2.251  0.00  0.00     0.068 C 
ATOM     26  C   UNL d   1      25.597 -14.094  -2.315  0.00  0.00     0.020 C 
ATOM     27  C   UNL d   1      24.875 -14.099  -3.520  0.00  0.00     0.004 C 
ATOM     28  C   UNL d   1      25.474 -14.547  -4.697  0.00  0.00     0.039 C 
ATOM     29  C   UNL d   1      26.765 -15.044  -4.640  0.00  0.00     0.099 C 
ATOM     30  C   UNL d   1      27.434 -15.165  -3.421  0.00  0.00     0.114 C 
BRANCH  29  31
ATOM     31  O   UNL d   1      27.463 -15.412  -5.760  0.00  0.00    -0.358 OA
ATOM     32  H   UNL d   1      28.413 -15.426  -5.550  0.00  0.00     0.217 HD
ENDBRANCH  29  31
BRANCH  30  33
ATOM     33  O   UNL d   1      28.647 -15.798  -3.457  0.00  0.00    -0.357 OA
ATOM     34  H   UNL d   1      29.061 -15.574  -2.599  0.00  0.00     0.217 HD
ENDBRANCH  30  33
ENDBRANCH  23  25
BRANCH  22  35
ATOM     35  C   UNL d   1      27.223 -14.081   1.406  0.00  0.00     0.038 A 
ATOM     36  C   UNL d   1      26.735 -12.765   1.308  0.00  0.00     0.030 A 
ATOM     37  C   UNL d   1      26.915 -11.838   2.348  0.00  0.00     0.002 A 
ATOM     38  C   UNL d   1      27.559 -12.212   3.522  0.00  0.00     0.000 A 
ATOM     39  C   UNL d   1      27.999 -13.516   3.662  0.00  0.00     0.002 A 
ATOM     40  C   UNL d   1      27.786 -14.440   2.635  0.00  0.00     0.030 A 
ENDBRANCH  22  35
ENDBRANCH   1  22
TORSDOF 12
ENDMDL
MODEL 2
REMARK VINA RESULT:    -7.960      1.668      4.252
REMARK INTER + INTRA:         -17.713
REMARK INTER:                 -11.540
REMARK INTRA:                  -6.173
REMARK CONF_INDEPENDENT:        3.580
REMARK UNBOUND:                -6.173
REMARK  12 active torsions:
REMARK  status: ('A' for Active; 'I' for Inactive)
REMARK    1  A    between atoms: C_2  and  C_3 
REMARK    2  A    between atoms: C_3  and  C_4 
REMARK    3  A    between atoms: C_5  and  C_6 
REMARK    4  A    between atoms: C_6  and  C_7 
REMARK    5  A    between atoms: C_6  and  N_21 
REMARK       I    between atoms: C_7  and  N_9 
REMARK    6  A    between atoms: N_9  and  C_10 
REMARK    7  A    between atoms: C_10  and  S_11 
REMARK    8  A    between atoms: S_11  and  C_14 
REMARK       I    between atoms: N_21  and  C_22 
REMARK    9  A    between atoms: N_21  and  C_32 
REMARK   10  A    between atoms: C_22  and  C_24 
REMARK   11  A    between atoms: C_28  and  O_29 
REMARK   12  A    between atoms: C_30  and  O_31 
ROOT
ATOM      1  C   UNL d   1      26.918 -14.255  -1.249  0.00  0.00     0.208 C 
ENDROOT
BRANCH   1   2
ATOM      2  C   UNL d   1      26.749 -14.259   0.266  0.00  0.00     0.004 C 
ATOM      3  C   UNL d   1      27.310 -13.386   1.119  0.00  0.00    -0.028 C 
BRANCH   3   4
ATOM      4  C   UNL d   1      26.987 -13.396   2.576  0.00  0.00     0.026 C 
BRANCH   4   5
ATOM      5  C   UNL d   1      28.262 -13.609   3.378  0.00  0.00    -0.001 C 
ATOM      6  C   UNL d   1      27.990 -14.496   4.573  0.00  0.00     0.005 C 
ENDBRANCH   4   5
ENDBRANCH   3   4
ENDBRANCH   1   2
BRANCH   1   7
ATOM      7  C   UNL d   1      28.314 -14.913  -1.373  0.00  0.00     0.245 C 
ATOM      8  O   UNL d   1      29.356 -14.446  -0.913  0.00  0.00    -0.271 OA
ATOM      9  N   UNL d   1      28.336 -16.096  -2.088  0.00  0.00    -0.345 N 
ATOM     10  H   UNL d   1      27.575 -16.319  -2.718  0.00  0.00     0.163 HD
BRANCH   9  11
ATOM     11  C   UNL d   1      29.596 -16.778  -2.339  0.00  0.00     0.268 C 
BRANCH  11  12
ATOM     12  S   UNL d   1      30.550 -16.118  -3.711  0.00  0.00     0.192 S 
ATOM     13  O   UNL d   1      29.805 -14.978  -4.233  0.00  0.00    -0.221 OA
ATOM     14  O   UNL d   1      31.918 -15.945  -3.273  0.00  0.00    -0.221 OA
BRANCH  12  15
ATOM     15  C   UNL d   1      30.560 -17.377  -4.958  0.00  0.00     0.060 A 
ATOM     16  C   UNL d   1      30.783 -17.023  -6.292  0.00  0.00     0.024 A 
ATOM     17  C   UNL d   1      30.903 -18.021  -7.260  0.00  0.00     0.008 A 
ATOM     18  C   UNL d   1      30.795 -19.372  -6.907  0.00  0.00    -0.062 A 
ATOM     19  C   UNL d   1      30.944 -20.449  -7.942  0.00  0.00     0.048 C 
ATOM     20  C   UNL d   1      30.553 -19.711  -5.568  0.00  0.00     0.008 A 
ATOM     21  C   UNL d   1      30.436 -18.719  -4.591  0.00  0.00     0.024 A 
ENDBRANCH  12  15
ENDBRANCH  11  12
ENDBRANCH   9  11
ENDBRANCH   1   7
BRANCH   1  22
ATOM     22  N   UNL d   1      25.763 -14.859  -1.994  0.00  0.00    -0.296 N 
ATOM     23  C   UNL d   1      25.137 -14.253  -3.107  0.00  0.00     0.262 C 
ATOM     24  O   UNL d   1      23.915 -14.075  -3.144  0.00  0.00    -0.267 OA
BRANCH  23  25
ATOM     25  C   UNL d   1      25.926 -13.802  -4.310  0.00  0.00     0.068 C 
ATOM     26  C   UNL d   1      25.797 -12.463  -4.737  0.00  0.00     0.020 C 
ATOM     27  C   UNL d   1      26.576 -11.962  -5.793  0.00  0.00     0.004 C 
ATOM     28  C   UNL d   1      27.552 -12.761  -6.387  0.00  0.00     0.039 C 
ATOM     29  C   UNL d   1      27.692 -14.071  -5.959  0.00  0.00     0.099 C 
ATOM     30  C   UNL d   1      26.829 -14.610  -5.004  0.00  0.00     0.114 C 
BRANCH  29  31
ATOM     31  O   UNL d   1      28.688 -14.893  -6.417  0.00  0.00    -0.358 OA
ATOM     32  H   UNL d   1      28.857 -15.585  -5.754  0.00  0.00     0.217 HD
ENDBRANCH  29  31
BRANCH  30  33
ATOM     33  O   UNL d   1      26.961 -15.950  -4.757  0.00  0.00    -0.357 OA
ATOM     34  H   UNL d   1      27.928 -16.097  -4.742  0.00  0.00     0.217 HD
ENDBRANCH  30  33
ENDBRANCH  23  25
BRANCH  22  35
ATOM     35  C   UNL d   1      25.143 -16.071  -1.482  0.00  0.00     0.038 A 
ATOM     36  C   UNL d   1      23.743 -16.154  -1.369  0.00  0.00     0.030 A 
ATOM     37  C   UNL d   1      23.123 -17.257  -0.757  0.00  0.00     0.002 A 
ATOM     38  C   UNL d   1      23.885 -18.314  -0.270  0.00  0.00     0.000 A 
ATOM     39  C   UNL d   1      25.259 -18.277  -0.418  0.00  0.00     0.002 A 
ATOM     40  C   UNL d   1      25.865 -17.192  -1.059  0.00  0.00     0.030 A 
ENDBRANCH  22  35
ENDBRANCH   1  22
TORSDOF 12
ENDMDL
MODEL 3
REMARK VINA RESULT:    -7.618      1.301      4.098
REMARK INTER + INTRA:         -17.976
REMARK INTER:                 -11.197
REMARK INTRA:                  -6.779
REMARK CONF_INDEPENDENT:        3.580
REMARK UNBOUND:                -6.779
REMARK  12 active torsions:
REMARK  status: ('A' for Active; 'I' for Inactive)
REMARK    1  A    between atoms: C_2  and  C_3 
REMARK    2  A    between atoms: C_3  and  C_4 
REMARK    3  A    between atoms: C_5  and  C_6 
REMARK    4  A    between atoms: C_6  and  C_7 
REMARK    5  A    between atoms: C_6  and  N_21 
REMARK       I    between atoms: C_7  and  N_9 
REMARK    6  A    between atoms: N_9  and  C_10 
REMARK    7  A    between atoms: C_10  and  S_11 
REMARK    8  A    between atoms: S_11  and  C_14 
REMARK       I    between atoms: N_21  and  C_22 
REMARK    9  A    between atoms: N_21  and  C_32 
REMARK   10  A    between atoms: C_22  and  C_24 
REMARK   11  A    between atoms: C_28  and  O_29 
REMARK   12  A    between atoms: C_30  and  O_31 
ROOT
ATOM      1  C   UNL d   1      26.276 -16.627  -0.146  0.00  0.00     0.208 C 
ENDROOT
BRANCH   1   2
ATOM      2  C   UNL d   1      25.170 -17.410  -0.842  0.00  0.00     0.004 C 
ATOM      3  C   UNL d   1      24.000 -17.774  -0.291  0.00  0.00    -0.028 C 
BRANCH   3   4
ATOM      4  C   UNL d   1      22.927 -18.435  -1.091  0.00  0.00     0.026 C 
BRANCH   4   5
ATOM      5  C   UNL d   1      21.836 -18.940  -0.160  0.00  0.00    -0.001 C 
ATOM      6  C   UNL d   1      20.516 -19.025  -0.893  0.00  0.00     0.005 C 
ENDBRANCH   4   5
ENDBRANCH   3   4
ENDBRANCH   1   2
BRANCH   1   7
ATOM      7  C   UNL d   1      27.410 -17.681  -0.154  0.00  0.00     0.245 C 
ATOM      8  O   UNL d   1      27.331 -18.804   0.347  0.00  0.00    -0.271 OA
ATOM      9  N   UNL d   1      28.583 -17.266  -0.756  0.00  0.00    -0.345 N 
ATOM     10  H   UNL d   1      28.762 -16.277  -0.883  0.00  0.00     0.163 HD
BRANCH   9  11
ATOM     11  C   UNL d   1      29.748 -18.135  -0.767  0.00  0.00     0.268 C 
BRANCH  11  12
ATOM     12  S   UNL d   1      31.120 -17.545  -1.765  0.00  0.00     0.192 S 
ATOM     13  O   UNL d   1      30.986 -16.095  -1.851  0.00  0.00    -0.221 OA
ATOM     14  O   UNL d   1      32.342 -18.125  -1.250  0.00  0.00    -0.221 OA
BRANCH  12  15
ATOM     15  C   UNL d   1      30.875 -18.210  -3.390  0.00  0.00     0.060 A 
ATOM     16  C   UNL d   1      30.489 -17.361  -4.430  0.00  0.00     0.024 A 
ATOM     17  C   UNL d   1      30.404 -17.859  -5.732  0.00  0.00     0.008 A 
ATOM     18  C   UNL d   1      30.695 -19.202  -6.000  0.00  0.00    -0.062 A 
ATOM     19  C   UNL d   1      30.624 -19.738  -7.402  0.00  0.00     0.048 C 
ATOM     20  C   UNL d   1      31.063 -20.047  -4.942  0.00  0.00     0.008 A 
ATOM     21  C   UNL d   1      31.155 -19.556  -3.637  0.00  0.00     0.024 A 
ENDBRANCH  12  15
ENDBRANCH  11  12
ENDBRANCH   9  11
ENDBRANCH   1   7
BRANCH   1  22
ATOM     22  N   UNL d   1      26.538 -15.276  -0.745  0.00  0.00    -0.296 N 
ATOM     23  C   UNL d   1      26.902 -14.135   0.007  0.00  0.00     0.262 C 
ATOM     24  O   UNL d   1      26.280 -13.072  -0.089  0.00  0.00    -0.267 OA
BRANCH  23  25
ATOM     25  C   UNL d   1      28.074 -14.154   0.956  0.00  0.00     0.068 C 
ATOM     26  C   UNL d   1      27.821 -14.046   2.340  0.00  0.00     0.020 C 
ATOM     27  C   UNL d   1      28.863 -14.150   3.276  0.00  0.00     0.004 C 
ATOM     28  C   UNL d   1      30.160 -14.444   2.855  0.00  0.00     0.039 C 
ATOM     29  C   UNL d   1      30.408 -14.566   1.497  0.00  0.00     0.099 C 
ATOM     30  C   UNL d   1      29.401 -14.329   0.560  0.00  0.00     0.114 C 
BRANCH  29  31
ATOM     31  O   UNL d   1      31.627 -14.949   1.003  0.00  0.00    -0.358 OA
ATOM     32  H   UNL d   1      31.500 -15.346   0.124  0.00  0.00     0.217 HD
ENDBRANCH  29  31
BRANCH  30  33
ATOM     33  O   UNL d   1      29.784 -14.336  -0.754  0.00  0.00    -0.357 OA
ATOM     34  H   UNL d   1      30.551 -14.943  -0.778  0.00  0.00     0.217 HD
ENDBRANCH  30  33
ENDBRANCH  23  25
BRANCH  22  35
ATOM     35  C   UNL d   1      26.277 -15.064  -2.160  0.00  0.00     0.038 A 
ATOM     36  C   UNL d   1      27.203 -15.505  -3.123  0.00  0.00     0.030 A 
ATOM     37  C   UNL d   1      27.043 -15.199  -4.485  0.00  0.00     0.002 A 
ATOM     38  C   UNL d   1      25.940 -14.471  -4.920  0.00  0.00     0.000 A 
ATOM     39  C   UNL d   1      24.991 -14.074  -3.997  0.00  0.00     0.002 A 
ATOM     40  C   UNL d   1      25.140 -14.411  -2.649  0.00  0.00     0.030 A 
ENDBRANCH  22  35
ENDBRANCH   1  22
TORSDOF 12
ENDMDL
MODEL 4
REMARK VINA RESULT:    -7.455      2.667      5.953
REMARK INTER + INTRA:         -17.562
REMARK INTER:                 -11.034
REMARK INTRA:                  -6.528
REMARK CONF_INDEPENDENT:        3.580
REMARK UNBOUND:                -6.528
REMARK  12 active torsions:
REMARK  status: ('A' for Active; 'I' for Inactive)
REMARK    1  A    between atoms: C_2  and  C_3 
REMARK    2  A    between atoms: C_3  and  C_4 
REMARK    3  A    between atoms: C_5  and  C_6 
REMARK    4  A    between atoms: C_6  and  C_7 
REMARK    5  A    between atoms: C_6  and  N_21 
REMARK       I    between atoms: C_7  and  N_9 
REMARK    6  A    between atoms: N_9  and  C_10 
REMARK    7  A    between atoms: C_10  and  S_11 
REMARK    8  A    between atoms: S_11  and  C_14 
REMARK       I    between atoms: N_21  and  C_22 
REMARK    9  A    between atoms: N_21  and  C_32 
REMARK   10  A    between atoms: C_22  and  C_24 
REMARK   11  A    between atoms: C_28  and  O_29 
REMARK   12  A    between atoms: C_30  and  O_31 
ROOT
ATOM      1  C   UNL d   1      27.156 -14.982   0.768  0.00  0.00     0.208 C 
ENDROOT
BRANCH   1   2
ATOM      2  C   UNL d   1      28.226 -14.519   1.748  0.00  0.00     0.004 C 
ATOM      3  C   UNL d   1      28.054 -14.337   3.068  0.00  0.00    -0.028 C 
BRANCH   3   4
ATOM      4  C   UNL d   1      29.195 -13.998   3.968  0.00  0.00     0.026 C 
BRANCH   4   5
ATOM      5  C   UNL d   1      28.810 -14.291   5.410  0.00  0.00    -0.001 C 
ATOM      6  C   UNL d   1      27.793 -13.282   5.898  0.00  0.00     0.005 C 
ENDBRANCH   4   5
ENDBRANCH   3   4
ENDBRANCH   1   2
BRANCH   1   7
ATOM      7  C   UNL d   1      26.864 -13.654   0.028  0.00  0.00     0.245 C 
ATOM      8  O   UNL d   1      26.668 -12.570   0.577  0.00  0.00    -0.271 OA
ATOM      9  N   UNL d   1      26.802 -13.759  -1.350  0.00  0.00    -0.345 N 
ATOM     10  H   UNL d   1      26.650 -14.663  -1.780  0.00  0.00     0.163 HD
BRANCH   9  11
ATOM     11  C   UNL d   1      26.464 -12.599  -2.159  0.00  0.00     0.268 C 
BRANCH  11  12
ATOM     12  S   UNL d   1      25.748 -12.980  -3.762  0.00  0.00     0.192 S 
ATOM     13  O   UNL d   1      24.627 -13.882  -3.519  0.00  0.00    -0.221 OA
ATOM     14  O   UNL d   1      25.532 -11.738  -4.471  0.00  0.00    -0.221 OA
BRANCH  12  15
ATOM     15  C   UNL d   1      26.985 -13.880  -4.657  0.00  0.00     0.060 A 
ATOM     16  C   UNL d   1      27.556 -13.314  -5.800  0.00  0.00     0.024 A 
ATOM     17  C   UNL d   1      28.608 -13.969  -6.443  0.00  0.00     0.008 A 
ATOM     18  C   UNL d   1      29.090 -15.190  -5.955  0.00  0.00    -0.062 A 
ATOM     19  C   UNL d   1      30.235 -15.888  -6.632  0.00  0.00     0.048 C 
ATOM     20  C   UNL d   1      28.495 -15.755  -4.817  0.00  0.00     0.008 A 
ATOM     21  C   UNL d   1      27.444 -15.104  -4.165  0.00  0.00     0.024 A 
ENDBRANCH  12  15
ENDBRANCH  11  12
ENDBRANCH   9  11
ENDBRANCH   1   7
BRANCH   1  22
ATOM     22  N   UNL d   1      27.544 -16.189  -0.035  0.00  0.00    -0.296 N 
ATOM     23  C   UNL d   1      26.844 -17.417  -0.007  0.00  0.00     0.262 C 
ATOM     24  O   UNL d   1      27.420 -18.486   0.221  0.00  0.00    -0.267 OA
BRANCH  23  25
ATOM     25  C   UNL d   1      25.359 -17.487  -0.263  0.00  0.00     0.068 C 
ATOM     26  C   UNL d   1      24.617 -18.514   0.357  0.00  0.00     0.020 C 
ATOM     27  C   UNL d   1      23.219 -18.574   0.230  0.00  0.00     0.004 C 
ATOM     28  C   UNL d   1      22.531 -17.568  -0.448  0.00  0.00     0.039 C 
ATOM     29  C   UNL d   1      23.256 -16.550  -1.045  0.00  0.00     0.099 C 
ATOM     30  C   UNL d   1      24.652 -16.562  -1.034  0.00  0.00     0.114 C 
BRANCH  29  31
ATOM     31  O   UNL d   1      22.658 -15.472  -1.644  0.00  0.00    -0.358 OA
ATOM     32  H   UNL d   1      23.334 -14.961  -2.121  0.00  0.00     0.217 HD
ENDBRANCH  29  31
BRANCH  30  33
ATOM     33  O   UNL d   1      25.271 -15.589  -1.772  0.00  0.00    -0.357 OA
ATOM     34  H   UNL d   1      24.645 -15.407  -2.502  0.00  0.00     0.217 HD
ENDBRANCH  30  33
ENDBRANCH  23  25
BRANCH  22  35
ATOM     35  C   UNL d   1      28.787 -16.170  -0.791  0.00  0.00     0.038 A 
ATOM     36  C   UNL d   1      29.029 -17.142  -1.779  0.00  0.00     0.030 A 
ATOM     37  C   UNL d   1      30.270 -17.229  -2.431  0.00  0.00     0.002 A 
ATOM     38  C   UNL d   1      31.287 -16.329  -2.134  0.00  0.00     0.000 A 
ATOM     39  C   UNL d   1      31.053 -15.332  -1.205  0.00  0.00     0.002 A 
ATOM     40  C   UNL d   1      29.804 -15.232  -0.585  0.00  0.00     0.030 A 
ENDBRANCH  22  35
ENDBRANCH   1  22
TORSDOF 12
ENDMDL
MODEL 5
REMARK VINA RESULT:    -7.286      3.707      6.730
REMARK INTER + INTRA:         -18.068
REMARK INTER:                 -10.866
REMARK INTRA:                  -7.203
REMARK CONF_INDEPENDENT:        3.580
REMARK UNBOUND:                -7.203
REMARK  12 active torsions:
REMARK  status: ('A' for Active; 'I' for Inactive)
REMARK    1  A    between atoms: C_2  and  C_3 
REMARK    2  A    between atoms: C_3  and  C_4 
REMARK    3  A    between atoms: C_5  and  C_6 
REMARK    4  A    between atoms: C_6  and  C_7 
REMARK    5  A    between atoms: C_6  and  N_21 
REMARK       I    between atoms: C_7  and  N_9 
REMARK    6  A    between atoms: N_9  and  C_10 
REMARK    7  A    between atoms: C_10  and  S_11 
REMARK    8  A    between atoms: S_11  and  C_14 
REMARK       I    between atoms: N_21  and  C_22 
REMARK    9  A    between atoms: N_21  and  C_32 
REMARK   10  A    between atoms: C_22  and  C_24 
REMARK   11  A    between atoms: C_28  and  O_29 
REMARK   12  A    between atoms: C_30  and  O_31 
ROOT
ATOM      1  C   UNL d   1      26.000 -15.629  -2.872  0.00  0.00     0.208 C 
ENDROOT
BRANCH   1   2
ATOM      2  C   UNL d   1      24.846 -16.112  -2.003  0.00  0.00     0.004 C 
ATOM      3  C   UNL d   1      24.755 -17.319  -1.421  0.00  0.00    -0.028 C 
BRANCH   3   4
ATOM      4  C   UNL d   1      23.642 -17.658  -0.486  0.00  0.00     0.026 C 
BRANCH   4   5
ATOM      5  C   UNL d   1      22.973 -18.947  -0.937  0.00  0.00    -0.001 C 
ATOM      6  C   UNL d   1      21.477 -18.866  -0.725  0.00  0.00     0.005 C 
ENDBRANCH   4   5
ENDBRANCH   3   4
ENDBRANCH   1   2
BRANCH   1   7
ATOM      7  C   UNL d   1      25.373 -14.348  -3.478  0.00  0.00     0.245 C 
ATOM      8  O   UNL d   1      24.430 -14.332  -4.269  0.00  0.00    -0.271 OA
ATOM      9  N   UNL d   1      25.977 -13.167  -3.086  0.00  0.00    -0.345 N 
ATOM     10  H   UNL d   1      26.915 -13.182  -2.704  0.00  0.00     0.163 HD
BRANCH   9  11
ATOM     11  C   UNL d   1      25.530 -11.898  -3.639  0.00  0.00     0.268 C 
BRANCH  11  12
ATOM     12  S   UNL d   1      26.589 -11.219  -4.921  0.00  0.00     0.192 S 
ATOM     13  O   UNL d   1      27.862 -10.893  -4.288  0.00  0.00    -0.221 OA
ATOM     14  O   UNL d   1      26.559 -12.114  -6.058  0.00  0.00    -0.221 OA
BRANCH  12  15
ATOM     15  C   UNL d   1      25.834  -9.701  -5.436  0.00  0.00     0.060 A 
ATOM     16  C   UNL d   1      26.200  -9.130  -6.658  0.00  0.00     0.024 A 
ATOM     17  C   UNL d   1      25.529  -7.996  -7.118  0.00  0.00     0.008 A 
ATOM     18  C   UNL d   1      24.498  -7.423  -6.363  0.00  0.00    -0.062 A 
ATOM     19  C   UNL d   1      23.759  -6.216  -6.864  0.00  0.00     0.048 C 
ATOM     20  C   UNL d   1      24.154  -7.997  -5.130  0.00  0.00     0.008 A 
ATOM     21  C   UNL d   1      24.818  -9.135  -4.663  0.00  0.00     0.024 A 
ENDBRANCH  12  15
ENDBRANCH  11  12
ENDBRANCH   9  11
ENDBRANCH   1   7
BRANCH   1  22
ATOM     22  N   UNL d   1      27.309 -15.522  -2.147  0.00  0.00    -0.296 N 
ATOM     23  C   UNL d   1      28.531 -16.033  -2.641  0.00  0.00     0.262 C 
ATOM     24  O   UNL d   1      29.235 -16.791  -1.966  0.00  0.00    -0.267 OA
BRANCH  23  25
ATOM     25  C   UNL d   1      29.043 -15.671  -4.012  0.00  0.00     0.068 C 
ATOM     26  C   UNL d   1      29.620 -16.685  -4.805  0.00  0.00     0.020 C 
ATOM     27  C   UNL d   1      30.029 -16.428  -6.124  0.00  0.00     0.004 C 
ATOM     28  C   UNL d   1      29.797 -15.180  -6.702  0.00  0.00     0.039 C 
ATOM     29  C   UNL d   1      29.217 -14.187  -5.930  0.00  0.00     0.099 C 
ATOM     30  C   UNL d   1      28.933 -14.400  -4.580  0.00  0.00     0.114 C 
BRANCH  29  31
ATOM     31  O   UNL d   1      28.863 -12.967  -6.445  0.00  0.00    -0.358 OA
ATOM     32  H   UNL d   1      28.604 -12.379  -5.714  0.00  0.00     0.217 HD
ENDBRANCH  29  31
BRANCH  30  33
ATOM     33  O   UNL d   1      28.495 -13.312  -3.875  0.00  0.00    -0.357 OA
ATOM     34  H   UNL d   1      27.914 -12.837  -4.503  0.00  0.00     0.217 HD
ENDBRANCH  30  33
ENDBRANCH  23  25
BRANCH  22  35
ATOM     35  C   UNL d   1      27.329 -14.989  -0.794  0.00  0.00     0.038 A 
ATOM     36  C   UNL d   1      27.087 -13.622  -0.569  0.00  0.00     0.030 A 
ATOM     37  C   UNL d   1      27.229 -13.054   0.708  0.00  0.00     0.002 A 
ATOM     38  C   UNL d   1      27.588 -13.843   1.796  0.00  0.00     0.000 A 
ATOM     39  C   UNL d   1      27.779 -15.200   1.607  0.00  0.00     0.002 A 
ATOM     40  C   UNL d   1      27.602 -15.762   0.340  0.00  0.00     0.030 A 
ENDBRANCH  22  35
ENDBRANCH   1  22
TORSDOF 12
ENDMDL
MODEL 6
REMARK VINA RESULT:    -7.157      2.429      4.955
REMARK INTER + INTRA:         -17.520
REMARK INTER:                 -10.736
REMARK INTRA:                  -6.784
REMARK CONF_INDEPENDENT:        3.580
REMARK UNBOUND:                -6.784
REMARK  12 active torsions:
REMARK  status: ('A' for Active; 'I' for Inactive)
REMARK    1  A    between atoms: C_2  and  C_3 
REMARK    2  A    between atoms: C_3  and  C_4 
REMARK    3  A    between atoms: C_5  and  C_6 
REMARK    4  A    between atoms: C_6  and  C_7 
REMARK    5  A    between atoms: C_6  and  N_21 
REMARK       I    between atoms: C_7  and  N_9 
REMARK    6  A    between atoms: N_9  and  C_10 
REMARK    7  A    between atoms: C_10  and  S_11 
REMARK    8  A    between atoms: S_11  and  C_14 
REMARK       I    between atoms: N_21  and  C_22 
REMARK    9  A    between atoms: N_21  and  C_32 
REMARK   10  A    between atoms: C_22  and  C_24 
REMARK   11  A    between atoms: C_28  and  O_29 
REMARK   12  A    between atoms: C_30  and  O_31 
ROOT
ATOM      1  C   UNL d   1      26.693 -13.659  -1.227  0.00  0.00     0.208 C 
ENDROOT
BRANCH   1   2
ATOM      2  C   UNL d   1      26.652 -13.920   0.274  0.00  0.00     0.004 C 
ATOM      3  C   UNL d   1      27.227 -13.158   1.219  0.00  0.00    -0.028 C 
BRANCH   3   4
ATOM      4  C   UNL d   1      27.028 -13.428   2.673  0.00  0.00     0.026 C 
BRANCH   4   5
ATOM      5  C   UNL d   1      28.101 -14.389   3.163  0.00  0.00    -0.001 C 
ATOM      6  C   UNL d   1      28.121 -14.428   4.675  0.00  0.00     0.005 C 
ENDBRANCH   4   5
ENDBRANCH   3   4
ENDBRANCH   1   2
BRANCH   1   7
ATOM      7  C   UNL d   1      28.212 -13.805  -1.492  0.00  0.00     0.245 C 
ATOM      8  O   UNL d   1      29.086 -13.094  -0.994  0.00  0.00    -0.271 OA
ATOM      9  N   UNL d   1      28.551 -14.806  -2.383  0.00  0.00    -0.345 N 
ATOM     10  H   UNL d   1      27.853 -15.174  -3.019  0.00  0.00     0.163 HD
BRANCH   9  11
ATOM     11  C   UNL d   1      29.939 -15.001  -2.773  0.00  0.00     0.268 C 
BRANCH  11  12
ATOM     12  S   UNL d   1      30.198 -16.252  -4.036  0.00  0.00     0.192 S 
ATOM     13  O   UNL d   1      31.146 -17.215  -3.487  0.00  0.00    -0.221 OA
ATOM     14  O   UNL d   1      28.906 -16.701  -4.506  0.00  0.00    -0.221 OA
BRANCH  12  15
ATOM     15  C   UNL d   1      30.986 -15.429  -5.394  0.00  0.00     0.060 A 
ATOM     16  C   UNL d   1      31.348 -16.163  -6.527  0.00  0.00     0.024 A 
ATOM     17  C   UNL d   1      31.866 -15.501  -7.642  0.00  0.00     0.008 A 
ATOM     18  C   UNL d   1      32.031 -14.110  -7.631  0.00  0.00    -0.062 A 
ATOM     19  C   UNL d   1      32.568 -13.392  -8.835  0.00  0.00     0.048 C 
ATOM     20  C   UNL d   1      31.680 -13.389  -6.480  0.00  0.00     0.008 A 
ATOM     21  C   UNL d   1      31.157 -14.043  -5.361  0.00  0.00     0.024 A 
ENDBRANCH  12  15
ENDBRANCH  11  12
ENDBRANCH   9  11
ENDBRANCH   1   7
BRANCH   1  22
ATOM     22  N   UNL d   1      25.735 -14.498  -2.020  0.00  0.00    -0.296 N 
ATOM     23  C   UNL d   1      25.199 -14.117  -3.271  0.00  0.00     0.262 C 
ATOM     24  O   UNL d   1      23.980 -14.115  -3.479  0.00  0.00    -0.267 OA
BRANCH  23  25
ATOM     25  C   UNL d   1      26.085 -13.702  -4.419  0.00  0.00     0.068 C 
ATOM     26  C   UNL d   1      26.282 -12.325  -4.653  0.00  0.00     0.020 C 
ATOM     27  C   UNL d   1      27.169 -11.880  -5.648  0.00  0.00     0.004 C 
ATOM     28  C   UNL d   1      27.933 -12.797  -6.370  0.00  0.00     0.039 C 
ATOM     29  C   UNL d   1      27.752 -14.149  -6.131  0.00  0.00     0.099 C 
ATOM     30  C   UNL d   1      26.775 -14.596  -5.239  0.00  0.00     0.114 C 
BRANCH  29  31
ATOM     31  O   UNL d   1      28.528 -15.112  -6.721  0.00  0.00    -0.358 OA
ATOM     32  H   UNL d   1      28.532 -15.904  -6.157  0.00  0.00     0.217 HD
ENDBRANCH  29  31
BRANCH  30  33
ATOM     33  O   UNL d   1      26.582 -15.950  -5.183  0.00  0.00    -0.357 OA
ATOM     34  H   UNL d   1      27.482 -16.324  -5.260  0.00  0.00     0.217 HD
ENDBRANCH  30  33
ENDBRANCH  23  25
BRANCH  22  35
ATOM     35  C   UNL d   1      25.203 -15.717  -1.432  0.00  0.00     0.038 A 
ATOM     36  C   UNL d   1      26.077 -16.716  -0.965  0.00  0.00     0.030 A 
ATOM     37  C   UNL d   1      25.595 -17.956  -0.513  0.00  0.00     0.002 A 
ATOM     38  C   UNL d   1      24.229 -18.216  -0.490  0.00  0.00     0.000 A 
ATOM     39  C   UNL d   1      23.350 -17.229  -0.894  0.00  0.00     0.002 A 
ATOM     40  C   UNL d   1      23.836 -15.986  -1.310  0.00  0.00     0.030 A 
ENDBRANCH  22  35
ENDBRANCH   1  22
TORSDOF 12
ENDMDL
MODEL 7
REMARK VINA RESULT:    -7.100      1.842      4.413
REMARK INTER + INTRA:         -17.798
REMARK INTER:                 -10.680
REMARK INTRA:                  -7.118
REMARK CONF_INDEPENDENT:        3.580
REMARK UNBOUND:                -7.118
REMARK  12 active torsions:
REMARK  status: ('A' for Active; 'I' for Inactive)
REMARK    1  A    between atoms: C_2  and  C_3 
REMARK    2  A    between atoms: C_3  and  C_4 
REMARK    3  A    between atoms: C_5  and  C_6 
REMARK    4  A    between atoms: C_6  and  C_7 
REMARK    5  A    between atoms: C_6  and  N_21 
REMARK       I    between atoms: C_7  and  N_9 
REMARK    6  A    between atoms: N_9  and  C_10 
REMARK    7  A    between atoms: C_10  and  S_11 
REMARK    8  A    between atoms: S_11  and  C_14 
REMARK       I    between atoms: N_21  and  C_22 
REMARK    9  A    between atoms: N_21  and  C_32 
REMARK   10  A    between atoms: C_22  and  C_24 
REMARK   11  A    between atoms: C_28  and  O_29 
REMARK   12  A    between atoms: C_30  and  O_31 
ROOT
ATOM      1  C   UNL d   1      26.224 -16.350  -0.003  0.00  0.00     0.208 C 
ENDROOT
BRANCH   1   2
ATOM      2  C   UNL d   1      25.028 -17.013  -0.676  0.00  0.00     0.004 C 
ATOM      3  C   UNL d   1      23.803 -17.147  -0.142  0.00  0.00    -0.028 C 
BRANCH   3   4
ATOM      4  C   UNL d   1      22.661 -17.702  -0.926  0.00  0.00     0.026 C 
BRANCH   4   5
ATOM      5  C   UNL d   1      22.135 -18.954  -0.241  0.00  0.00    -0.001 C 
ATOM      6  C   UNL d   1      20.740 -19.275  -0.733  0.00  0.00     0.005 C 
ENDBRANCH   4   5
ENDBRANCH   3   4
ENDBRANCH   1   2
BRANCH   1   7
ATOM      7  C   UNL d   1      27.296 -17.450  -0.199  0.00  0.00     0.245 C 
ATOM      8  O   UNL d   1      27.147 -18.638   0.088  0.00  0.00    -0.271 OA
ATOM      9  N   UNL d   1      28.499 -17.001  -0.712  0.00  0.00    -0.345 N 
ATOM     10  H   UNL d   1      28.736 -16.018  -0.656  0.00  0.00     0.163 HD
BRANCH   9  11
ATOM     11  C   UNL d   1      29.614 -17.921  -0.877  0.00  0.00     0.268 C 
BRANCH  11  12
ATOM     12  S   UNL d   1      30.966 -17.295  -1.881  0.00  0.00     0.192 S 
ATOM     13  O   UNL d   1      31.635 -16.266  -1.093  0.00  0.00    -0.221 OA
ATOM     14  O   UNL d   1      31.721 -18.422  -2.383  0.00  0.00    -0.221 OA
BRANCH  12  15
ATOM     15  C   UNL d   1      30.219 -16.506  -3.282  0.00  0.00     0.060 A 
ATOM     16  C   UNL d   1      29.788 -15.181  -3.176  0.00  0.00     0.024 A 
ATOM     17  C   UNL d   1      29.304 -14.521  -4.307  0.00  0.00     0.008 A 
ATOM     18  C   UNL d   1      29.239 -15.179  -5.542  0.00  0.00    -0.062 A 
ATOM     19  C   UNL d   1      28.737 -14.467  -6.765  0.00  0.00     0.048 C 
ATOM     20  C   UNL d   1      29.657 -16.515  -5.628  0.00  0.00     0.008 A 
ATOM     21  C   UNL d   1      30.149 -17.181  -4.502  0.00  0.00     0.024 A 
ENDBRANCH  12  15
ENDBRANCH  11  12
ENDBRANCH   9  11
ENDBRANCH   1   7
BRANCH   1  22
ATOM     22  N   UNL d   1      26.511 -14.962  -0.496  0.00  0.00    -0.296 N 
ATOM     23  C   UNL d   1      26.885 -13.887   0.342  0.00  0.00     0.262 C 
ATOM     24  O   UNL d   1      26.280 -12.810   0.323  0.00  0.00    -0.267 OA
BRANCH  23  25
ATOM     25  C   UNL d   1      28.048 -13.995   1.296  0.00  0.00     0.068 C 
ATOM     26  C   UNL d   1      27.804 -13.833   2.676  0.00  0.00     0.020 C 
ATOM     27  C   UNL d   1      28.831 -14.015   3.618  0.00  0.00     0.004 C 
ATOM     28  C   UNL d   1      30.094 -14.439   3.209  0.00  0.00     0.039 C 
ATOM     29  C   UNL d   1      30.332 -14.614   1.855  0.00  0.00     0.099 C 
ATOM     30  C   UNL d   1      29.354 -14.304   0.909  0.00  0.00     0.114 C 
BRANCH  29  31
ATOM     31  O   UNL d   1      31.510 -15.122   1.373  0.00  0.00    -0.358 OA
ATOM     32  H   UNL d   1      31.364 -15.460   0.473  0.00  0.00     0.217 HD
ENDBRANCH  29  31
BRANCH  30  33
ATOM     33  O   UNL d   1      29.737 -14.376  -0.403  0.00  0.00    -0.357 OA
ATOM     34  H   UNL d   1      30.713 -14.439  -0.365  0.00  0.00     0.217 HD
ENDBRANCH  30  33
ENDBRANCH  23  25
BRANCH  22  35
ATOM     35  C   UNL d   1      26.265 -14.639  -1.893  0.00  0.00     0.038 A 
ATOM     36  C   UNL d   1      25.905 -13.331  -2.263  0.00  0.00     0.030 A 
ATOM     37  C   UNL d   1      25.534 -13.019  -3.581  0.00  0.00     0.002 A 
ATOM     38  C   UNL d   1      25.543 -14.000  -4.567  0.00  0.00     0.000 A 
ATOM     39  C   UNL d   1      25.945 -15.281  -4.237  0.00  0.00     0.002 A 
ATOM     40  C   UNL d   1      26.345 -15.574  -2.930  0.00  0.00     0.030 A 
ENDBRANCH  22  35
ENDBRANCH   1  22
TORSDOF 12
ENDMDL
MODEL 8
REMARK VINA RESULT:    -6.898      1.482      2.198
REMARK INTER + INTRA:         -17.995
REMARK INTER:                 -10.478
REMARK INTRA:                  -7.517
REMARK CONF_INDEPENDENT:        3.580
REMARK UNBOUND:                -7.517
REMARK  12 active torsions:
REMARK  status: ('A' for Active; 'I' for Inactive)
REMARK    1  A    between atoms: C_2  and  C_3 
REMARK    2  A    between atoms: C_3  and  C_4 
REMARK    3  A    between atoms: C_5  and  C_6 
REMARK    4  A    between atoms: C_6  and  C_7 
REMARK    5  A    between atoms: C_6  and  N_21 
REMARK       I    between atoms: C_7  and  N_9 
REMARK    6  A    between atoms: N_9  and  C_10 
REMARK    7  A    between atoms: C_10  and  S_11 
REMARK    8  A    between atoms: S_11  and  C_14 
REMARK       I    between atoms: N_21  and  C_22 
REMARK    9  A    between atoms: N_21  and  C_32 
REMARK   10  A    between atoms: C_22  and  C_24 
REMARK   11  A    between atoms: C_28  and  O_29 
REMARK   12  A    between atoms: C_30  and  O_31 
ROOT
ATOM      1  C   UNL d   1      28.357 -16.032  -0.053  0.00  0.00     0.208 C 
ENDROOT
BRANCH   1   2
ATOM      2  C   UNL d   1      27.291 -16.900  -0.710  0.00  0.00     0.004 C 
ATOM      3  C   UNL d   1      26.000 -16.967  -0.345  0.00  0.00    -0.028 C 
BRANCH   3   4
ATOM      4  C   UNL d   1      25.004 -17.756  -1.127  0.00  0.00     0.026 C 
BRANCH   4   5
ATOM      5  C   UNL d   1      23.603 -17.245  -0.828  0.00  0.00    -0.001 C 
ATOM      6  C   UNL d   1      22.805 -18.300  -0.093  0.00  0.00     0.005 C 
ENDBRANCH   4   5
ENDBRANCH   3   4
ENDBRANCH   1   2
BRANCH   1   7
ATOM      7  C   UNL d   1      29.564 -16.329  -0.975  0.00  0.00     0.245 C 
ATOM      8  O   UNL d   1      30.725 -16.475  -0.591  0.00  0.00    -0.271 OA
ATOM      9  N   UNL d   1      29.261 -16.398  -2.322  0.00  0.00    -0.345 N 
ATOM     10  H   UNL d   1      28.405 -15.982  -2.669  0.00  0.00     0.163 HD
BRANCH   9  11
ATOM     11  C   UNL d   1      30.317 -16.600  -3.302  0.00  0.00     0.268 C 
BRANCH  11  12
ATOM     12  S   UNL d   1      29.834 -16.295  -5.005  0.00  0.00     0.192 S 
ATOM     13  O   UNL d   1      28.377 -16.325  -5.042  0.00  0.00    -0.221 OA
ATOM     14  O   UNL d   1      30.542 -15.124  -5.476  0.00  0.00    -0.221 OA
BRANCH  12  15
ATOM     15  C   UNL d   1      30.430 -17.674  -5.945  0.00  0.00     0.060 A 
ATOM     16  C   UNL d   1      30.407 -18.952  -5.381  0.00  0.00     0.024 A 
ATOM     17  C   UNL d   1      30.770 -20.055  -6.156  0.00  0.00     0.008 A 
ATOM     18  C   UNL d   1      31.164 -19.889  -7.490  0.00  0.00    -0.062 A 
ATOM     19  C   UNL d   1      31.536 -21.074  -8.334  0.00  0.00     0.048 C 
ATOM     20  C   UNL d   1      31.201 -18.597  -8.037  0.00  0.00     0.008 A 
ATOM     21  C   UNL d   1      30.834 -17.488  -7.269  0.00  0.00     0.024 A 
ENDBRANCH  12  15
ENDBRANCH  11  12
ENDBRANCH   9  11
ENDBRANCH   1   7
BRANCH   1  22
ATOM     22  N   UNL d   1      27.940 -14.606   0.158  0.00  0.00    -0.296 N 
ATOM     23  C   UNL d   1      27.856 -13.646  -0.876  0.00  0.00     0.262 C 
ATOM     24  O   UNL d   1      28.433 -12.555  -0.795  0.00  0.00    -0.267 OA
BRANCH  23  25
ATOM     25  C   UNL d   1      27.052 -13.897  -2.127  0.00  0.00     0.068 C 
ATOM     26  C   UNL d   1      25.647 -13.966  -2.021  0.00  0.00     0.020 C 
ATOM     27  C   UNL d   1      24.841 -14.106  -3.163  0.00  0.00     0.004 C 
ATOM     28  C   UNL d   1      25.416 -14.097  -4.434  0.00  0.00     0.039 C 
ATOM     29  C   UNL d   1      26.794 -14.014  -4.541  0.00  0.00     0.099 C 
ATOM     30  C   UNL d   1      27.603 -14.012  -3.404  0.00  0.00     0.114 C 
BRANCH  29  31
ATOM     31  O   UNL d   1      27.434 -13.900  -5.748  0.00  0.00    -0.358 OA
ATOM     32  H   UNL d   1      28.309 -14.320  -5.682  0.00  0.00     0.217 HD
ENDBRANCH  29  31
BRANCH  30  33
ATOM     33  O   UNL d   1      28.954 -14.071  -3.622  0.00  0.00    -0.357 OA
ATOM     34  H   UNL d   1      29.034 -14.282  -4.574  0.00  0.00     0.217 HD
ENDBRANCH  30  33
ENDBRANCH  23  25
BRANCH  22  35
ATOM     35  C   UNL d   1      27.735 -14.118   1.513  0.00  0.00     0.038 A 
ATOM     36  C   UNL d   1      27.123 -12.870   1.730  0.00  0.00     0.030 A 
ATOM     37  C   UNL d   1      27.031 -12.315   3.017  0.00  0.00     0.002 A 
ATOM     38  C   UNL d   1      27.521 -13.006   4.120  0.00  0.00     0.000 A 
ATOM     39  C   UNL d   1      28.078 -14.258   3.936  0.00  0.00     0.002 A 
ATOM     40  C   UNL d   1      28.135 -14.817   2.656  0.00  0.00     0.030 A 
ENDBRANCH  22  35
ENDBRANCH   1  22
TORSDOF 12
ENDMDL
MODEL 9
REMARK VINA RESULT:    -6.471      3.796      6.116
REMARK INTER + INTRA:         -17.936
REMARK INTER:                 -10.051
REMARK INTRA:                  -7.885
REMARK CONF_INDEPENDENT:        3.580
REMARK UNBOUND:                -7.885
REMARK  12 active torsions:
REMARK  status: ('A' for Active; 'I' for Inactive)
REMARK    1  A    between atoms: C_2  and  C_3 
REMARK    2  A    between atoms: C_3  and  C_4 
REMARK    3  A    between atoms: C_5  and  C_6 
REMARK    4  A    between atoms: C_6  and  C_7 
REMARK    5  A    between atoms: C_6  and  N_21 
REMARK       I    between atoms: C_7  and  N_9 
REMARK    6  A    between atoms: N_9  and  C_10 
REMARK    7  A    between atoms: C_10  and  S_11 
REMARK    8  A    between atoms: S_11  and  C_14 
REMARK       I    between atoms: N_21  and  C_22 
REMARK    9  A    between atoms: N_21  and  C_32 
REMARK   10  A    between atoms: C_22  and  C_24 
REMARK   11  A    between atoms: C_28  and  O_29 
REMARK   12  A    between atoms: C_30  and  O_31 
ROOT
ATOM      1  C   UNL d   1      29.011 -11.398  -2.298  0.00  0.00     0.208 C 
ENDROOT
BRANCH   1   2
ATOM      2  C   UNL d   1      29.961 -12.233  -1.448  0.00  0.00     0.004 C 
ATOM      3  C   UNL d   1      29.980 -13.575  -1.381  0.00  0.00    -0.028 C 
BRANCH   3   4
ATOM      4  C   UNL d   1      31.029 -14.308  -0.613  0.00  0.00     0.026 C 
BRANCH   4   5
ATOM      5  C   UNL d   1      30.367 -15.218   0.410  0.00  0.00    -0.001 C 
ATOM      6  C   UNL d   1      29.873 -14.411   1.590  0.00  0.00     0.005 C 
ENDBRANCH   4   5
ENDBRANCH   3   4
ENDBRANCH   1   2
BRANCH   1   7
ATOM      7  C   UNL d   1      28.883 -12.307  -3.545  0.00  0.00     0.245 C 
ATOM      8  O   UNL d   1      29.754 -12.453  -4.403  0.00  0.00    -0.271 OA
ATOM      9  N   UNL d   1      27.668 -12.956  -3.666  0.00  0.00    -0.345 N 
ATOM     10  H   UNL d   1      26.860 -12.612  -3.161  0.00  0.00     0.163 HD
BRANCH   9  11
ATOM     11  C   UNL d   1      27.392 -13.783  -4.830  0.00  0.00     0.268 C 
BRANCH  11  12
ATOM     12  S   UNL d   1      25.998 -14.900  -4.647  0.00  0.00     0.192 S 
ATOM     13  O   UNL d   1      24.797 -14.074  -4.615  0.00  0.00    -0.221 OA
ATOM     14  O   UNL d   1      26.122 -15.950  -5.636  0.00  0.00    -0.221 OA
BRANCH  12  15
ATOM     15  C   UNL d   1      26.177 -15.662  -3.057  0.00  0.00     0.060 A 
ATOM     16  C   UNL d   1      25.045 -16.145  -2.394  0.00  0.00     0.024 A 
ATOM     17  C   UNL d   1      25.194 -16.845  -1.195  0.00  0.00     0.008 A 
ATOM     18  C   UNL d   1      26.466 -17.059  -0.649  0.00  0.00    -0.062 A 
ATOM     19  C   UNL d   1      26.632 -17.828   0.630  0.00  0.00     0.048 C 
ATOM     20  C   UNL d   1      27.591 -16.551  -1.316  0.00  0.00     0.008 A 
ATOM     21  C   UNL d   1      27.451 -15.854  -2.520  0.00  0.00     0.024 A 
ENDBRANCH  12  15
ENDBRANCH  11  12
ENDBRANCH   9  11
ENDBRANCH   1   7
BRANCH   1  22
ATOM     22  N   UNL d   1      27.764 -10.972  -1.580  0.00  0.00    -0.296 N 
ATOM     23  C   UNL d   1      27.010  -9.825  -1.919  0.00  0.00     0.262 C 
ATOM     24  O   UNL d   1      26.720  -8.969  -1.076  0.00  0.00    -0.267 OA
BRANCH  23  25
ATOM     25  C   UNL d   1      26.511  -9.593  -3.323  0.00  0.00     0.068 C 
ATOM     26  C   UNL d   1      26.782  -8.352  -3.937  0.00  0.00     0.020 C 
ATOM     27  C   UNL d   1      26.424  -8.113  -5.274  0.00  0.00     0.004 C 
ATOM     28  C   UNL d   1      25.864  -9.131  -6.045  0.00  0.00     0.039 C 
ATOM     29  C   UNL d   1      25.610 -10.355  -5.448  0.00  0.00     0.099 C 
ATOM     30  C   UNL d   1      25.841 -10.551  -4.086  0.00  0.00     0.114 C 
BRANCH  29  31
ATOM     31  O   UNL d   1      25.155 -11.439  -6.154  0.00  0.00    -0.358 OA
ATOM     32  H   UNL d   1      24.776 -12.083  -5.532  0.00  0.00     0.217 HD
ENDBRANCH  29  31
BRANCH  30  33
ATOM     33  O   UNL d   1      25.425 -11.748  -3.568  0.00  0.00    -0.357 OA
ATOM     34  H   UNL d   1      24.659 -11.997  -4.123  0.00  0.00     0.217 HD
ENDBRANCH  30  33
ENDBRANCH  23  25
BRANCH  22  35
ATOM     35  C   UNL d   1      27.360 -11.681  -0.376  0.00  0.00     0.038 A 
ATOM     36  C   UNL d   1      27.493 -11.069   0.883  0.00  0.00     0.030 A 
ATOM     37  C   UNL d   1      27.235 -11.775   2.070  0.00  0.00     0.002 A 
ATOM     38  C   UNL d   1      26.810 -13.098   2.026  0.00  0.00     0.000 A 
ATOM     39  C   UNL d   1      26.621 -13.703   0.797  0.00  0.00     0.002 A 
ATOM     40  C   UNL d   1      26.848 -12.983  -0.379  0.00  0.00     0.030 A 
ENDBRANCH  22  35
ENDBRANCH   1  22
TORSDOF 12
ENDMDL
