MODEL 1
REMARK VINA RESULT:    -7.253      0.000      0.000
REMARK INTER + INTRA:         -11.253
REMARK INTER:                  -8.745
REMARK INTRA:                  -2.508
REMARK CONF_INDEPENDENT:        1.492
REMARK UNBOUND:                -2.508
REMARK  5 active torsions:
REMARK  status: ('A' for Active; 'I' for Inactive)
REMARK    1  A    between atoms: C_5  and  N_6 
REMARK       I    between atoms: N_6  and  C_7 
REMARK       I    between atoms: C_7  and  N_9 
REMARK       I    between atoms: N_9  and  C_10 
REMARK    2  A    between atoms: C_10  and  C_12 
REMARK    3  A    between atoms: C_12  and  S_14 
REMARK    4  A    between atoms: S_14  and  C_15 
REMARK    5  A    between atoms: C_20  and  C_21 
REMARK       I    between atoms: C_21  and  N_22 
ROOT
ATOM      1  N   UNL d   1      29.622 -15.521  -4.765  0.00  0.00    -0.308 N 
ATOM      2  C   UNL d   1      28.261 -15.300  -4.954  0.00  0.00     0.327 C 
ATOM      3  O   UNL d   1      27.694 -15.575  -6.007  0.00  0.00    -0.247 OA
ATOM      4  N   UNL d   1      27.556 -14.754  -3.902  0.00  0.00    -0.278 N 
ATOM      5  C   UNL d   1      26.189 -14.513  -4.063  0.00  0.00     0.239 C 
ATOM      6  O   UNL d   1      25.581 -14.822  -5.091  0.00  0.00    -0.272 OA
ATOM      7  H   UNL d   1      30.040 -15.265  -3.886  0.00  0.00     0.170 HD
ATOM      8  H   UNL d   1      28.021 -14.510  -3.045  0.00  0.00     0.173 HD
ENDROOT
BRANCH   5   9
ATOM      9  C   UNL d   1      25.418 -13.850  -2.888  0.00  0.00     0.141 C 
ATOM     10  C   UNL d   1      24.028 -14.450  -2.770  0.00  0.00     0.031 C 
BRANCH   9  11
ATOM     11  S   UNL d   1      26.387 -14.220  -1.352  0.00  0.00    -0.115 SA
BRANCH  11  12
ATOM     12  C   UNL d   1      26.187 -15.920  -0.855  0.00  0.00     0.017 A 
ATOM     13  C   UNL d   1      24.912 -16.454  -0.601  0.00  0.00     0.019 A 
ATOM     14  C   UNL d   1      24.742 -17.748  -0.110  0.00  0.00     0.001 A 
ATOM     15  C   UNL d   1      25.847 -18.549   0.114  0.00  0.00     0.001 A 
ATOM     16  C   UNL d   1      27.126 -18.051  -0.135  0.00  0.00     0.018 A 
ATOM     17  C   UNL d   1      27.326 -16.744  -0.632  0.00  0.00     0.048 A 
BRANCH  17  18
ATOM     18  C   UNL d   1      28.741 -16.280  -0.912  0.00  0.00     0.250 C 
ATOM     19  N   UNL d   1      29.673 -16.336   0.087  0.00  0.00    -0.366 N 
ATOM     20  H   UNL d   1      29.540 -16.686   1.019  0.00  0.00     0.159 HD
ATOM     21  H   UNL d   1      30.599 -16.026  -0.178  0.00  0.00     0.159 HD
ATOM     22  O   UNL d   1      29.153 -15.861  -1.991  0.00  0.00    -0.268 OA
ENDBRANCH  17  18
ENDBRANCH  11  12
ENDBRANCH   9  11
ENDBRANCH   5   9
BRANCH   1  23
ATOM     23  C   UNL d   1      30.489 -16.094  -5.774  0.00  0.00     0.042 A 
ATOM     24  C   UNL d   1      31.008 -15.302  -6.814  0.00  0.00     0.030 A 
ATOM     25  C   UNL d   1      31.849 -15.784  -7.813  0.00  0.00     0.009 A 
ATOM     26  C   UNL d   1      32.225 -17.112  -7.824  0.00  0.00    -0.061 A 
ATOM     27  C   UNL d   1      33.129 -17.597  -8.918  0.00  0.00     0.048 C 
ATOM     28  C   UNL d   1      31.733 -17.942  -6.806  0.00  0.00     0.015 A 
ATOM     29  C   UNL d   1      30.863 -17.455  -5.780  0.00  0.00    -0.035 A 
ATOM     30  C   UNL d   1      30.403 -18.455  -4.753  0.00  0.00     0.050 C 
ENDBRANCH   1  23
TORSDOF 5
ENDMDL
MODEL 2
REMARK VINA RESULT:    -7.237      2.195      6.814
REMARK INTER + INTRA:         -11.396
REMARK INTER:                  -8.729
REMARK INTRA:                  -2.667
REMARK CONF_INDEPENDENT:        1.492
REMARK UNBOUND:                -2.667
REMARK  5 active torsions:
REMARK  status: ('A' for Active; 'I' for Inactive)
REMARK    1  A    between atoms: C_5  and  N_6 
REMARK       I    between atoms: N_6  and  C_7 
REMARK       I    between atoms: C_7  and  N_9 
REMARK       I    between atoms: N_9  and  C_10 
REMARK    2  A    between atoms: C_10  and  C_12 
REMARK    3  A    between atoms: C_12  and  S_14 
REMARK    4  A    between atoms: S_14  and  C_15 
REMARK    5  A    between atoms: C_20  and  C_21 
REMARK       I    between atoms: C_21  and  N_22 
ROOT
ATOM      1  N   UNL d   1      26.027 -16.059  -1.475  0.00  0.00    -0.308 N 
ATOM      2  C   UNL d   1      26.268 -15.821  -2.824  0.00  0.00     0.327 C 
ATOM      3  O   UNL d   1      25.530 -16.249  -3.707  0.00  0.00    -0.247 OA
ATOM      4  N   UNL d   1      27.383 -15.075  -3.146  0.00  0.00    -0.278 N 
ATOM      5  C   UNL d   1      27.657 -14.825  -4.493  0.00  0.00     0.239 C 
ATOM      6  O   UNL d   1      26.910 -15.200  -5.400  0.00  0.00    -0.272 OA
ATOM      7  H   UNL d   1      26.671 -15.696  -0.793  0.00  0.00     0.170 HD
ATOM      8  H   UNL d   1      28.000 -14.739  -2.427  0.00  0.00     0.173 HD
ENDROOT
BRANCH   5   9
ATOM      9  C   UNL d   1      28.945 -14.028  -4.843  0.00  0.00     0.141 C 
ATOM     10  C   UNL d   1      28.631 -12.545  -4.937  0.00  0.00     0.031 C 
BRANCH   9  11
ATOM     11  S   UNL d   1      30.137 -14.324  -3.454  0.00  0.00    -0.115 SA
BRANCH  11  12
ATOM     12  C   UNL d   1      30.591 -16.044  -3.348  0.00  0.00     0.017 A 
ATOM     13  C   UNL d   1      31.250 -16.685  -4.411  0.00  0.00     0.019 A 
ATOM     14  C   UNL d   1      31.518 -18.053  -4.390  0.00  0.00     0.001 A 
ATOM     15  C   UNL d   1      31.155 -18.809  -3.290  0.00  0.00     0.001 A 
ATOM     16  C   UNL d   1      30.506 -18.201  -2.217  0.00  0.00     0.018 A 
ATOM     17  C   UNL d   1      30.221 -16.818  -2.212  0.00  0.00     0.048 A 
BRANCH  17  18
ATOM     18  C   UNL d   1      29.543 -16.217  -0.996  0.00  0.00     0.250 C 
ATOM     19  N   UNL d   1      29.742 -16.788   0.230  0.00  0.00    -0.366 N 
ATOM     20  H   UNL d   1      30.328 -17.576   0.442  0.00  0.00     0.159 HD
ATOM     21  H   UNL d   1      29.272 -16.322   0.996  0.00  0.00     0.159 HD
ATOM     22  O   UNL d   1      28.823 -15.222  -1.002  0.00  0.00    -0.268 OA
ENDBRANCH  17  18
ENDBRANCH  11  12
ENDBRANCH   9  11
ENDBRANCH   5   9
BRANCH   1  23
ATOM     23  C   UNL d   1      24.894 -16.818  -0.985  0.00  0.00     0.042 A 
ATOM     24  C   UNL d   1      23.577 -16.414  -1.270  0.00  0.00     0.030 A 
ATOM     25  C   UNL d   1      22.444 -17.096  -0.836  0.00  0.00     0.009 A 
ATOM     26  C   UNL d   1      22.570 -18.244  -0.080  0.00  0.00    -0.061 A 
ATOM     27  C   UNL d   1      21.327 -18.950   0.373  0.00  0.00     0.048 C 
ATOM     28  C   UNL d   1      23.865 -18.687   0.230  0.00  0.00     0.015 A 
ATOM     29  C   UNL d   1      25.033 -17.987  -0.207  0.00  0.00    -0.035 A 
ATOM     30  C   UNL d   1      26.361 -18.568   0.202  0.00  0.00     0.050 C 
ENDBRANCH   1  23
TORSDOF 5
ENDMDL
MODEL 3
REMARK VINA RESULT:    -7.177      2.995      7.823
REMARK INTER + INTRA:         -11.032
REMARK INTER:                  -8.668
REMARK INTRA:                  -2.363
REMARK CONF_INDEPENDENT:        1.492
REMARK UNBOUND:                -2.363
REMARK  5 active torsions:
REMARK  status: ('A' for Active; 'I' for Inactive)
REMARK    1  A    between atoms: C_5  and  N_6 
REMARK       I    between atoms: N_6  and  C_7 
REMARK       I    between atoms: C_7  and  N_9 
REMARK       I    between atoms: N_9  and  C_10 
REMARK    2  A    between atoms: C_10  and  C_12 
REMARK    3  A    between atoms: C_12  and  S_14 
REMARK    4  A    between atoms: S_14  and  C_15 
REMARK    5  A    between atoms: C_20  and  C_21 
REMARK       I    between atoms: C_21  and  N_22 
ROOT
ATOM      1  N   UNL d   1      26.419 -16.039  -1.810  0.00  0.00    -0.308 N 
ATOM      2  C   UNL d   1      26.456 -15.726  -3.165  0.00  0.00     0.327 C 
ATOM      3  O   UNL d   1      25.534 -16.001  -3.926  0.00  0.00    -0.247 OA
ATOM      4  N   UNL d   1      27.583 -15.084  -3.636  0.00  0.00    -0.278 N 
ATOM      5  C   UNL d   1      27.654 -14.762  -4.994  0.00  0.00     0.239 C 
ATOM      6  O   UNL d   1      26.724 -14.982  -5.774  0.00  0.00    -0.272 OA
ATOM      7  H   UNL d   1      27.209 -15.803  -1.233  0.00  0.00     0.170 HD
ATOM      8  H   UNL d   1      28.349 -14.874  -3.019  0.00  0.00     0.173 HD
ENDROOT
BRANCH   5   9
ATOM      9  C   UNL d   1      28.951 -14.086  -5.520  0.00  0.00     0.141 C 
ATOM     10  C   UNL d   1      28.925 -14.016  -7.037  0.00  0.00     0.031 C 
BRANCH   9  11
ATOM     11  S   UNL d   1      28.966 -12.369  -4.819  0.00  0.00    -0.115 SA
BRANCH  11  12
ATOM     12  C   UNL d   1      27.771 -11.328  -5.634  0.00  0.00     0.017 A 
ATOM     13  C   UNL d   1      28.156 -10.458  -6.670  0.00  0.00     0.019 A 
ATOM     14  C   UNL d   1      27.259  -9.561  -7.246  0.00  0.00     0.001 A 
ATOM     15  C   UNL d   1      25.945  -9.530  -6.816  0.00  0.00     0.001 A 
ATOM     16  C   UNL d   1      25.530 -10.384  -5.795  0.00  0.00     0.018 A 
ATOM     17  C   UNL d   1      26.418 -11.302  -5.194  0.00  0.00     0.048 A 
BRANCH  17  18
ATOM     18  C   UNL d   1      25.891 -12.225  -4.112  0.00  0.00     0.250 C 
ATOM     19  N   UNL d   1      25.184 -13.339  -4.472  0.00  0.00    -0.366 N 
ATOM     20  H   UNL d   1      24.981 -13.652  -5.404  0.00  0.00     0.159 HD
ATOM     21  H   UNL d   1      24.880 -13.916  -3.698  0.00  0.00     0.159 HD
ATOM     22  O   UNL d   1      26.059 -12.077  -2.905  0.00  0.00    -0.268 OA
ENDBRANCH  17  18
ENDBRANCH  11  12
ENDBRANCH   9  11
ENDBRANCH   5   9
BRANCH   1  23
ATOM     23  C   UNL d   1      25.302 -16.705  -1.172  0.00  0.00     0.042 A 
ATOM     24  C   UNL d   1      23.977 -16.336  -1.467  0.00  0.00     0.030 A 
ATOM     25  C   UNL d   1      22.858 -16.934  -0.895  0.00  0.00     0.009 A 
ATOM     26  C   UNL d   1      23.007 -17.956   0.020  0.00  0.00    -0.061 A 
ATOM     27  C   UNL d   1      21.779 -18.575   0.618  0.00  0.00     0.048 C 
ATOM     28  C   UNL d   1      24.310 -18.360   0.346  0.00  0.00     0.015 A 
ATOM     29  C   UNL d   1      25.465 -17.745  -0.232  0.00  0.00    -0.035 A 
ATOM     30  C   UNL d   1      26.804 -18.271   0.212  0.00  0.00     0.050 C 
ENDBRANCH   1  23
TORSDOF 5
ENDMDL
MODEL 4
REMARK VINA RESULT:    -7.057      1.872      6.897
REMARK INTER + INTRA:         -11.119
REMARK INTER:                  -8.548
REMARK INTRA:                  -2.571
REMARK CONF_INDEPENDENT:        1.492
REMARK UNBOUND:                -2.571
REMARK  5 active torsions:
REMARK  status: ('A' for Active; 'I' for Inactive)
REMARK    1  A    between atoms: C_5  and  N_6 
REMARK       I    between atoms: N_6  and  C_7 
REMARK       I    between atoms: C_7  and  N_9 
REMARK       I    between atoms: N_9  and  C_10 
REMARK    2  A    between atoms: C_10  and  C_12 
REMARK    3  A    between atoms: C_12  and  S_14 
REMARK    4  A    between atoms: S_14  and  C_15 
REMARK    5  A    between atoms: C_20  and  C_21 
REMARK       I    between atoms: C_21  and  N_22 
ROOT
ATOM      1  N   UNL d   1      26.438 -15.938  -1.940  0.00  0.00    -0.308 N 
ATOM      2  C   UNL d   1      26.449 -15.655  -3.302  0.00  0.00     0.327 C 
ATOM      3  O   UNL d   1      25.530 -15.980  -4.046  0.00  0.00    -0.247 OA
ATOM      4  N   UNL d   1      27.548 -14.983  -3.799  0.00  0.00    -0.278 N 
ATOM      5  C   UNL d   1      27.593 -14.690  -5.164  0.00  0.00     0.239 C 
ATOM      6  O   UNL d   1      26.664 -14.961  -5.929  0.00  0.00    -0.272 OA
ATOM      7  H   UNL d   1      27.224 -15.660  -1.377  0.00  0.00     0.170 HD
ATOM      8  H   UNL d   1      28.311 -14.731  -3.195  0.00  0.00     0.173 HD
ENDROOT
BRANCH   5   9
ATOM      9  C   UNL d   1      28.859 -13.979  -5.719  0.00  0.00     0.141 C 
ATOM     10  C   UNL d   1      28.770 -12.484  -5.468  0.00  0.00     0.031 C 
BRANCH   9  11
ATOM     11  S   UNL d   1      30.302 -14.681  -4.790  0.00  0.00    -0.115 SA
BRANCH  11  12
ATOM     12  C   UNL d   1      30.505 -16.419  -5.129  0.00  0.00     0.017 A 
ATOM     13  C   UNL d   1      30.749 -16.878  -6.435  0.00  0.00     0.019 A 
ATOM     14  C   UNL d   1      30.805 -18.238  -6.737  0.00  0.00     0.001 A 
ATOM     15  C   UNL d   1      30.642 -19.173  -5.731  0.00  0.00     0.001 A 
ATOM     16  C   UNL d   1      30.405 -18.749  -4.424  0.00  0.00     0.018 A 
ATOM     17  C   UNL d   1      30.343 -17.379  -4.090  0.00  0.00     0.048 A 
BRANCH  17  18
ATOM     18  C   UNL d   1      30.115 -16.990  -2.643  0.00  0.00     0.250 C 
ATOM     19  N   UNL d   1      31.116 -17.190  -1.733  0.00  0.00    -0.366 N 
ATOM     20  H   UNL d   1      32.034 -17.556  -1.913  0.00  0.00     0.159 HD
ATOM     21  H   UNL d   1      30.898 -16.891  -0.791  0.00  0.00     0.159 HD
ATOM     22  O   UNL d   1      29.093 -16.477  -2.196  0.00  0.00    -0.268 OA
ENDBRANCH  17  18
ENDBRANCH  11  12
ENDBRANCH   9  11
ENDBRANCH   5   9
BRANCH   1  23
ATOM     23  C   UNL d   1      25.352 -16.629  -1.274  0.00  0.00     0.042 A 
ATOM     24  C   UNL d   1      24.013 -16.267  -1.510  0.00  0.00     0.030 A 
ATOM     25  C   UNL d   1      22.922 -16.889  -0.910  0.00  0.00     0.009 A 
ATOM     26  C   UNL d   1      23.116 -17.931  -0.025  0.00  0.00    -0.061 A 
ATOM     27  C   UNL d   1      21.917 -18.575   0.605  0.00  0.00     0.048 C 
ATOM     28  C   UNL d   1      24.435 -18.330   0.241  0.00  0.00     0.015 A 
ATOM     29  C   UNL d   1      25.561 -17.690  -0.367  0.00  0.00    -0.035 A 
ATOM     30  C   UNL d   1      26.920 -18.213   0.013  0.00  0.00     0.050 C 
ENDBRANCH   1  23
TORSDOF 5
ENDMDL
MODEL 5
REMARK VINA RESULT:    -6.959      4.515      6.979
REMARK INTER + INTRA:         -10.955
REMARK INTER:                  -8.450
REMARK INTRA:                  -2.505
REMARK CONF_INDEPENDENT:        1.492
REMARK UNBOUND:                -2.505
REMARK  5 active torsions:
REMARK  status: ('A' for Active; 'I' for Inactive)
REMARK    1  A    between atoms: C_5  and  N_6 
REMARK       I    between atoms: N_6  and  C_7 
REMARK       I    between atoms: C_7  and  N_9 
REMARK       I    between atoms: N_9  and  C_10 
REMARK    2  A    between atoms: C_10  and  C_12 
REMARK    3  A    between atoms: C_12  and  S_14 
REMARK    4  A    between atoms: S_14  and  C_15 
REMARK    5  A    between atoms: C_20  and  C_21 
REMARK       I    between atoms: C_21  and  N_22 
ROOT
ATOM      1  N   UNL d   1      25.299 -15.754  -0.983  0.00  0.00    -0.308 N 
ATOM      2  C   UNL d   1      25.292 -14.844  -2.035  0.00  0.00     0.327 C 
ATOM      3  O   UNL d   1      24.401 -14.825  -2.878  0.00  0.00    -0.247 OA
ATOM      4  N   UNL d   1      26.338 -13.947  -2.103  0.00  0.00    -0.278 N 
ATOM      5  C   UNL d   1      26.364 -13.025  -3.152  0.00  0.00     0.239 C 
ATOM      6  O   UNL d   1      25.459 -12.949  -3.987  0.00  0.00    -0.272 OA
ATOM      7  H   UNL d   1      26.061 -15.735  -0.326  0.00  0.00     0.170 HD
ATOM      8  H   UNL d   1      27.079 -13.972  -1.424  0.00  0.00     0.173 HD
ENDROOT
BRANCH   5   9
ATOM      9  C   UNL d   1      27.575 -12.054  -3.245  0.00  0.00     0.141 C 
ATOM     10  C   UNL d   1      27.112 -10.622  -3.043  0.00  0.00     0.031 C 
BRANCH   9  11
ATOM     11  S   UNL d   1      28.733 -12.532  -1.879  0.00  0.00    -0.115 SA
BRANCH  11  12
ATOM     12  C   UNL d   1      27.986 -12.282  -0.280  0.00  0.00     0.017 A 
ATOM     13  C   UNL d   1      27.519 -11.014   0.110  0.00  0.00     0.019 A 
ATOM     14  C   UNL d   1      27.030 -10.775   1.393  0.00  0.00     0.001 A 
ATOM     15  C   UNL d   1      26.971 -11.808   2.311  0.00  0.00     0.001 A 
ATOM     16  C   UNL d   1      27.420 -13.079   1.952  0.00  0.00     0.018 A 
ATOM     17  C   UNL d   1      27.921 -13.348   0.660  0.00  0.00     0.048 A 
BRANCH  17  18
ATOM     18  C   UNL d   1      28.360 -14.761   0.328  0.00  0.00     0.250 C 
ATOM     19  N   UNL d   1      29.042 -15.486   1.266  0.00  0.00    -0.366 N 
ATOM     20  H   UNL d   1      29.279 -15.198   2.198  0.00  0.00     0.159 HD
ATOM     21  H   UNL d   1      29.287 -16.425   0.979  0.00  0.00     0.159 HD
ATOM     22  O   UNL d   1      28.139 -15.345  -0.729  0.00  0.00    -0.268 OA
ENDBRANCH  17  18
ENDBRANCH  11  12
ENDBRANCH   9  11
ENDBRANCH   5   9
BRANCH   1  23
ATOM     23  C   UNL d   1      24.266 -16.749  -0.777  0.00  0.00     0.042 A 
ATOM     24  C   UNL d   1      22.916 -16.453  -1.037  0.00  0.00     0.030 A 
ATOM     25  C   UNL d   1      21.874 -17.360  -0.866  0.00  0.00     0.009 A 
ATOM     26  C   UNL d   1      22.134 -18.640  -0.419  0.00  0.00    -0.061 A 
ATOM     27  C   UNL d   1      20.986 -19.590  -0.243  0.00  0.00     0.048 C 
ATOM     28  C   UNL d   1      23.466 -18.984  -0.147  0.00  0.00     0.015 A 
ATOM     29  C   UNL d   1      24.541 -18.054  -0.314  0.00  0.00    -0.035 A 
ATOM     30  C   UNL d   1      25.922 -18.551   0.021  0.00  0.00     0.050 C 
ENDBRANCH   1  23
TORSDOF 5
ENDMDL
MODEL 6
REMARK VINA RESULT:    -6.904      3.004      6.998
REMARK INTER + INTRA:         -11.110
REMARK INTER:                  -8.395
REMARK INTRA:                  -2.714
REMARK CONF_INDEPENDENT:        1.492
REMARK UNBOUND:                -2.714
REMARK  5 active torsions:
REMARK  status: ('A' for Active; 'I' for Inactive)
REMARK    1  A    between atoms: C_5  and  N_6 
REMARK       I    between atoms: N_6  and  C_7 
REMARK       I    between atoms: C_7  and  N_9 
REMARK       I    between atoms: N_9  and  C_10 
REMARK    2  A    between atoms: C_10  and  C_12 
REMARK    3  A    between atoms: C_12  and  S_14 
REMARK    4  A    between atoms: S_14  and  C_15 
REMARK    5  A    between atoms: C_20  and  C_21 
REMARK       I    between atoms: C_21  and  N_22 
ROOT
ATOM      1  N   UNL d   1      26.406 -16.036  -1.817  0.00  0.00    -0.308 N 
ATOM      2  C   UNL d   1      26.446 -15.729  -3.173  0.00  0.00     0.327 C 
ATOM      3  O   UNL d   1      25.530 -16.017  -3.937  0.00  0.00    -0.247 OA
ATOM      4  N   UNL d   1      27.569 -15.078  -3.642  0.00  0.00    -0.278 N 
ATOM      5  C   UNL d   1      27.643 -14.762  -5.001  0.00  0.00     0.239 C 
ATOM      6  O   UNL d   1      26.719 -14.995  -5.784  0.00  0.00    -0.272 OA
ATOM      7  H   UNL d   1      27.191 -15.790  -1.237  0.00  0.00     0.170 HD
ATOM      8  H   UNL d   1      28.330 -14.858  -3.022  0.00  0.00     0.173 HD
ENDROOT
BRANCH   5   9
ATOM      9  C   UNL d   1      28.936 -14.076  -5.524  0.00  0.00     0.141 C 
ATOM     10  C   UNL d   1      28.877 -13.934  -7.035  0.00  0.00     0.031 C 
BRANCH   9  11
ATOM     11  S   UNL d   1      28.987 -12.395  -4.744  0.00  0.00    -0.115 SA
BRANCH  11  12
ATOM     12  C   UNL d   1      28.439 -12.452  -3.049  0.00  0.00     0.017 A 
ATOM     13  C   UNL d   1      29.334 -12.755  -2.009  0.00  0.00     0.019 A 
ATOM     14  C   UNL d   1      28.904 -12.909  -0.692  0.00  0.00     0.001 A 
ATOM     15  C   UNL d   1      27.568 -12.736  -0.379  0.00  0.00     0.001 A 
ATOM     16  C   UNL d   1      26.655 -12.428  -1.388  0.00  0.00     0.018 A 
ATOM     17  C   UNL d   1      27.064 -12.268  -2.730  0.00  0.00     0.048 A 
BRANCH  17  18
ATOM     18  C   UNL d   1      26.024 -11.899  -3.770  0.00  0.00     0.250 C 
ATOM     19  N   UNL d   1      25.395 -12.894  -4.467  0.00  0.00    -0.366 N 
ATOM     20  H   UNL d   1      25.522 -13.884  -4.355  0.00  0.00     0.159 HD
ATOM     21  H   UNL d   1      24.702 -12.573  -5.131  0.00  0.00     0.159 HD
ATOM     22  O   UNL d   1      25.663 -10.758  -4.044  0.00  0.00    -0.268 OA
ENDBRANCH  17  18
ENDBRANCH  11  12
ENDBRANCH   9  11
ENDBRANCH   5   9
BRANCH   1  23
ATOM     23  C   UNL d   1      25.293 -16.710  -1.180  0.00  0.00     0.042 A 
ATOM     24  C   UNL d   1      23.966 -16.340  -1.465  0.00  0.00     0.030 A 
ATOM     25  C   UNL d   1      22.850 -16.945  -0.895  0.00  0.00     0.009 A 
ATOM     26  C   UNL d   1      23.005 -17.977   0.008  0.00  0.00    -0.061 A 
ATOM     27  C   UNL d   1      21.780 -18.603   0.606  0.00  0.00     0.048 C 
ATOM     28  C   UNL d   1      24.310 -18.383   0.325  0.00  0.00     0.015 A 
ATOM     29  C   UNL d   1      25.462 -17.761  -0.253  0.00  0.00    -0.035 A 
ATOM     30  C   UNL d   1      26.803 -18.290   0.180  0.00  0.00     0.050 C 
ENDBRANCH   1  23
TORSDOF 5
ENDMDL
MODEL 7
REMARK VINA RESULT:    -6.896      4.410      7.894
REMARK INTER + INTRA:         -10.964
REMARK INTER:                  -8.387
REMARK INTRA:                  -2.577
REMARK CONF_INDEPENDENT:        1.492
REMARK UNBOUND:                -2.577
REMARK  5 active torsions:
REMARK  status: ('A' for Active; 'I' for Inactive)
REMARK    1  A    between atoms: C_5  and  N_6 
REMARK       I    between atoms: N_6  and  C_7 
REMARK       I    between atoms: C_7  and  N_9 
REMARK       I    between atoms: N_9  and  C_10 
REMARK    2  A    between atoms: C_10  and  C_12 
REMARK    3  A    between atoms: C_12  and  S_14 
REMARK    4  A    between atoms: S_14  and  C_15 
REMARK    5  A    between atoms: C_20  and  C_21 
REMARK       I    between atoms: C_21  and  N_22 
ROOT
ATOM      1  N   UNL d   1      28.131 -14.835   2.259  0.00  0.00    -0.308 N 
ATOM      2  C   UNL d   1      27.594 -13.971   1.310  0.00  0.00     0.327 C 
ATOM      3  O   UNL d   1      27.356 -12.793   1.557  0.00  0.00    -0.247 OA
ATOM      4  N   UNL d   1      27.331 -14.490   0.058  0.00  0.00    -0.278 N 
ATOM      5  C   UNL d   1      26.785 -13.650  -0.915  0.00  0.00     0.239 C 
ATOM      6  O   UNL d   1      26.580 -12.451  -0.713  0.00  0.00    -0.272 OA
ATOM      7  H   UNL d   1      28.294 -15.796   2.008  0.00  0.00     0.170 HD
ATOM      8  H   UNL d   1      27.507 -15.460  -0.142  0.00  0.00     0.173 HD
ENDROOT
BRANCH   5   9
ATOM      9  C   UNL d   1      26.447 -14.260  -2.304  0.00  0.00     0.141 C 
ATOM     10  C   UNL d   1      27.370 -13.688  -3.365  0.00  0.00     0.031 C 
BRANCH   9  11
ATOM     11  S   UNL d   1      26.729 -16.087  -2.155  0.00  0.00    -0.115 SA
BRANCH  11  12
ATOM     12  C   UNL d   1      25.397 -16.876  -1.272  0.00  0.00     0.017 A 
ATOM     13  C   UNL d   1      24.057 -16.657  -1.636  0.00  0.00     0.019 A 
ATOM     14  C   UNL d   1      23.000 -17.179  -0.893  0.00  0.00     0.001 A 
ATOM     15  C   UNL d   1      23.259 -17.958   0.220  0.00  0.00     0.001 A 
ATOM     16  C   UNL d   1      24.578 -18.200   0.603  0.00  0.00     0.018 A 
ATOM     17  C   UNL d   1      25.668 -17.682  -0.130  0.00  0.00     0.048 A 
BRANCH  17  18
ATOM     18  C   UNL d   1      27.076 -18.013   0.324  0.00  0.00     0.250 C 
ATOM     19  N   UNL d   1      27.399 -19.313   0.602  0.00  0.00    -0.366 N 
ATOM     20  H   UNL d   1      26.803 -20.116   0.515  0.00  0.00     0.159 HD
ATOM     21  H   UNL d   1      28.361 -19.459   0.882  0.00  0.00     0.159 HD
ATOM     22  O   UNL d   1      27.991 -17.205   0.453  0.00  0.00    -0.268 OA
ENDBRANCH  17  18
ENDBRANCH  11  12
ENDBRANCH   9  11
ENDBRANCH   5   9
BRANCH   1  23
ATOM     23  C   UNL d   1      28.464 -14.434   3.610  0.00  0.00     0.042 A 
ATOM     24  C   UNL d   1      27.458 -14.088   4.530  0.00  0.00     0.030 A 
ATOM     25  C   UNL d   1      27.705 -13.697   5.843  0.00  0.00     0.009 A 
ATOM     26  C   UNL d   1      29.000 -13.633   6.317  0.00  0.00    -0.061 A 
ATOM     27  C   UNL d   1      29.228 -13.205   7.736  0.00  0.00     0.048 C 
ATOM     28  C   UNL d   1      30.039 -13.970   5.436  0.00  0.00     0.015 A 
ATOM     29  C   UNL d   1      29.792 -14.365   4.084  0.00  0.00    -0.035 A 
ATOM     30  C   UNL d   1      30.999 -14.693   3.245  0.00  0.00     0.050 C 
ENDBRANCH   1  23
TORSDOF 5
ENDMDL
MODEL 8
REMARK VINA RESULT:    -6.779      2.779      6.796
REMARK INTER + INTRA:         -11.089
REMARK INTER:                  -8.270
REMARK INTRA:                  -2.819
REMARK CONF_INDEPENDENT:        1.492
REMARK UNBOUND:                -2.819
REMARK  5 active torsions:
REMARK  status: ('A' for Active; 'I' for Inactive)
REMARK    1  A    between atoms: C_5  and  N_6 
REMARK       I    between atoms: N_6  and  C_7 
REMARK       I    between atoms: C_7  and  N_9 
REMARK       I    between atoms: N_9  and  C_10 
REMARK    2  A    between atoms: C_10  and  C_12 
REMARK    3  A    between atoms: C_12  and  S_14 
REMARK    4  A    between atoms: S_14  and  C_15 
REMARK    5  A    between atoms: C_20  and  C_21 
REMARK       I    between atoms: C_21  and  N_22 
ROOT
ATOM      1  N   UNL d   1      25.240 -15.654  -0.918  0.00  0.00    -0.308 N 
ATOM      2  C   UNL d   1      25.282 -14.847  -2.049  0.00  0.00     0.327 C 
ATOM      3  O   UNL d   1      24.476 -14.963  -2.968  0.00  0.00    -0.247 OA
ATOM      4  N   UNL d   1      26.276 -13.891  -2.109  0.00  0.00    -0.278 N 
ATOM      5  C   UNL d   1      26.350 -13.068  -3.236  0.00  0.00     0.239 C 
ATOM      6  O   UNL d   1      25.526 -13.129  -4.152  0.00  0.00    -0.272 OA
ATOM      7  H   UNL d   1      25.933 -15.526  -0.200  0.00  0.00     0.170 HD
ATOM      8  H   UNL d   1      26.949 -13.806  -1.367  0.00  0.00     0.173 HD
ENDROOT
BRANCH   5   9
ATOM      9  C   UNL d   1      27.506 -12.032  -3.312  0.00  0.00     0.141 C 
ATOM     10  C   UNL d   1      27.018 -10.671  -2.847  0.00  0.00     0.031 C 
BRANCH   9  11
ATOM     11  S   UNL d   1      28.830 -12.641  -2.167  0.00  0.00    -0.115 SA
BRANCH  11  12
ATOM     12  C   UNL d   1      29.217 -14.353  -2.479  0.00  0.00     0.017 A 
ATOM     13  C   UNL d   1      29.715 -14.766  -3.727  0.00  0.00     0.019 A 
ATOM     14  C   UNL d   1      29.923 -16.112  -4.026  0.00  0.00     0.001 A 
ATOM     15  C   UNL d   1      29.661 -17.077  -3.070  0.00  0.00     0.001 A 
ATOM     16  C   UNL d   1      29.173 -16.699  -1.820  0.00  0.00     0.018 A 
ATOM     17  C   UNL d   1      28.952 -15.343  -1.491  0.00  0.00     0.048 A 
BRANCH  17  18
ATOM     18  C   UNL d   1      28.452 -15.001  -0.102  0.00  0.00     0.250 C 
ATOM     19  N   UNL d   1      28.996 -15.639   0.979  0.00  0.00    -0.366 N 
ATOM     20  H   UNL d   1      29.735 -16.319   0.971  0.00  0.00     0.159 HD
ATOM     21  H   UNL d   1      28.625 -15.347   1.874  0.00  0.00     0.159 HD
ATOM     22  O   UNL d   1      27.592 -14.165   0.160  0.00  0.00    -0.268 OA
ENDBRANCH  17  18
ENDBRANCH  11  12
ENDBRANCH   9  11
ENDBRANCH   5   9
BRANCH   1  23
ATOM     23  C   UNL d   1      24.252 -16.694  -0.711  0.00  0.00     0.042 A 
ATOM     24  C   UNL d   1      22.882 -16.434  -0.895  0.00  0.00     0.030 A 
ATOM     25  C   UNL d   1      21.880 -17.384  -0.719  0.00  0.00     0.009 A 
ATOM     26  C   UNL d   1      22.202 -18.672  -0.344  0.00  0.00    -0.061 A 
ATOM     27  C   UNL d   1      21.096 -19.669  -0.159  0.00  0.00     0.048 C 
ATOM     28  C   UNL d   1      23.557 -18.981  -0.148  0.00  0.00     0.015 A 
ATOM     29  C   UNL d   1      24.591 -18.007  -0.321  0.00  0.00    -0.035 A 
ATOM     30  C   UNL d   1      26.002 -18.470  -0.073  0.00  0.00     0.050 C 
ENDBRANCH   1  23
TORSDOF 5
ENDMDL
MODEL 9
REMARK VINA RESULT:    -6.674      3.165      6.803
REMARK INTER + INTRA:         -11.029
REMARK INTER:                  -8.165
REMARK INTRA:                  -2.864
REMARK CONF_INDEPENDENT:        1.492
REMARK UNBOUND:                -2.864
REMARK  5 active torsions:
REMARK  status: ('A' for Active; 'I' for Inactive)
REMARK    1  A    between atoms: C_5  and  N_6 
REMARK       I    between atoms: N_6  and  C_7 
REMARK       I    between atoms: C_7  and  N_9 
REMARK       I    between atoms: N_9  and  C_10 
REMARK    2  A    between atoms: C_10  and  C_12 
REMARK    3  A    between atoms: C_12  and  S_14 
REMARK    4  A    between atoms: S_14  and  C_15 
REMARK    5  A    between atoms: C_20  and  C_21 
REMARK       I    between atoms: C_21  and  N_22 
ROOT
ATOM      1  N   UNL d   1      25.226 -15.241  -1.230  0.00  0.00    -0.308 N 
ATOM      2  C   UNL d   1      25.181 -14.529  -2.424  0.00  0.00     0.327 C 
ATOM      3  O   UNL d   1      24.405 -14.817  -3.330  0.00  0.00    -0.247 OA
ATOM      4  N   UNL d   1      26.053 -13.468  -2.561  0.00  0.00    -0.278 N 
ATOM      5  C   UNL d   1      26.037 -12.737  -3.752  0.00  0.00     0.239 C 
ATOM      6  O   UNL d   1      25.237 -12.972  -4.660  0.00  0.00    -0.272 OA
ATOM      7  H   UNL d   1      25.891 -14.971  -0.525  0.00  0.00     0.170 HD
ATOM      8  H   UNL d   1      26.703 -13.241  -1.829  0.00  0.00     0.173 HD
ENDROOT
BRANCH   5   9
ATOM      9  C   UNL d   1      27.060 -11.577  -3.913  0.00  0.00     0.141 C 
ATOM     10  C   UNL d   1      27.028 -10.680  -2.688  0.00  0.00     0.031 C 
BRANCH   9  11
ATOM     11  S   UNL d   1      28.730 -12.369  -4.060  0.00  0.00    -0.115 SA
BRANCH  11  12
ATOM     12  C   UNL d   1      28.803 -13.897  -3.145  0.00  0.00     0.017 A 
ATOM     13  C   UNL d   1      29.290 -13.928  -1.827  0.00  0.00     0.019 A 
ATOM     14  C   UNL d   1      29.456 -15.126  -1.133  0.00  0.00     0.001 A 
ATOM     15  C   UNL d   1      29.112 -16.323  -1.735  0.00  0.00     0.001 A 
ATOM     16  C   UNL d   1      28.619 -16.325  -3.040  0.00  0.00     0.018 A 
ATOM     17  C   UNL d   1      28.443 -15.126  -3.766  0.00  0.00     0.048 A 
BRANCH  17  18
ATOM     18  C   UNL d   1      27.871 -15.200  -5.168  0.00  0.00     0.250 C 
ATOM     19  N   UNL d   1      26.515 -15.166  -5.338  0.00  0.00    -0.366 N 
ATOM     20  H   UNL d   1      25.817 -15.069  -4.621  0.00  0.00     0.159 HD
ATOM     21  H   UNL d   1      26.207 -15.202  -6.301  0.00  0.00     0.159 HD
ATOM     22  O   UNL d   1      28.529 -15.270  -6.202  0.00  0.00    -0.268 OA
ENDBRANCH  17  18
ENDBRANCH  11  12
ENDBRANCH   9  11
ENDBRANCH   5   9
BRANCH   1  23
ATOM     23  C   UNL d   1      24.369 -16.372  -0.939  0.00  0.00     0.042 A 
ATOM     24  C   UNL d   1      22.979 -16.297  -1.143  0.00  0.00     0.030 A 
ATOM     25  C   UNL d   1      22.098 -17.344  -0.889  0.00  0.00     0.009 A 
ATOM     26  C   UNL d   1      22.570 -18.549  -0.410  0.00  0.00    -0.061 A 
ATOM     27  C   UNL d   1      21.592 -19.654  -0.144  0.00  0.00     0.048 C 
ATOM     28  C   UNL d   1      23.951 -18.673  -0.190  0.00  0.00     0.015 A 
ATOM     29  C   UNL d   1      24.861 -17.599  -0.443  0.00  0.00    -0.035 A 
ATOM     30  C   UNL d   1      26.315 -17.865  -0.157  0.00  0.00     0.050 C 
ENDBRANCH   1  23
TORSDOF 5
ENDMDL
