MODEL 1
REMARK VINA RESULT:    -8.753      0.000      0.000
REMARK INTER + INTRA:         -14.254
REMARK INTER:                 -11.736
REMARK INTRA:                  -2.518
REMARK CONF_INDEPENDENT:        2.983
REMARK UNBOUND:                -2.518
REMARK  10 active torsions:
REMARK  status: ('A' for Active; 'I' for Inactive)
REMARK    1  A    between atoms: C_2  and  C_3 
REMARK    2  A    between atoms: C_3  and  C_4 
REMARK    3  A    between atoms: C_4  and  C_5 
REMARK    4  A    between atoms: C_4  and  N_13 
REMARK       I    between atoms: C_5  and  N_7 
REMARK    5  A    between atoms: N_7  and  C_8 
REMARK       I    between atoms: N_13  and  C_14 
REMARK    6  A    between atoms: N_13  and  C_25 
REMARK    7  A    between atoms: C_14  and  C_16 
REMARK    8  A    between atoms: C_19  and  C_20 
REMARK       I    between atoms: C_20  and  N_21 
REMARK    9  A    between atoms: C_23  and  N_24 
REMARK   10  A    between atoms: C_28  and  C_29 
ROOT
ATOM      1  N   UNL d   1      28.342 -15.173  -1.262  0.00  0.00    -0.299 N 
ATOM      2  C   UNL d   1      29.145 -14.519  -0.223  0.00  0.00     0.269 C 
ATOM      3  O   UNL d   1      30.333 -14.277  -0.426  0.00  0.00    -0.266 OA
ENDROOT
BRANCH   1   4
ATOM      4  C   UNL d   1      26.814 -15.199  -1.367  0.00  0.00     0.185 C 
BRANCH   4   5
ATOM      5  C   UNL d   1      26.288 -15.536  -2.744  0.00  0.00     0.035 C 
BRANCH   5   6
ATOM      6  C   UNL d   1      25.422 -14.586  -3.541  0.00  0.00    -0.002 C 
ATOM      7  C   UNL d   1      26.180 -14.041  -4.722  0.00  0.00     0.005 C 
ENDBRANCH   5   6
ENDBRANCH   4   5
BRANCH   4   8
ATOM      8  C   UNL d   1      26.021 -16.248  -0.584  0.00  0.00     0.241 C 
ATOM      9  O   UNL d   1      26.535 -17.153   0.048  0.00  0.00    -0.271 OA
ATOM     10  N   UNL d   1      24.650 -16.159  -0.764  0.00  0.00    -0.355 N 
ATOM     11  H   UNL d   1      24.231 -15.508  -1.416  0.00  0.00     0.162 HD
BRANCH  10  12
ATOM     12  C   UNL d   1      23.814 -17.162  -0.185  0.00  0.00     0.084 C 
ATOM     13  C   UNL d   1      22.398 -16.939  -0.666  0.00  0.00     0.025 C 
ATOM     14  C   UNL d   1      21.723 -18.258  -0.370  0.00  0.00     0.002 C 
ATOM     15  C   UNL d   1      22.820 -19.322  -0.474  0.00  0.00     0.002 C 
ATOM     16  C   UNL d   1      24.138 -18.574  -0.647  0.00  0.00     0.025 C 
ENDBRANCH  10  12
ENDBRANCH   4   8
ENDBRANCH   1   4
BRANCH   1  17
ATOM     17  C   UNL d   1      29.049 -15.758  -2.417  0.00  0.00     0.038 A 
ATOM     18  C   UNL d   1      29.131 -15.128  -3.667  0.00  0.00     0.030 A 
ATOM     19  C   UNL d   1      29.705 -15.778  -4.789  0.00  0.00     0.009 A 
ATOM     20  C   UNL d   1      30.259 -17.059  -4.681  0.00  0.00    -0.058 A 
ATOM     21  C   UNL d   1      30.198 -17.670  -3.443  0.00  0.00     0.009 A 
ATOM     22  C   UNL d   1      29.671 -17.007  -2.345  0.00  0.00     0.030 A 
BRANCH  20  23
ATOM     23  C   UNL d   1      30.972 -17.730  -5.829  0.00  0.00     0.034 C 
ATOM     24  C   UNL d   1      30.407 -19.106  -6.194  0.00  0.00     0.010 C 
ENDBRANCH  20  23
ENDBRANCH   1  17
BRANCH   2  25
ATOM     25  C   UNL d   1      28.572 -14.116   1.084  0.00  0.00     0.115 C 
ATOM     26  S   UNL d   1      27.002 -13.407   1.151  0.00  0.00     0.019 SA
ATOM     27  N   UNL d   1      26.792 -13.523   2.810  0.00  0.00    -0.203 NA
ATOM     28  C   UNL d   1      27.935 -13.959   3.362  0.00  0.00     0.155 C 
ATOM     29  C   UNL d   1      29.012 -14.215   2.401  0.00  0.00     0.065 C 
BRANCH  28  30
ATOM     30  C   UNL d   1      28.030 -14.318   4.803  0.00  0.00     0.270 C 
ATOM     31  N   UNL d   1      28.848 -15.334   5.200  0.00  0.00    -0.365 N 
ATOM     32  H   UNL d   1      29.328 -15.936   4.545  0.00  0.00     0.159 HD
ATOM     33  H   UNL d   1      28.914 -15.507   6.196  0.00  0.00     0.159 HD
ATOM     34  O   UNL d   1      27.466 -13.658   5.694  0.00  0.00    -0.266 OA
ENDBRANCH  28  30
BRANCH  29  35
ATOM     35  N   UNL d   1      30.187 -14.825   2.767  0.00  0.00    -0.299 NA
ATOM     36  H   UNL d   1      30.192 -15.181   3.737  0.00  0.00     0.124 HD
ATOM     37  H   UNL d   1      30.575 -15.543   2.158  0.00  0.00     0.124 HD
ENDBRANCH  29  35
ENDBRANCH   2  25
TORSDOF 10
ENDMDL
MODEL 2
REMARK VINA RESULT:    -8.738      2.399      7.473
REMARK INTER + INTRA:         -14.713
REMARK INTER:                 -11.721
REMARK INTRA:                  -2.992
REMARK CONF_INDEPENDENT:        2.983
REMARK UNBOUND:                -2.992
REMARK  10 active torsions:
REMARK  status: ('A' for Active; 'I' for Inactive)
REMARK    1  A    between atoms: C_2  and  C_3 
REMARK    2  A    between atoms: C_3  and  C_4 
REMARK    3  A    between atoms: C_4  and  C_5 
REMARK    4  A    between atoms: C_4  and  N_13 
REMARK       I    between atoms: C_5  and  N_7 
REMARK    5  A    between atoms: N_7  and  C_8 
REMARK       I    between atoms: N_13  and  C_14 
REMARK    6  A    between atoms: N_13  and  C_25 
REMARK    7  A    between atoms: C_14  and  C_16 
REMARK    8  A    between atoms: C_19  and  C_20 
REMARK       I    between atoms: C_20  and  N_21 
REMARK    9  A    between atoms: C_23  and  N_24 
REMARK   10  A    between atoms: C_28  and  C_29 
ROOT
ATOM      1  N   UNL d   1      25.644 -15.930  -1.417  0.00  0.00    -0.299 N 
ATOM      2  C   UNL d   1      25.382 -15.068  -2.575  0.00  0.00     0.269 C 
ATOM      3  O   UNL d   1      24.231 -14.917  -2.980  0.00  0.00    -0.266 OA
ENDROOT
BRANCH   1   4
ATOM      4  C   UNL d   1      26.897 -15.937  -0.535  0.00  0.00     0.185 C 
BRANCH   4   5
ATOM      5  C   UNL d   1      28.193 -15.753  -1.292  0.00  0.00     0.035 C 
BRANCH   5   6
ATOM      6  C   UNL d   1      29.158 -16.891  -1.542  0.00  0.00    -0.002 C 
ATOM      7  C   UNL d   1      29.609 -16.898  -2.978  0.00  0.00     0.005 C 
ENDBRANCH   5   6
ENDBRANCH   4   5
BRANCH   4   8
ATOM      8  C   UNL d   1      27.101 -14.823   0.494  0.00  0.00     0.241 C 
ATOM      9  O   UNL d   1      26.584 -13.724   0.414  0.00  0.00    -0.271 OA
ATOM     10  N   UNL d   1      28.040 -15.128   1.466  0.00  0.00    -0.355 N 
ATOM     11  H   UNL d   1      28.589 -15.978   1.440  0.00  0.00     0.162 HD
BRANCH  10  12
ATOM     12  C   UNL d   1      28.409 -14.119   2.406  0.00  0.00     0.084 C 
ATOM     13  C   UNL d   1      27.780 -14.455   3.739  0.00  0.00     0.025 C 
ATOM     14  C   UNL d   1      28.569 -13.613   4.715  0.00  0.00     0.002 C 
ATOM     15  C   UNL d   1      29.967 -13.466   4.105  0.00  0.00     0.002 C 
ATOM     16  C   UNL d   1      29.898 -14.073   2.706  0.00  0.00     0.025 C 
ENDBRANCH  10  12
ENDBRANCH   4   8
ENDBRANCH   1   4
BRANCH   1  17
ATOM     17  C   UNL d   1      24.549 -16.796  -0.937  0.00  0.00     0.038 A 
ATOM     18  C   UNL d   1      24.728 -18.146  -0.600  0.00  0.00     0.030 A 
ATOM     19  C   UNL d   1      23.629 -18.978  -0.270  0.00  0.00     0.009 A 
ATOM     20  C   UNL d   1      22.325 -18.473  -0.218  0.00  0.00    -0.058 A 
ATOM     21  C   UNL d   1      22.153 -17.138  -0.528  0.00  0.00     0.009 A 
ATOM     22  C   UNL d   1      23.240 -16.325  -0.810  0.00  0.00     0.030 A 
BRANCH  20  23
ATOM     23  C   UNL d   1      21.152 -19.309   0.235  0.00  0.00     0.034 C 
ATOM     24  C   UNL d   1      19.984 -19.333  -0.756  0.00  0.00     0.010 C 
ENDBRANCH  20  23
ENDBRANCH   1  17
BRANCH   2  25
ATOM     25  C   UNL d   1      26.466 -14.346  -3.285  0.00  0.00     0.115 C 
ATOM     26  S   UNL d   1      27.257 -13.020  -2.521  0.00  0.00     0.019 SA
ATOM     27  N   UNL d   1      28.536 -12.892  -3.597  0.00  0.00    -0.203 NA
ATOM     28  C   UNL d   1      28.327 -13.735  -4.620  0.00  0.00     0.155 C 
ATOM     29  C   UNL d   1      27.091 -14.516  -4.517  0.00  0.00     0.065 C 
BRANCH  28  30
ATOM     30  C   UNL d   1      29.355 -13.977  -5.668  0.00  0.00     0.270 C 
ATOM     31  N   UNL d   1      30.548 -13.320  -5.617  0.00  0.00    -0.365 N 
ATOM     32  H   UNL d   1      30.739 -12.586  -4.948  0.00  0.00     0.159 HD
ATOM     33  H   UNL d   1      31.233 -13.556  -6.325  0.00  0.00     0.159 HD
ATOM     34  O   UNL d   1      29.218 -14.844  -6.551  0.00  0.00    -0.266 OA
ENDBRANCH  28  30
BRANCH  29  35
ATOM     35  N   UNL d   1      26.804 -15.546  -5.380  0.00  0.00    -0.299 NA
ATOM     36  H   UNL d   1      25.793 -15.699  -5.530  0.00  0.00     0.124 HD
ATOM     37  H   UNL d   1      27.272 -15.571  -6.284  0.00  0.00     0.124 HD
ENDBRANCH  29  35
ENDBRANCH   2  25
TORSDOF 10
ENDMDL
MODEL 3
REMARK VINA RESULT:    -7.988      3.449      7.880
REMARK INTER + INTRA:         -15.058
REMARK INTER:                 -10.971
REMARK INTRA:                  -4.087
REMARK CONF_INDEPENDENT:        2.983
REMARK UNBOUND:                -4.087
REMARK  10 active torsions:
REMARK  status: ('A' for Active; 'I' for Inactive)
REMARK    1  A    between atoms: C_2  and  C_3 
REMARK    2  A    between atoms: C_3  and  C_4 
REMARK    3  A    between atoms: C_4  and  C_5 
REMARK    4  A    between atoms: C_4  and  N_13 
REMARK       I    between atoms: C_5  and  N_7 
REMARK    5  A    between atoms: N_7  and  C_8 
REMARK       I    between atoms: N_13  and  C_14 
REMARK    6  A    between atoms: N_13  and  C_25 
REMARK    7  A    between atoms: C_14  and  C_16 
REMARK    8  A    between atoms: C_19  and  C_20 
REMARK       I    between atoms: C_20  and  N_21 
REMARK    9  A    between atoms: C_23  and  N_24 
REMARK   10  A    between atoms: C_28  and  C_29 
ROOT
ATOM      1  N   UNL d   1      25.443 -15.497  -2.259  0.00  0.00    -0.299 N 
ATOM      2  C   UNL d   1      24.938 -14.488  -3.197  0.00  0.00     0.269 C 
ATOM      3  O   UNL d   1      23.730 -14.282  -3.286  0.00  0.00    -0.266 OA
ENDROOT
BRANCH   1   4
ATOM      4  C   UNL d   1      26.871 -15.624  -1.720  0.00  0.00     0.185 C 
BRANCH   4   5
ATOM      5  C   UNL d   1      27.137 -16.897  -0.948  0.00  0.00     0.035 C 
BRANCH   5   6
ATOM      6  C   UNL d   1      27.020 -16.974   0.558  0.00  0.00    -0.002 C 
ATOM      7  C   UNL d   1      26.482 -18.316   0.980  0.00  0.00     0.005 C 
ENDBRANCH   5   6
ENDBRANCH   4   5
BRANCH   4   8
ATOM      8  C   UNL d   1      28.041 -15.732  -2.701  0.00  0.00     0.241 C 
ATOM      9  O   UNL d   1      27.909 -15.950  -3.891  0.00  0.00    -0.271 OA
ATOM     10  N   UNL d   1      29.285 -15.694  -2.091  0.00  0.00    -0.355 N 
ATOM     11  H   UNL d   1      29.394 -15.675  -1.085  0.00  0.00     0.162 HD
BRANCH  10  12
ATOM     12  C   UNL d   1      30.449 -15.913  -2.888  0.00  0.00     0.084 C 
ATOM     13  C   UNL d   1      30.353 -17.291  -3.504  0.00  0.00     0.025 C 
ATOM     14  C   UNL d   1      31.362 -17.236  -4.628  0.00  0.00     0.002 C 
ATOM     15  C   UNL d   1      31.404 -15.773  -5.081  0.00  0.00     0.002 C 
ATOM     16  C   UNL d   1      30.556 -14.984  -4.087  0.00  0.00     0.025 C 
ENDBRANCH  10  12
ENDBRANCH   4   8
ENDBRANCH   1   4
BRANCH   1  17
ATOM     17  C   UNL d   1      24.468 -16.417  -1.642  0.00  0.00     0.038 A 
ATOM     18  C   UNL d   1      24.333 -17.761  -2.020  0.00  0.00     0.030 A 
ATOM     19  C   UNL d   1      23.298 -18.577  -1.498  0.00  0.00     0.009 A 
ATOM     20  C   UNL d   1      22.398 -18.087  -0.544  0.00  0.00    -0.058 A 
ATOM     21  C   UNL d   1      22.546 -16.769  -0.156  0.00  0.00     0.009 A 
ATOM     22  C   UNL d   1      23.587 -15.994  -0.643  0.00  0.00     0.030 A 
BRANCH  20  23
ATOM     23  C   UNL d   1      21.356 -18.962   0.108  0.00  0.00     0.034 C 
ATOM     24  C   UNL d   1      20.211 -19.368  -0.825  0.00  0.00     0.010 C 
ENDBRANCH  20  23
ENDBRANCH   1  17
BRANCH   2  25
ATOM     25  C   UNL d   1      25.842 -13.681  -4.053  0.00  0.00     0.115 C 
ATOM     26  S   UNL d   1      26.177 -12.041  -3.639  0.00  0.00     0.019 SA
ATOM     27  N   UNL d   1      27.459 -11.817  -4.694  0.00  0.00    -0.203 NA
ATOM     28  C   UNL d   1      27.574 -12.905  -5.473  0.00  0.00     0.155 C 
ATOM     29  C   UNL d   1      26.592 -13.956  -5.192  0.00  0.00     0.065 C 
BRANCH  28  30
ATOM     30  C   UNL d   1      28.715 -13.088  -6.411  0.00  0.00     0.270 C 
ATOM     31  N   UNL d   1      28.648 -14.035  -7.388  0.00  0.00    -0.365 N 
ATOM     32  H   UNL d   1      27.892 -14.704  -7.450  0.00  0.00     0.159 HD
ATOM     33  H   UNL d   1      29.429 -14.087  -8.031  0.00  0.00     0.159 HD
ATOM     34  O   UNL d   1      29.706 -12.335  -6.411  0.00  0.00    -0.266 OA
ENDBRANCH  28  30
BRANCH  29  35
ATOM     35  N   UNL d   1      26.669 -15.200  -5.770  0.00  0.00    -0.299 NA
ATOM     36  H   UNL d   1      27.630 -15.489  -6.018  0.00  0.00     0.124 HD
ATOM     37  H   UNL d   1      26.206 -15.982  -5.310  0.00  0.00     0.124 HD
ENDBRANCH  29  35
ENDBRANCH   2  25
TORSDOF 10
ENDMDL
MODEL 4
REMARK VINA RESULT:    -7.963      2.519      7.176
REMARK INTER + INTRA:         -14.786
REMARK INTER:                 -10.946
REMARK INTRA:                  -3.840
REMARK CONF_INDEPENDENT:        2.983
REMARK UNBOUND:                -3.840
REMARK  10 active torsions:
REMARK  status: ('A' for Active; 'I' for Inactive)
REMARK    1  A    between atoms: C_2  and  C_3 
REMARK    2  A    between atoms: C_3  and  C_4 
REMARK    3  A    between atoms: C_4  and  C_5 
REMARK    4  A    between atoms: C_4  and  N_13 
REMARK       I    between atoms: C_5  and  N_7 
REMARK    5  A    between atoms: N_7  and  C_8 
REMARK       I    between atoms: N_13  and  C_14 
REMARK    6  A    between atoms: N_13  and  C_25 
REMARK    7  A    between atoms: C_14  and  C_16 
REMARK    8  A    between atoms: C_19  and  C_20 
REMARK       I    between atoms: C_20  and  N_21 
REMARK    9  A    between atoms: C_23  and  N_24 
REMARK   10  A    between atoms: C_28  and  C_29 
ROOT
ATOM      1  N   UNL d   1      25.701 -15.988  -1.242  0.00  0.00    -0.299 N 
ATOM      2  C   UNL d   1      25.513 -15.117  -2.408  0.00  0.00     0.269 C 
ATOM      3  O   UNL d   1      24.389 -14.951  -2.876  0.00  0.00    -0.266 OA
ENDROOT
BRANCH   1   4
ATOM      4  C   UNL d   1      26.904 -16.013  -0.294  0.00  0.00     0.185 C 
BRANCH   4   5
ATOM      5  C   UNL d   1      28.245 -15.890  -0.981  0.00  0.00     0.035 C 
BRANCH   5   6
ATOM      6  C   UNL d   1      28.955 -17.073  -1.599  0.00  0.00    -0.002 C 
ATOM      7  C   UNL d   1      29.770 -16.642  -2.789  0.00  0.00     0.005 C 
ENDBRANCH   5   6
ENDBRANCH   4   5
BRANCH   4   8
ATOM      8  C   UNL d   1      27.089 -14.880   0.720  0.00  0.00     0.241 C 
ATOM      9  O   UNL d   1      26.560 -13.788   0.619  0.00  0.00    -0.271 OA
ATOM     10  N   UNL d   1      28.025 -15.160   1.703  0.00  0.00    -0.355 N 
ATOM     11  H   UNL d   1      28.583 -16.004   1.694  0.00  0.00     0.162 HD
BRANCH  10  12
ATOM     12  C   UNL d   1      28.376 -14.132   2.629  0.00  0.00     0.084 C 
ATOM     13  C   UNL d   1      27.775 -14.475   3.973  0.00  0.00     0.025 C 
ATOM     14  C   UNL d   1      28.551 -13.601   4.931  0.00  0.00     0.002 C 
ATOM     15  C   UNL d   1      29.936 -13.421   4.302  0.00  0.00     0.002 C 
ATOM     16  C   UNL d   1      29.868 -14.041   2.910  0.00  0.00     0.025 C 
ENDBRANCH  10  12
ENDBRANCH   4   8
ENDBRANCH   1   4
BRANCH   1  17
ATOM     17  C   UNL d   1      24.573 -16.843  -0.829  0.00  0.00     0.038 A 
ATOM     18  C   UNL d   1      24.712 -18.205  -0.522  0.00  0.00     0.030 A 
ATOM     19  C   UNL d   1      23.586 -19.024  -0.257  0.00  0.00     0.009 A 
ATOM     20  C   UNL d   1      22.290 -18.494  -0.241  0.00  0.00    -0.058 A 
ATOM     21  C   UNL d   1      22.156 -17.148  -0.521  0.00  0.00     0.009 A 
ATOM     22  C   UNL d   1      23.269 -16.350  -0.739  0.00  0.00     0.030 A 
BRANCH  20  23
ATOM     23  C   UNL d   1      21.086 -19.318   0.144  0.00  0.00     0.034 C 
ATOM     24  C   UNL d   1      19.960 -19.298  -0.894  0.00  0.00     0.010 C 
ENDBRANCH  20  23
ENDBRANCH   1  17
BRANCH   2  25
ATOM     25  C   UNL d   1      26.642 -14.404  -3.054  0.00  0.00     0.115 C 
ATOM     26  S   UNL d   1      27.170 -14.877  -4.625  0.00  0.00     0.019 SA
ATOM     27  N   UNL d   1      28.141 -13.546  -4.929  0.00  0.00    -0.203 NA
ATOM     28  C   UNL d   1      28.206 -12.794  -3.818  0.00  0.00     0.155 C 
ATOM     29  C   UNL d   1      27.431 -13.316  -2.689  0.00  0.00     0.065 C 
BRANCH  28  30
ATOM     30  C   UNL d   1      28.862 -11.459  -3.804  0.00  0.00     0.270 C 
ATOM     31  N   UNL d   1      29.200 -10.878  -2.619  0.00  0.00    -0.365 N 
ATOM     32  H   UNL d   1      28.933 -11.266  -1.725  0.00  0.00     0.159 HD
ATOM     33  H   UNL d   1      29.689  -9.992  -2.666  0.00  0.00     0.159 HD
ATOM     34  O   UNL d   1      29.218 -10.880  -4.847  0.00  0.00    -0.266 OA
ENDBRANCH  28  30
BRANCH  29  35
ATOM     35  N   UNL d   1      27.243 -12.593  -1.536  0.00  0.00    -0.299 NA
ATOM     36  H   UNL d   1      26.272 -12.611  -1.183  0.00  0.00     0.124 HD
ATOM     37  H   UNL d   1      27.874 -12.750  -0.752  0.00  0.00     0.124 HD
ENDBRANCH  29  35
ENDBRANCH   2  25
TORSDOF 10
ENDMDL
MODEL 5
REMARK VINA RESULT:    -7.852      3.176      7.647
REMARK INTER + INTRA:         -13.956
REMARK INTER:                 -10.835
REMARK INTRA:                  -3.121
REMARK CONF_INDEPENDENT:        2.983
REMARK UNBOUND:                -3.121
REMARK  10 active torsions:
REMARK  status: ('A' for Active; 'I' for Inactive)
REMARK    1  A    between atoms: C_2  and  C_3 
REMARK    2  A    between atoms: C_3  and  C_4 
REMARK    3  A    between atoms: C_4  and  C_5 
REMARK    4  A    between atoms: C_4  and  N_13 
REMARK       I    between atoms: C_5  and  N_7 
REMARK    5  A    between atoms: N_7  and  C_8 
REMARK       I    between atoms: N_13  and  C_14 
REMARK    6  A    between atoms: N_13  and  C_25 
REMARK    7  A    between atoms: C_14  and  C_16 
REMARK    8  A    between atoms: C_19  and  C_20 
REMARK       I    between atoms: C_20  and  N_21 
REMARK    9  A    between atoms: C_23  and  N_24 
REMARK   10  A    between atoms: C_28  and  C_29 
ROOT
ATOM      1  N   UNL d   1      26.301 -15.714  -2.565  0.00  0.00    -0.299 N 
ATOM      2  C   UNL d   1      25.958 -14.988  -3.793  0.00  0.00     0.269 C 
ATOM      3  O   UNL d   1      24.780 -14.776  -4.073  0.00  0.00    -0.266 OA
ENDROOT
BRANCH   1   4
ATOM      4  C   UNL d   1      27.656 -15.732  -1.851  0.00  0.00     0.185 C 
BRANCH   4   5
ATOM      5  C   UNL d   1      28.496 -14.494  -2.073  0.00  0.00     0.035 C 
BRANCH   5   6
ATOM      6  C   UNL d   1      30.006 -14.537  -2.145  0.00  0.00    -0.002 C 
ATOM      7  C   UNL d   1      30.485 -15.939  -2.412  0.00  0.00     0.005 C 
ENDBRANCH   5   6
ENDBRANCH   4   5
BRANCH   4   8
ATOM      8  C   UNL d   1      27.703 -15.737  -0.320  0.00  0.00     0.241 C 
ATOM      9  O   UNL d   1      27.800 -16.748   0.351  0.00  0.00    -0.271 OA
ATOM     10  N   UNL d   1      27.489 -14.491   0.248  0.00  0.00    -0.355 N 
ATOM     11  H   UNL d   1      27.248 -13.679  -0.306  0.00  0.00     0.162 HD
BRANCH  10  12
ATOM     12  C   UNL d   1      27.383 -14.393   1.668  0.00  0.00     0.084 C 
ATOM     13  C   UNL d   1      28.775 -14.449   2.256  0.00  0.00     0.025 C 
ATOM     14  C   UNL d   1      28.581 -13.907   3.652  0.00  0.00     0.002 C 
ATOM     15  C   UNL d   1      27.409 -12.924   3.560  0.00  0.00     0.002 C 
ATOM     16  C   UNL d   1      26.836 -13.060   2.152  0.00  0.00     0.025 C 
ENDBRANCH  10  12
ENDBRANCH   4   8
ENDBRANCH   1   4
BRANCH   1  17
ATOM     17  C   UNL d   1      25.213 -16.396  -1.838  0.00  0.00     0.038 A 
ATOM     18  C   UNL d   1      23.944 -15.829  -1.646  0.00  0.00     0.030 A 
ATOM     19  C   UNL d   1      22.968 -16.456  -0.831  0.00  0.00     0.009 A 
ATOM     20  C   UNL d   1      23.215 -17.694  -0.226  0.00  0.00    -0.058 A 
ATOM     21  C   UNL d   1      24.456 -18.263  -0.435  0.00  0.00     0.009 A 
ATOM     22  C   UNL d   1      25.387 -17.658  -1.266  0.00  0.00     0.030 A 
BRANCH  20  23
ATOM     23  C   UNL d   1      22.158 -18.436   0.556  0.00  0.00     0.034 C 
ATOM     24  C   UNL d   1      21.250 -19.319  -0.306  0.00  0.00     0.010 C 
ENDBRANCH  20  23
ENDBRANCH   1  17
BRANCH   2  25
ATOM     25  C   UNL d   1      26.993 -14.477  -4.725  0.00  0.00     0.115 C 
ATOM     26  S   UNL d   1      28.283 -15.506  -5.222  0.00  0.00     0.019 SA
ATOM     27  N   UNL d   1      28.850 -14.541  -6.470  0.00  0.00    -0.203 NA
ATOM     28  C   UNL d   1      28.185 -13.375  -6.453  0.00  0.00     0.155 C 
ATOM     29  C   UNL d   1      27.176 -13.270  -5.395  0.00  0.00     0.065 C 
BRANCH  28  30
ATOM     30  C   UNL d   1      28.342 -12.360  -7.529  0.00  0.00     0.270 C 
ATOM     31  N   UNL d   1      28.683 -12.749  -8.789  0.00  0.00    -0.365 N 
ATOM     32  H   UNL d   1      28.939 -13.700  -9.016  0.00  0.00     0.159 HD
ATOM     33  H   UNL d   1      28.729 -12.025  -9.496  0.00  0.00     0.159 HD
ATOM     34  O   UNL d   1      28.073 -11.157  -7.355  0.00  0.00    -0.266 OA
ENDBRANCH  28  30
BRANCH  29  35
ATOM     35  N   UNL d   1      26.287 -12.225  -5.335  0.00  0.00    -0.299 NA
ATOM     36  H   UNL d   1      26.456 -11.488  -6.039  0.00  0.00     0.124 HD
ATOM     37  H   UNL d   1      25.289 -12.431  -5.318  0.00  0.00     0.124 HD
ENDBRANCH  29  35
ENDBRANCH   2  25
TORSDOF 10
ENDMDL
MODEL 6
REMARK VINA RESULT:    -7.851      2.522      6.475
REMARK INTER + INTRA:         -14.734
REMARK INTER:                 -10.834
REMARK INTRA:                  -3.900
REMARK CONF_INDEPENDENT:        2.983
REMARK UNBOUND:                -3.900
REMARK  10 active torsions:
REMARK  status: ('A' for Active; 'I' for Inactive)
REMARK    1  A    between atoms: C_2  and  C_3 
REMARK    2  A    between atoms: C_3  and  C_4 
REMARK    3  A    between atoms: C_4  and  C_5 
REMARK    4  A    between atoms: C_4  and  N_13 
REMARK       I    between atoms: C_5  and  N_7 
REMARK    5  A    between atoms: N_7  and  C_8 
REMARK       I    between atoms: N_13  and  C_14 
REMARK    6  A    between atoms: N_13  and  C_25 
REMARK    7  A    between atoms: C_14  and  C_16 
REMARK    8  A    between atoms: C_19  and  C_20 
REMARK       I    between atoms: C_20  and  N_21 
REMARK    9  A    between atoms: C_23  and  N_24 
REMARK   10  A    between atoms: C_28  and  C_29 
ROOT
ATOM      1  N   UNL d   1      25.484 -16.394  -0.871  0.00  0.00    -0.299 N 
ATOM      2  C   UNL d   1      26.679 -16.958  -0.233  0.00  0.00     0.269 C 
ATOM      3  O   UNL d   1      26.681 -18.128   0.143  0.00  0.00    -0.266 OA
ENDROOT
BRANCH   1   4
ATOM      4  C   UNL d   1      25.409 -15.135  -1.742  0.00  0.00     0.185 C 
BRANCH   4   5
ATOM      5  C   UNL d   1      26.292 -14.000  -1.275  0.00  0.00     0.035 C 
BRANCH   5   6
ATOM      6  C   UNL d   1      26.532 -12.761  -2.108  0.00  0.00    -0.002 C 
ATOM      7  C   UNL d   1      27.996 -12.409  -2.125  0.00  0.00     0.005 C 
ENDBRANCH   5   6
ENDBRANCH   4   5
BRANCH   4   8
ATOM      8  C   UNL d   1      25.897 -15.191  -3.192  0.00  0.00     0.241 C 
ATOM      9  O   UNL d   1      25.155 -15.188  -4.157  0.00  0.00    -0.271 OA
ATOM     10  N   UNL d   1      27.265 -15.380  -3.312  0.00  0.00    -0.355 N 
ATOM     11  H   UNL d   1      27.861 -15.544  -2.510  0.00  0.00     0.162 HD
BRANCH  10  12
ATOM     12  C   UNL d   1      27.819 -15.575  -4.613  0.00  0.00     0.084 C 
ATOM     13  C   UNL d   1      27.685 -14.284  -5.388  0.00  0.00     0.025 C 
ATOM     14  C   UNL d   1      28.662 -14.462  -6.526  0.00  0.00     0.002 C 
ATOM     15  C   UNL d   1      29.771 -15.370  -5.986  0.00  0.00     0.002 C 
ATOM     16  C   UNL d   1      29.316 -15.843  -4.609  0.00  0.00     0.025 C 
ENDBRANCH  10  12
ENDBRANCH   4   8
ENDBRANCH   1   4
BRANCH   1  17
ATOM     17  C   UNL d   1      24.232 -17.173  -0.805  0.00  0.00     0.038 A 
ATOM     18  C   UNL d   1      24.200 -18.575  -0.782  0.00  0.00     0.030 A 
ATOM     19  C   UNL d   1      22.978 -19.289  -0.851  0.00  0.00     0.009 A 
ATOM     20  C   UNL d   1      21.748 -18.621  -0.895  0.00  0.00    -0.058 A 
ATOM     21  C   UNL d   1      21.780 -17.240  -0.895  0.00  0.00     0.009 A 
ATOM     22  C   UNL d   1      22.980 -16.554  -0.786  0.00  0.00     0.030 A 
BRANCH  20  23
ATOM     23  C   UNL d   1      20.429 -19.354  -0.859  0.00  0.00     0.034 C 
ATOM     24  C   UNL d   1      19.946 -19.699   0.553  0.00  0.00     0.010 C 
ENDBRANCH  20  23
ENDBRANCH   1  17
BRANCH   2  25
ATOM     25  C   UNL d   1      27.915 -16.164  -0.027  0.00  0.00     0.115 C 
ATOM     26  S   UNL d   1      28.045 -15.117   1.336  0.00  0.00     0.019 SA
ATOM     27  N   UNL d   1      29.691 -14.824   1.218  0.00  0.00    -0.203 NA
ATOM     28  C   UNL d   1      30.150 -15.382   0.086  0.00  0.00     0.155 C 
ATOM     29  C   UNL d   1      29.129 -16.077  -0.703  0.00  0.00     0.065 C 
BRANCH  28  30
ATOM     30  C   UNL d   1      31.601 -15.436  -0.236  0.00  0.00     0.270 C 
ATOM     31  N   UNL d   1      32.525 -15.313   0.758  0.00  0.00    -0.365 N 
ATOM     32  H   UNL d   1      32.276 -15.080   1.710  0.00  0.00     0.159 HD
ATOM     33  H   UNL d   1      33.499 -15.406   0.494  0.00  0.00     0.159 HD
ATOM     34  O   UNL d   1      32.022 -15.697  -1.378  0.00  0.00    -0.266 OA
ENDBRANCH  28  30
BRANCH  29  35
ATOM     35  N   UNL d   1      29.448 -16.848  -1.794  0.00  0.00    -0.299 NA
ATOM     36  H   UNL d   1      30.429 -16.751  -2.104  0.00  0.00     0.124 HD
ATOM     37  H   UNL d   1      29.211 -17.838  -1.779  0.00  0.00     0.124 HD
ENDBRANCH  29  35
ENDBRANCH   2  25
TORSDOF 10
ENDMDL
MODEL 7
REMARK VINA RESULT:    -7.725      3.323      7.681
REMARK INTER + INTRA:         -13.835
REMARK INTER:                 -10.708
REMARK INTRA:                  -3.127
REMARK CONF_INDEPENDENT:        2.983
REMARK UNBOUND:                -3.127
REMARK  10 active torsions:
REMARK  status: ('A' for Active; 'I' for Inactive)
REMARK    1  A    between atoms: C_2  and  C_3 
REMARK    2  A    between atoms: C_3  and  C_4 
REMARK    3  A    between atoms: C_4  and  C_5 
REMARK    4  A    between atoms: C_4  and  N_13 
REMARK       I    between atoms: C_5  and  N_7 
REMARK    5  A    between atoms: N_7  and  C_8 
REMARK       I    between atoms: N_13  and  C_14 
REMARK    6  A    between atoms: N_13  and  C_25 
REMARK    7  A    between atoms: C_14  and  C_16 
REMARK    8  A    between atoms: C_19  and  C_20 
REMARK       I    between atoms: C_20  and  N_21 
REMARK    9  A    between atoms: C_23  and  N_24 
REMARK   10  A    between atoms: C_28  and  C_29 
ROOT
ATOM      1  N   UNL d   1      25.714 -15.184  -2.228  0.00  0.00    -0.299 N 
ATOM      2  C   UNL d   1      25.187 -14.438  -3.376  0.00  0.00     0.269 C 
ATOM      3  O   UNL d   1      23.981 -14.450  -3.615  0.00  0.00    -0.266 OA
ENDROOT
BRANCH   1   4
ATOM      4  C   UNL d   1      27.069 -14.985  -1.541  0.00  0.00     0.185 C 
BRANCH   4   5
ATOM      5  C   UNL d   1      27.100 -15.405  -0.089  0.00  0.00     0.035 C 
BRANCH   5   6
ATOM      6  C   UNL d   1      27.538 -14.474   1.019  0.00  0.00    -0.002 C 
ATOM      7  C   UNL d   1      26.535 -13.366   1.207  0.00  0.00     0.005 C 
ENDBRANCH   5   6
ENDBRANCH   4   5
BRANCH   4   8
ATOM      8  C   UNL d   1      28.281 -15.792  -2.014  0.00  0.00     0.241 C 
ATOM      9  O   UNL d   1      28.324 -16.391  -3.073  0.00  0.00    -0.271 OA
ATOM     10  N   UNL d   1      29.285 -15.896  -1.065  0.00  0.00    -0.355 N 
ATOM     11  H   UNL d   1      29.181 -15.534  -0.125  0.00  0.00     0.162 HD
BRANCH  10  12
ATOM     12  C   UNL d   1      30.410 -16.730  -1.343  0.00  0.00     0.084 C 
ATOM     13  C   UNL d   1      31.536 -16.340  -0.412  0.00  0.00     0.025 C 
ATOM     14  C   UNL d   1      32.467 -17.528  -0.482  0.00  0.00     0.002 C 
ATOM     15  C   UNL d   1      31.576 -18.741  -0.767  0.00  0.00     0.002 C 
ATOM     16  C   UNL d   1      30.175 -18.200  -1.036  0.00  0.00     0.025 C 
ENDBRANCH  10  12
ENDBRANCH   4   8
ENDBRANCH   1   4
BRANCH   1  17
ATOM     17  C   UNL d   1      24.815 -16.139  -1.552  0.00  0.00     0.038 A 
ATOM     18  C   UNL d   1      25.212 -17.428  -1.166  0.00  0.00     0.030 A 
ATOM     19  C   UNL d   1      24.286 -18.362  -0.639  0.00  0.00     0.009 A 
ATOM     20  C   UNL d   1      22.944 -18.018  -0.435  0.00  0.00    -0.058 A 
ATOM     21  C   UNL d   1      22.559 -16.741  -0.794  0.00  0.00     0.009 A 
ATOM     22  C   UNL d   1      23.483 -15.824  -1.271  0.00  0.00     0.030 A 
BRANCH  20  23
ATOM     23  C   UNL d   1      21.962 -18.955   0.225  0.00  0.00     0.034 C 
ATOM     24  C   UNL d   1      20.672 -19.167  -0.574  0.00  0.00     0.010 C 
ENDBRANCH  20  23
ENDBRANCH   1  17
BRANCH   2  25
ATOM     25  C   UNL d   1      26.061 -13.642  -4.272  0.00  0.00     0.115 C 
ATOM     26  S   UNL d   1      26.208 -11.940  -4.038  0.00  0.00     0.019 SA
ATOM     27  N   UNL d   1      27.527 -11.705  -5.043  0.00  0.00    -0.203 NA
ATOM     28  C   UNL d   1      27.797 -12.855  -5.681  0.00  0.00     0.155 C 
ATOM     29  C   UNL d   1      26.906 -13.964  -5.330  0.00  0.00     0.065 C 
BRANCH  28  30
ATOM     30  C   UNL d   1      29.008 -13.023  -6.529  0.00  0.00     0.270 C 
ATOM     31  N   UNL d   1      29.071 -14.042  -7.433  0.00  0.00    -0.365 N 
ATOM     32  H   UNL d   1      28.368 -14.766  -7.490  0.00  0.00     0.159 HD
ATOM     33  H   UNL d   1      29.896 -14.084  -8.020  0.00  0.00     0.159 HD
ATOM     34  O   UNL d   1      29.944 -12.203  -6.527  0.00  0.00    -0.266 OA
ENDBRANCH  28  30
BRANCH  29  35
ATOM     35  N   UNL d   1      27.140 -15.250  -5.752  0.00  0.00    -0.299 NA
ATOM     36  H   UNL d   1      27.389 -15.903  -4.991  0.00  0.00     0.124 HD
ATOM     37  H   UNL d   1      26.451 -15.702  -6.351  0.00  0.00     0.124 HD
ENDBRANCH  29  35
ENDBRANCH   2  25
TORSDOF 10
ENDMDL
MODEL 8
REMARK VINA RESULT:    -7.508      2.775      5.909
REMARK INTER + INTRA:         -14.063
REMARK INTER:                 -10.491
REMARK INTRA:                  -3.572
REMARK CONF_INDEPENDENT:        2.983
REMARK UNBOUND:                -3.572
REMARK  10 active torsions:
REMARK  status: ('A' for Active; 'I' for Inactive)
REMARK    1  A    between atoms: C_2  and  C_3 
REMARK    2  A    between atoms: C_3  and  C_4 
REMARK    3  A    between atoms: C_4  and  C_5 
REMARK    4  A    between atoms: C_4  and  N_13 
REMARK       I    between atoms: C_5  and  N_7 
REMARK    5  A    between atoms: N_7  and  C_8 
REMARK       I    between atoms: N_13  and  C_14 
REMARK    6  A    between atoms: N_13  and  C_25 
REMARK    7  A    between atoms: C_14  and  C_16 
REMARK    8  A    between atoms: C_19  and  C_20 
REMARK       I    between atoms: C_20  and  N_21 
REMARK    9  A    between atoms: C_23  and  N_24 
REMARK   10  A    between atoms: C_28  and  C_29 
ROOT
ATOM      1  N   UNL d   1      28.128 -15.509  -0.373  0.00  0.00    -0.299 N 
ATOM      2  C   UNL d   1      29.404 -15.977  -0.925  0.00  0.00     0.269 C 
ATOM      3  O   UNL d   1      29.424 -16.927  -1.706  0.00  0.00    -0.266 OA
ENDROOT
BRANCH   1   4
ATOM      4  C   UNL d   1      27.844 -14.147   0.270  0.00  0.00     0.185 C 
BRANCH   4   5
ATOM      5  C   UNL d   1      26.654 -13.418  -0.311  0.00  0.00     0.035 C 
BRANCH   5   6
ATOM      6  C   UNL d   1      26.695 -12.740  -1.662  0.00  0.00    -0.002 C 
ATOM      7  C   UNL d   1      27.807 -13.304  -2.505  0.00  0.00     0.005 C 
ENDBRANCH   5   6
ENDBRANCH   4   5
BRANCH   4   8
ATOM      8  C   UNL d   1      27.426 -14.081   1.741  0.00  0.00     0.241 C 
ATOM      9  O   UNL d   1      26.492 -13.417   2.151  0.00  0.00    -0.271 OA
ATOM     10  N   UNL d   1      28.293 -14.742   2.597  0.00  0.00    -0.355 N 
ATOM     11  H   UNL d   1      29.158 -15.158   2.275  0.00  0.00     0.162 HD
BRANCH  10  12
ATOM     12  C   UNL d   1      28.078 -14.644   4.005  0.00  0.00     0.084 C 
ATOM     13  C   UNL d   1      29.366 -15.001   4.711  0.00  0.00     0.025 C 
ATOM     14  C   UNL d   1      29.160 -14.449   6.102  0.00  0.00     0.002 C 
ATOM     15  C   UNL d   1      28.234 -13.240   5.939  0.00  0.00     0.002 C 
ATOM     16  C   UNL d   1      27.780 -13.232   4.483  0.00  0.00     0.025 C 
ENDBRANCH  10  12
ENDBRANCH   4   8
ENDBRANCH   1   4
BRANCH   1  17
ATOM     17  C   UNL d   1      26.937 -16.358  -0.568  0.00  0.00     0.038 A 
ATOM     18  C   UNL d   1      26.090 -16.251  -1.681  0.00  0.00     0.030 A 
ATOM     19  C   UNL d   1      24.885 -16.992  -1.770  0.00  0.00     0.009 A 
ATOM     20  C   UNL d   1      24.516 -17.900  -0.770  0.00  0.00    -0.058 A 
ATOM     21  C   UNL d   1      25.362 -18.021   0.315  0.00  0.00     0.009 A 
ATOM     22  C   UNL d   1      26.558 -17.321   0.370  0.00  0.00     0.030 A 
BRANCH  20  23
ATOM     23  C   UNL d   1      23.296 -18.780  -0.889  0.00  0.00     0.034 C 
ATOM     24  C   UNL d   1      22.268 -18.575   0.229  0.00  0.00     0.010 C 
ENDBRANCH  20  23
ENDBRANCH   1  17
BRANCH   2  25
ATOM     25  C   UNL d   1      30.697 -15.335  -0.585  0.00  0.00     0.115 C 
ATOM     26  S   UNL d   1      31.472 -14.307  -1.731  0.00  0.00     0.019 SA
ATOM     27  N   UNL d   1      32.602 -13.644  -0.686  0.00  0.00    -0.203 NA
ATOM     28  C   UNL d   1      32.519 -14.272   0.497  0.00  0.00     0.155 C 
ATOM     29  C   UNL d   1      31.496 -15.320   0.555  0.00  0.00     0.065 C 
BRANCH  28  30
ATOM     30  C   UNL d   1      33.279 -13.813   1.691  0.00  0.00     0.270 C 
ATOM     31  N   UNL d   1      32.798 -14.059   2.942  0.00  0.00    -0.365 N 
ATOM     32  H   UNL d   1      31.883 -14.455   3.107  0.00  0.00     0.159 HD
ATOM     33  H   UNL d   1      33.377 -13.769   3.721  0.00  0.00     0.159 HD
ATOM     34  O   UNL d   1      34.408 -13.295   1.604  0.00  0.00    -0.266 OA
ENDBRANCH  28  30
BRANCH  29  35
ATOM     35  N   UNL d   1      31.155 -15.944   1.730  0.00  0.00    -0.299 NA
ATOM     36  H   UNL d   1      30.542 -15.382   2.343  0.00  0.00     0.124 HD
ATOM     37  H   UNL d   1      30.789 -16.894   1.692  0.00  0.00     0.124 HD
ENDBRANCH  29  35
ENDBRANCH   2  25
TORSDOF 10
ENDMDL
MODEL 9
REMARK VINA RESULT:    -7.348      2.830      6.579
REMARK INTER + INTRA:         -14.170
REMARK INTER:                 -10.331
REMARK INTRA:                  -3.839
REMARK CONF_INDEPENDENT:        2.983
REMARK UNBOUND:                -3.839
REMARK  10 active torsions:
REMARK  status: ('A' for Active; 'I' for Inactive)
REMARK    1  A    between atoms: C_2  and  C_3 
REMARK    2  A    between atoms: C_3  and  C_4 
REMARK    3  A    between atoms: C_4  and  C_5 
REMARK    4  A    between atoms: C_4  and  N_13 
REMARK       I    between atoms: C_5  and  N_7 
REMARK    5  A    between atoms: N_7  and  C_8 
REMARK       I    between atoms: N_13  and  C_14 
REMARK    6  A    between atoms: N_13  and  C_25 
REMARK    7  A    between atoms: C_14  and  C_16 
REMARK    8  A    between atoms: C_19  and  C_20 
REMARK       I    between atoms: C_20  and  N_21 
REMARK    9  A    between atoms: C_23  and  N_24 
REMARK   10  A    between atoms: C_28  and  C_29 
ROOT
ATOM      1  N   UNL d   1      25.673 -15.946  -1.435  0.00  0.00    -0.299 N 
ATOM      2  C   UNL d   1      26.963 -16.110  -0.755  0.00  0.00     0.269 C 
ATOM      3  O   UNL d   1      27.158 -17.085  -0.033  0.00  0.00    -0.266 OA
ENDROOT
BRANCH   1   4
ATOM      4  C   UNL d   1      25.373 -15.057  -2.646  0.00  0.00     0.185 C 
BRANCH   4   5
ATOM      5  C   UNL d   1      25.824 -13.622  -2.494  0.00  0.00     0.035 C 
BRANCH   5   6
ATOM      6  C   UNL d   1      25.530 -12.563  -3.532  0.00  0.00    -0.002 C 
ATOM      7  C   UNL d   1      26.777 -11.790  -3.870  0.00  0.00     0.005 C 
ENDBRANCH   5   6
ENDBRANCH   4   5
BRANCH   4   8
ATOM      8  C   UNL d   1      26.062 -15.347  -3.983  0.00  0.00     0.241 C 
ATOM      9  O   UNL d   1      25.530 -15.938  -4.904  0.00  0.00    -0.271 OA
ATOM     10  N   UNL d   1      27.401 -14.992  -4.008  0.00  0.00    -0.355 N 
ATOM     11  H   UNL d   1      27.885 -14.648  -3.188  0.00  0.00     0.162 HD
BRANCH  10  12
ATOM     12  C   UNL d   1      28.180 -15.329  -5.155  0.00  0.00     0.084 C 
ATOM     13  C   UNL d   1      28.155 -14.157  -6.110  0.00  0.00     0.025 C 
ATOM     14  C   UNL d   1      29.321 -14.437  -7.030  0.00  0.00     0.002 C 
ATOM     15  C   UNL d   1      30.338 -15.216  -6.189  0.00  0.00     0.002 C 
ATOM     16  C   UNL d   1      29.658 -15.526  -4.859  0.00  0.00     0.025 C 
ENDBRANCH  10  12
ENDBRANCH   4   8
ENDBRANCH   1   4
BRANCH   1  17
ATOM     17  C   UNL d   1      24.559 -16.822  -1.022  0.00  0.00     0.038 A 
ATOM     18  C   UNL d   1      24.708 -18.196  -0.786  0.00  0.00     0.030 A 
ATOM     19  C   UNL d   1      23.592 -19.028  -0.520  0.00  0.00     0.009 A 
ATOM     20  C   UNL d   1      22.298 -18.500  -0.432  0.00  0.00    -0.058 A 
ATOM     21  C   UNL d   1      22.155 -17.143  -0.642  0.00  0.00     0.009 A 
ATOM     22  C   UNL d   1      23.260 -16.334  -0.862  0.00  0.00     0.030 A 
BRANCH  20  23
ATOM     23  C   UNL d   1      21.107 -19.342  -0.044  0.00  0.00     0.034 C 
ATOM     24  C   UNL d   1      19.859 -19.087  -0.895  0.00  0.00     0.010 C 
ENDBRANCH  20  23
ENDBRANCH   1  17
BRANCH   2  25
ATOM     25  C   UNL d   1      28.070 -15.135  -0.914  0.00  0.00     0.115 C 
ATOM     26  S   UNL d   1      29.481 -15.575  -1.800  0.00  0.00     0.019 SA
ATOM     27  N   UNL d   1      30.134 -14.038  -1.932  0.00  0.00    -0.203 NA
ATOM     28  C   UNL d   1      29.393 -13.189  -1.201  0.00  0.00     0.155 C 
ATOM     29  C   UNL d   1      28.253 -13.811  -0.523  0.00  0.00     0.065 C 
BRANCH  28  30
ATOM     30  C   UNL d   1      29.615 -11.718  -1.233  0.00  0.00     0.270 C 
ATOM     31  N   UNL d   1      30.635 -11.198  -1.972  0.00  0.00    -0.365 N 
ATOM     32  H   UNL d   1      31.327 -11.776  -2.430  0.00  0.00     0.159 HD
ATOM     33  H   UNL d   1      30.714 -10.189  -2.000  0.00  0.00     0.159 HD
ATOM     34  O   UNL d   1      28.837 -10.914  -0.688  0.00  0.00    -0.266 OA
ENDBRANCH  28  30
BRANCH  29  35
ATOM     35  N   UNL d   1      27.293 -13.069   0.122  0.00  0.00    -0.299 NA
ATOM     36  H   UNL d   1      27.580 -12.098   0.326  0.00  0.00     0.124 HD
ATOM     37  H   UNL d   1      26.349 -13.054  -0.259  0.00  0.00     0.124 HD
ENDBRANCH  29  35
ENDBRANCH   2  25
TORSDOF 10
ENDMDL
