MODEL 1
REMARK VINA RESULT:   -10.752      0.000      0.000
REMARK INTER + INTRA:         -16.770
REMARK INTER:                 -14.928
REMARK INTRA:                  -1.841
REMARK CONF_INDEPENDENT:        4.176
REMARK UNBOUND:                -1.841
REMARK  14 active torsions:
REMARK  status: ('A' for Active; 'I' for Inactive)
REMARK    1  A    between atoms: C_2  and  C_3 
REMARK    2  A    between atoms: C_3  and  O_4 
REMARK    3  A    between atoms: O_4  and  C_5 
REMARK    4  A    between atoms: C_8  and  C_9 
REMARK    5  A    between atoms: C_9  and  O_11 
REMARK    6  A    between atoms: O_11  and  C_12 
REMARK    7  A    between atoms: C_15  and  C_16 
REMARK    8  A    between atoms: N_17  and  N_18 
REMARK       I    between atoms: N_18  and  C_19 
REMARK    9  A    between atoms: C_19  and  C_21 
REMARK   10  A    between atoms: C_21  and  O_22 
REMARK   11  A    between atoms: O_22  and  C_23 
REMARK   12  A    between atoms: C_26  and  N_27 
REMARK   13  A    between atoms: C_33  and  O_34 
REMARK   14  A    between atoms: O_34  and  C_35 
ROOT
ATOM      1  C   UNL d   1      26.314 -15.019  -3.118  0.00  0.00     0.112 A 
ATOM      2  C   UNL d   1      25.763 -14.116  -2.185  0.00  0.00     0.041 A 
ATOM      3  C   UNL d   1      25.556 -12.755  -2.518  0.00  0.00     0.016 A 
ATOM      4  C   UNL d   1      25.964 -12.263  -3.763  0.00  0.00    -0.014 A 
ATOM      5  C   UNL d   1      26.488 -13.176  -4.696  0.00  0.00     0.052 A 
ATOM      6  C   UNL d   1      26.646 -14.560  -4.410  0.00  0.00     0.103 A 
ENDROOT
BRANCH   4   7
ATOM      7  C   UNL d   1      25.891 -10.784  -4.068  0.00  0.00     0.150 C 
ATOM      8  N   UNL d   1      25.497  -9.921  -3.179  0.00  0.00    -0.184 NA
BRANCH   8   9
ATOM      9  N   UNL d   1      25.402  -8.572  -3.504  0.00  0.00    -0.246 N 
ATOM     10  C   UNL d   1      26.568  -7.918  -3.945  0.00  0.00     0.261 C 
ATOM     11  O   UNL d   1      27.655  -8.493  -4.037  0.00  0.00    -0.269 OA
ATOM     12  H   UNL d   1      24.514  -8.093  -3.404  0.00  0.00     0.192 HD
BRANCH  10  13
ATOM     13  C   UNL d   1      26.423  -6.413  -4.313  0.00  0.00     0.280 C 
BRANCH  13  14
ATOM     14  O   UNL d   1      26.489  -5.604  -3.124  0.00  0.00    -0.342 OA
BRANCH  14  15
ATOM     15  C   UNL d   1      26.429  -6.200  -1.895  0.00  0.00     0.069 A 
ATOM     16  C   UNL d   1      25.156  -6.262  -1.303  0.00  0.00     0.039 A 
ATOM     17  C   UNL d   1      24.983  -6.745   0.002  0.00  0.00     0.039 A 
ATOM     18  C   UNL d   1      26.091  -7.230   0.702  0.00  0.00     0.103 A 
ATOM     19  C   UNL d   1      27.369  -7.155   0.133  0.00  0.00     0.039 A 
ATOM     20  C   UNL d   1      27.534  -6.631  -1.160  0.00  0.00     0.039 A 
BRANCH  18  21
ATOM     21  N   UNL d   1      25.909  -7.876   2.012  0.00  0.00    -0.116 N 
ATOM     22  O   UNL d   1      25.112  -8.822   2.086  0.00  0.00    -0.532 OA
ATOM     23  O   UNL d   1      26.588  -7.456   2.960  0.00  0.00    -0.532 OA
ENDBRANCH  18  21
ENDBRANCH  14  15
ENDBRANCH  13  14
ENDBRANCH  10  13
ENDBRANCH   8   9
ENDBRANCH   4   7
BRANCH   6  24
ATOM     24  O   UNL d   1      27.104 -15.265  -5.508  0.00  0.00    -0.349 OA
BRANCH  24  25
ATOM     25  C   UNL d   1      28.465 -15.116  -5.863  0.00  0.00     0.171 C 
ATOM     26  C   UNL d   1      28.773 -14.119  -6.953  0.00  0.00     0.034 C 
ENDBRANCH  24  25
ENDBRANCH   6  24
BRANCH   1  27
ATOM     27  O   UNL d   1      26.333 -16.395  -2.716  0.00  0.00    -0.272 OA
BRANCH  27  28
ATOM     28  C   UNL d   1      26.246 -16.735  -1.353  0.00  0.00     0.298 C 
ATOM     29  O   UNL d   1      27.189 -16.926  -0.613  0.00  0.00    -0.259 OA
BRANCH  28  30
ATOM     30  C   UNL d   1      24.822 -17.124  -0.989  0.00  0.00     0.040 C 
ATOM     31  C   UNL d   1      23.768 -16.196  -1.129  0.00  0.00     0.020 C 
ATOM     32  C   UNL d   1      22.432 -16.576  -0.895  0.00  0.00     0.038 C 
ATOM     33  C   UNL d   1      22.123 -17.898  -0.572  0.00  0.00     0.068 C 
ATOM     34  C   UNL d   1      23.172 -18.790  -0.343  0.00  0.00     0.038 C 
ATOM     35  C   UNL d   1      24.513 -18.396  -0.513  0.00  0.00     0.020 C 
BRANCH  33  36
ATOM     36  O   UNL d   1      20.796 -18.235  -0.632  0.00  0.00    -0.351 OA
BRANCH  36  37
ATOM     37  C   UNL d   1      20.479 -19.628  -0.618  0.00  0.00     0.175 C 
BRANCH  37  38
ATOM     38  C   UNL d   1      19.765 -19.980   0.691  0.00  0.00     0.022 C 
ATOM     39  C   UNL d   1      18.514 -20.803   0.424  0.00  0.00     0.007 C 
ENDBRANCH  37  38
ENDBRANCH  36  37
ENDBRANCH  33  36
ENDBRANCH  28  30
ENDBRANCH  27  28
ENDBRANCH   1  27
TORSDOF 14
ENDMDL
MODEL 2
REMARK VINA RESULT:   -10.661      4.104      5.480
REMARK INTER + INTRA:         -16.665
REMARK INTER:                 -14.837
REMARK INTRA:                  -1.828
REMARK CONF_INDEPENDENT:        4.176
REMARK UNBOUND:                -1.828
REMARK  14 active torsions:
REMARK  status: ('A' for Active; 'I' for Inactive)
REMARK    1  A    between atoms: C_2  and  C_3 
REMARK    2  A    between atoms: C_3  and  O_4 
REMARK    3  A    between atoms: O_4  and  C_5 
REMARK    4  A    between atoms: C_8  and  C_9 
REMARK    5  A    between atoms: C_9  and  O_11 
REMARK    6  A    between atoms: O_11  and  C_12 
REMARK    7  A    between atoms: C_15  and  C_16 
REMARK    8  A    between atoms: N_17  and  N_18 
REMARK       I    between atoms: N_18  and  C_19 
REMARK    9  A    between atoms: C_19  and  C_21 
REMARK   10  A    between atoms: C_21  and  O_22 
REMARK   11  A    between atoms: O_22  and  C_23 
REMARK   12  A    between atoms: C_26  and  N_27 
REMARK   13  A    between atoms: C_33  and  O_34 
REMARK   14  A    between atoms: O_34  and  C_35 
ROOT
ATOM      1  C   UNL d   1      26.179 -14.756  -3.578  0.00  0.00     0.112 A 
ATOM      2  C   UNL d   1      25.583 -13.765  -2.769  0.00  0.00     0.041 A 
ATOM      3  C   UNL d   1      25.421 -12.438  -3.237  0.00  0.00     0.016 A 
ATOM      4  C   UNL d   1      25.917 -12.066  -4.492  0.00  0.00    -0.014 A 
ATOM      5  C   UNL d   1      26.485 -13.067  -5.302  0.00  0.00     0.052 A 
ATOM      6  C   UNL d   1      26.602 -14.421  -4.882  0.00  0.00     0.103 A 
ENDROOT
BRANCH   4   7
ATOM      7  C   UNL d   1      25.889 -10.621  -4.933  0.00  0.00     0.150 C 
ATOM      8  N   UNL d   1      25.344 -10.258  -6.057  0.00  0.00    -0.184 NA
BRANCH   8   9
ATOM      9  N   UNL d   1      25.370  -8.926  -6.453  0.00  0.00    -0.246 N 
ATOM     10  C   UNL d   1      24.437  -8.048  -5.870  0.00  0.00     0.261 C 
ATOM     11  O   UNL d   1      23.602  -8.422  -5.043  0.00  0.00    -0.269 OA
ATOM     12  H   UNL d   1      26.040  -8.624  -7.152  0.00  0.00     0.192 HD
BRANCH  10  13
ATOM     13  C   UNL d   1      24.503  -6.562  -6.325  0.00  0.00     0.280 C 
BRANCH  13  14
ATOM     14  O   UNL d   1      23.829  -6.400  -7.587  0.00  0.00    -0.342 OA
BRANCH  14  15
ATOM     15  C   UNL d   1      22.463  -6.453  -7.637  0.00  0.00     0.069 A 
ATOM     16  C   UNL d   1      21.904  -6.666  -8.908  0.00  0.00     0.039 A 
ATOM     17  C   UNL d   1      20.516  -6.627  -9.107  0.00  0.00     0.039 A 
ATOM     18  C   UNL d   1      19.674  -6.434  -8.008  0.00  0.00     0.103 A 
ATOM     19  C   UNL d   1      20.220  -6.200  -6.739  0.00  0.00     0.039 A 
ATOM     20  C   UNL d   1      21.613  -6.200  -6.561  0.00  0.00     0.039 A 
BRANCH  18  21
ATOM     21  N   UNL d   1      18.215  -6.537  -8.171  0.00  0.00    -0.116 N 
ATOM     22  O   UNL d   1      17.634  -5.622  -8.773  0.00  0.00    -0.532 OA
ATOM     23  O   UNL d   1      17.656  -7.548  -7.724  0.00  0.00    -0.532 OA
ENDBRANCH  18  21
ENDBRANCH  14  15
ENDBRANCH  13  14
ENDBRANCH  10  13
ENDBRANCH   8   9
ENDBRANCH   4   7
BRANCH   6  24
ATOM     24  O   UNL d   1      27.117 -15.228  -5.879  0.00  0.00    -0.349 OA
BRANCH  24  25
ATOM     25  C   UNL d   1      28.507 -15.151  -6.132  0.00  0.00     0.171 C 
ATOM     26  C   UNL d   1      29.419 -15.275  -4.937  0.00  0.00     0.034 C 
ENDBRANCH  24  25
ENDBRANCH   6  24
BRANCH   1  27
ATOM     27  O   UNL d   1      26.149 -16.089  -3.053  0.00  0.00    -0.272 OA
BRANCH  27  28
ATOM     28  C   UNL d   1      26.338 -16.312  -1.676  0.00  0.00     0.298 C 
ATOM     29  O   UNL d   1      27.397 -16.227  -1.089  0.00  0.00    -0.259 OA
BRANCH  28  30
ATOM     30  C   UNL d   1      25.106 -16.959  -1.064  0.00  0.00     0.040 C 
ATOM     31  C   UNL d   1      23.871 -16.276  -1.049  0.00  0.00     0.020 C 
ATOM     32  C   UNL d   1      22.700 -16.905  -0.580  0.00  0.00     0.038 C 
ATOM     33  C   UNL d   1      22.735 -18.238  -0.173  0.00  0.00     0.068 C 
ATOM     34  C   UNL d   1      23.972 -18.881  -0.100  0.00  0.00     0.038 C 
ATOM     35  C   UNL d   1      25.154 -18.235  -0.507  0.00  0.00     0.020 C 
BRANCH  33  36
ATOM     36  O   UNL d   1      21.517 -18.842   0.004  0.00  0.00    -0.351 OA
BRANCH  36  37
ATOM     37  C   UNL d   1      20.826 -19.268  -1.172  0.00  0.00     0.175 C 
BRANCH  37  38
ATOM     38  C   UNL d   1      19.321 -19.319  -0.893  0.00  0.00     0.022 C 
ATOM     39  C   UNL d   1      19.001 -20.343   0.185  0.00  0.00     0.007 C 
ENDBRANCH  37  38
ENDBRANCH  36  37
ENDBRANCH  33  36
ENDBRANCH  28  30
ENDBRANCH  27  28
ENDBRANCH   1  27
TORSDOF 14
ENDMDL
MODEL 3
REMARK VINA RESULT:   -10.424      1.233      2.371
REMARK INTER + INTRA:         -16.815
REMARK INTER:                 -14.600
REMARK INTRA:                  -2.215
REMARK CONF_INDEPENDENT:        4.176
REMARK UNBOUND:                -2.215
REMARK  14 active torsions:
REMARK  status: ('A' for Active; 'I' for Inactive)
REMARK    1  A    between atoms: C_2  and  C_3 
REMARK    2  A    between atoms: C_3  and  O_4 
REMARK    3  A    between atoms: O_4  and  C_5 
REMARK    4  A    between atoms: C_8  and  C_9 
REMARK    5  A    between atoms: C_9  and  O_11 
REMARK    6  A    between atoms: O_11  and  C_12 
REMARK    7  A    between atoms: C_15  and  C_16 
REMARK    8  A    between atoms: N_17  and  N_18 
REMARK       I    between atoms: N_18  and  C_19 
REMARK    9  A    between atoms: C_19  and  C_21 
REMARK   10  A    between atoms: C_21  and  O_22 
REMARK   11  A    between atoms: O_22  and  C_23 
REMARK   12  A    between atoms: C_26  and  N_27 
REMARK   13  A    between atoms: C_33  and  O_34 
REMARK   14  A    between atoms: O_34  and  C_35 
ROOT
ATOM      1  C   UNL d   1      26.103 -15.493  -2.348  0.00  0.00     0.112 A 
ATOM      2  C   UNL d   1      25.904 -15.167  -3.706  0.00  0.00     0.041 A 
ATOM      3  C   UNL d   1      25.862 -13.819  -4.138  0.00  0.00     0.016 A 
ATOM      4  C   UNL d   1      25.946 -12.777  -3.207  0.00  0.00    -0.014 A 
ATOM      5  C   UNL d   1      26.171 -13.111  -1.859  0.00  0.00     0.052 A 
ATOM      6  C   UNL d   1      26.282 -14.455  -1.408  0.00  0.00     0.103 A 
ENDROOT
BRANCH   4   7
ATOM      7  C   UNL d   1      25.745 -11.342  -3.638  0.00  0.00     0.150 C 
ATOM      8  N   UNL d   1      25.564 -10.387  -2.775  0.00  0.00    -0.184 NA
BRANCH   8   9
ATOM      9  N   UNL d   1      25.341  -9.084  -3.206  0.00  0.00    -0.246 N 
ATOM     10  C   UNL d   1      26.442  -8.357  -3.698  0.00  0.00     0.261 C 
ATOM     11  O   UNL d   1      27.581  -8.829  -3.744  0.00  0.00    -0.269 OA
ATOM     12  H   UNL d   1      24.410  -8.687  -3.144  0.00  0.00     0.192 HD
BRANCH  10  13
ATOM     13  C   UNL d   1      26.156  -6.907  -4.184  0.00  0.00     0.280 C 
BRANCH  13  14
ATOM     14  O   UNL d   1      26.328  -5.977  -3.099  0.00  0.00    -0.342 OA
BRANCH  14  15
ATOM     15  C   UNL d   1      26.153  -6.400  -1.810  0.00  0.00     0.069 A 
ATOM     16  C   UNL d   1      27.316  -6.803  -1.133  0.00  0.00     0.039 A 
ATOM     17  C   UNL d   1      27.253  -7.363   0.151  0.00  0.00     0.039 A 
ATOM     18  C   UNL d   1      26.015  -7.465   0.791  0.00  0.00     0.103 A 
ATOM     19  C   UNL d   1      24.845  -7.087   0.119  0.00  0.00     0.039 A 
ATOM     20  C   UNL d   1      24.918  -6.565  -1.183  0.00  0.00     0.039 A 
BRANCH  18  21
ATOM     21  N   UNL d   1      25.944  -7.912   2.192  0.00  0.00    -0.116 N 
ATOM     22  O   UNL d   1      26.650  -7.324   3.024  0.00  0.00    -0.532 OA
ATOM     23  O   UNL d   1      25.158  -8.830   2.464  0.00  0.00    -0.532 OA
ENDBRANCH  18  21
ENDBRANCH  14  15
ENDBRANCH  13  14
ENDBRANCH  10  13
ENDBRANCH   8   9
ENDBRANCH   4   7
BRANCH   6  24
ATOM     24  O   UNL d   1      26.582 -14.525  -0.060  0.00  0.00    -0.349 OA
BRANCH  24  25
ATOM     25  C   UNL d   1      27.931 -14.751   0.301  0.00  0.00     0.171 C 
ATOM     26  C   UNL d   1      28.295 -14.502   1.743  0.00  0.00     0.034 C 
ENDBRANCH  24  25
ENDBRANCH   6  24
BRANCH   1  27
ATOM     27  O   UNL d   1      26.278 -16.886  -2.060  0.00  0.00    -0.272 OA
BRANCH  27  28
ATOM     28  C   UNL d   1      25.951 -17.392  -0.788  0.00  0.00     0.298 C 
ATOM     29  O   UNL d   1      26.746 -17.804   0.031  0.00  0.00    -0.259 OA
BRANCH  28  30
ATOM     30  C   UNL d   1      24.454 -17.634  -0.677  0.00  0.00     0.040 C 
ATOM     31  C   UNL d   1      23.548 -16.553  -0.734  0.00  0.00     0.020 C 
ATOM     32  C   UNL d   1      22.156 -16.774  -0.737  0.00  0.00     0.038 C 
ATOM     33  C   UNL d   1      21.651 -18.074  -0.742  0.00  0.00     0.068 C 
ATOM     34  C   UNL d   1      22.544 -19.137  -0.592  0.00  0.00     0.038 C 
ATOM     35  C   UNL d   1      23.933 -18.916  -0.523  0.00  0.00     0.020 C 
BRANCH  33  36
ATOM     36  O   UNL d   1      20.315 -18.197  -1.020  0.00  0.00    -0.351 OA
BRANCH  36  37
ATOM     37  C   UNL d   1      19.723 -19.481  -0.811  0.00  0.00     0.175 C 
BRANCH  37  38
ATOM     38  C   UNL d   1      19.533 -19.720   0.690  0.00  0.00     0.022 C 
ATOM     39  C   UNL d   1      18.581 -20.880   0.939  0.00  0.00     0.007 C 
ENDBRANCH  37  38
ENDBRANCH  36  37
ENDBRANCH  33  36
ENDBRANCH  28  30
ENDBRANCH  27  28
ENDBRANCH   1  27
TORSDOF 14
ENDMDL
MODEL 4
REMARK VINA RESULT:   -10.351      1.243      1.973
REMARK INTER + INTRA:         -17.040
REMARK INTER:                 -14.527
REMARK INTRA:                  -2.513
REMARK CONF_INDEPENDENT:        4.176
REMARK UNBOUND:                -2.513
REMARK  14 active torsions:
REMARK  status: ('A' for Active; 'I' for Inactive)
REMARK    1  A    between atoms: C_2  and  C_3 
REMARK    2  A    between atoms: C_3  and  O_4 
REMARK    3  A    between atoms: O_4  and  C_5 
REMARK    4  A    between atoms: C_8  and  C_9 
REMARK    5  A    between atoms: C_9  and  O_11 
REMARK    6  A    between atoms: O_11  and  C_12 
REMARK    7  A    between atoms: C_15  and  C_16 
REMARK    8  A    between atoms: N_17  and  N_18 
REMARK       I    between atoms: N_18  and  C_19 
REMARK    9  A    between atoms: C_19  and  C_21 
REMARK   10  A    between atoms: C_21  and  O_22 
REMARK   11  A    between atoms: O_22  and  C_23 
REMARK   12  A    between atoms: C_26  and  N_27 
REMARK   13  A    between atoms: C_33  and  O_34 
REMARK   14  A    between atoms: O_34  and  C_35 
ROOT
ATOM      1  C   UNL d   1      26.782 -15.848  -1.386  0.00  0.00     0.112 A 
ATOM      2  C   UNL d   1      27.048 -14.977  -0.308  0.00  0.00     0.041 A 
ATOM      3  C   UNL d   1      26.998 -13.571  -0.473  0.00  0.00     0.016 A 
ATOM      4  C   UNL d   1      26.753 -13.017  -1.735  0.00  0.00    -0.014 A 
ATOM      5  C   UNL d   1      26.463 -13.892  -2.797  0.00  0.00     0.052 A 
ATOM      6  C   UNL d   1      26.443 -15.306  -2.644  0.00  0.00     0.103 A 
ENDROOT
BRANCH   4   7
ATOM      7  C   UNL d   1      26.853 -11.524  -1.952  0.00  0.00     0.150 C 
ATOM      8  N   UNL d   1      26.817 -11.001  -3.142  0.00  0.00    -0.184 NA
BRANCH   8   9
ATOM      9  N   UNL d   1      26.953  -9.628  -3.310  0.00  0.00    -0.246 N 
ATOM     10  C   UNL d   1      25.845  -8.914  -3.804  0.00  0.00     0.261 C 
ATOM     11  O   UNL d   1      24.780  -9.463  -4.099  0.00  0.00    -0.269 OA
ATOM     12  H   UNL d   1      27.836  -9.180  -3.091  0.00  0.00     0.192 HD
BRANCH  10  13
ATOM     13  C   UNL d   1      26.026  -7.377  -3.967  0.00  0.00     0.280 C 
BRANCH  13  14
ATOM     14  O   UNL d   1      26.881  -6.865  -2.929  0.00  0.00    -0.342 OA
BRANCH  14  15
ATOM     15  C   UNL d   1      26.602  -7.151  -1.620  0.00  0.00     0.069 A 
ATOM     16  C   UNL d   1      27.560  -7.923  -0.943  0.00  0.00     0.039 A 
ATOM     17  C   UNL d   1      27.336  -8.377   0.365  0.00  0.00     0.039 A 
ATOM     18  C   UNL d   1      26.165  -8.000   1.026  0.00  0.00     0.103 A 
ATOM     19  C   UNL d   1      25.192  -7.247   0.356  0.00  0.00     0.039 A 
ATOM     20  C   UNL d   1      25.410  -6.834  -0.969  0.00  0.00     0.039 A 
BRANCH  18  21
ATOM     21  N   UNL d   1      25.978  -8.342   2.446  0.00  0.00    -0.116 N 
ATOM     22  O   UNL d   1      26.656  -7.729   3.283  0.00  0.00    -0.532 OA
ATOM     23  O   UNL d   1      25.128  -9.200   2.724  0.00  0.00    -0.532 OA
ENDBRANCH  18  21
ENDBRANCH  14  15
ENDBRANCH  13  14
ENDBRANCH  10  13
ENDBRANCH   8   9
ENDBRANCH   4   7
BRANCH   6  24
ATOM     24  O   UNL d   1      26.056 -15.946  -3.807  0.00  0.00    -0.349 OA
BRANCH  24  25
ATOM     25  C   UNL d   1      26.018 -15.180  -4.996  0.00  0.00     0.171 C 
ATOM     26  C   UNL d   1      27.333 -14.966  -5.703  0.00  0.00     0.034 C 
ENDBRANCH  24  25
ENDBRANCH   6  24
BRANCH   1  27
ATOM     27  O   UNL d   1      26.715 -17.242  -1.059  0.00  0.00    -0.272 OA
BRANCH  27  28
ATOM     28  C   UNL d   1      25.913 -17.678   0.013  0.00  0.00     0.298 C 
ATOM     29  O   UNL d   1      26.323 -18.179   1.040  0.00  0.00    -0.259 OA
BRANCH  28  30
ATOM     30  C   UNL d   1      24.449 -17.717  -0.395  0.00  0.00     0.040 C 
ATOM     31  C   UNL d   1      23.792 -18.951  -0.589  0.00  0.00     0.020 C 
ATOM     32  C   UNL d   1      22.411 -19.001  -0.865  0.00  0.00     0.038 C 
ATOM     33  C   UNL d   1      21.657 -17.828  -0.894  0.00  0.00     0.068 C 
ATOM     34  C   UNL d   1      22.323 -16.605  -0.794  0.00  0.00     0.038 C 
ATOM     35  C   UNL d   1      23.714 -16.549  -0.584  0.00  0.00     0.020 C 
BRANCH  33  36
ATOM     36  O   UNL d   1      20.296 -17.990  -0.895  0.00  0.00    -0.351 OA
BRANCH  36  37
ATOM     37  C   UNL d   1      19.801 -19.325  -0.777  0.00  0.00     0.175 C 
BRANCH  37  38
ATOM     38  C   UNL d   1      19.684 -19.701   0.703  0.00  0.00     0.022 C 
ATOM     39  C   UNL d   1      18.665 -20.813   0.904  0.00  0.00     0.007 C 
ENDBRANCH  37  38
ENDBRANCH  36  37
ENDBRANCH  33  36
ENDBRANCH  28  30
ENDBRANCH  27  28
ENDBRANCH   1  27
TORSDOF 14
ENDMDL
MODEL 5
REMARK VINA RESULT:    -9.735      3.418      5.254
REMARK INTER + INTRA:         -16.341
REMARK INTER:                 -13.911
REMARK INTRA:                  -2.431
REMARK CONF_INDEPENDENT:        4.176
REMARK UNBOUND:                -2.431
REMARK  14 active torsions:
REMARK  status: ('A' for Active; 'I' for Inactive)
REMARK    1  A    between atoms: C_2  and  C_3 
REMARK    2  A    between atoms: C_3  and  O_4 
REMARK    3  A    between atoms: O_4  and  C_5 
REMARK    4  A    between atoms: C_8  and  C_9 
REMARK    5  A    between atoms: C_9  and  O_11 
REMARK    6  A    between atoms: O_11  and  C_12 
REMARK    7  A    between atoms: C_15  and  C_16 
REMARK    8  A    between atoms: N_17  and  N_18 
REMARK       I    between atoms: N_18  and  C_19 
REMARK    9  A    between atoms: C_19  and  C_21 
REMARK   10  A    between atoms: C_21  and  O_22 
REMARK   11  A    between atoms: O_22  and  C_23 
REMARK   12  A    between atoms: C_26  and  N_27 
REMARK   13  A    between atoms: C_33  and  O_34 
REMARK   14  A    between atoms: O_34  and  C_35 
ROOT
ATOM      1  C   UNL d   1      26.326 -15.586  -2.257  0.00  0.00     0.112 A 
ATOM      2  C   UNL d   1      25.985 -15.425  -3.617  0.00  0.00     0.041 A 
ATOM      3  C   UNL d   1      25.800 -14.139  -4.178  0.00  0.00     0.016 A 
ATOM      4  C   UNL d   1      25.880 -12.998  -3.371  0.00  0.00    -0.014 A 
ATOM      5  C   UNL d   1      26.246 -13.166  -2.023  0.00  0.00     0.052 A 
ATOM      6  C   UNL d   1      26.502 -14.442  -1.449  0.00  0.00     0.103 A 
ENDROOT
BRANCH   4   7
ATOM      7  C   UNL d   1      25.530 -11.636  -3.925  0.00  0.00     0.150 C 
ATOM      8  N   UNL d   1      25.505 -10.576  -3.174  0.00  0.00    -0.184 NA
BRANCH   8   9
ATOM      9  N   UNL d   1      25.139  -9.345  -3.706  0.00  0.00    -0.246 N 
ATOM     10  C   UNL d   1      25.809  -8.904  -4.863  0.00  0.00     0.261 C 
ATOM     11  O   UNL d   1      26.705  -9.560  -5.401  0.00  0.00    -0.269 OA
ATOM     12  H   UNL d   1      24.420  -8.795  -3.250  0.00  0.00     0.192 HD
BRANCH  10  13
ATOM     13  C   UNL d   1      25.366  -7.529  -5.441  0.00  0.00     0.280 C 
BRANCH  13  14
ATOM     14  O   UNL d   1      24.178  -7.069  -4.770  0.00  0.00    -0.342 OA
BRANCH  14  15
ATOM     15  C   UNL d   1      23.064  -6.759  -5.500  0.00  0.00     0.069 A 
ATOM     16  C   UNL d   1      23.160  -6.969  -6.886  0.00  0.00     0.039 A 
ATOM     17  C   UNL d   1      22.128  -6.583  -7.753  0.00  0.00     0.039 A 
ATOM     18  C   UNL d   1      20.958  -6.036  -7.221  0.00  0.00     0.103 A 
ATOM     19  C   UNL d   1      20.857  -5.803  -5.843  0.00  0.00     0.039 A 
ATOM     20  C   UNL d   1      21.915  -6.156  -4.989  0.00  0.00     0.039 A 
BRANCH  18  21
ATOM     21  N   UNL d   1      19.807  -5.762  -8.097  0.00  0.00    -0.116 N 
ATOM     22  O   UNL d   1      19.894  -4.809  -8.885  0.00  0.00    -0.532 OA
ATOM     23  O   UNL d   1      18.830  -6.520  -8.018  0.00  0.00    -0.532 OA
ENDBRANCH  18  21
ENDBRANCH  14  15
ENDBRANCH  13  14
ENDBRANCH  10  13
ENDBRANCH   8   9
ENDBRANCH   4   7
BRANCH   6  24
ATOM     24  O   UNL d   1      26.921 -14.344  -0.135  0.00  0.00    -0.349 OA
BRANCH  24  25
ATOM     25  C   UNL d   1      27.054 -13.047   0.415  0.00  0.00     0.171 C 
ATOM     26  C   UNL d   1      26.650 -12.882   1.859  0.00  0.00     0.034 C 
ENDBRANCH  24  25
ENDBRANCH   6  24
BRANCH   1  27
ATOM     27  O   UNL d   1      26.635 -16.924  -1.846  0.00  0.00    -0.272 OA
BRANCH  27  28
ATOM     28  C   UNL d   1      26.259 -17.375  -0.566  0.00  0.00     0.298 C 
ATOM     29  O   UNL d   1      27.019 -17.794   0.283  0.00  0.00    -0.259 OA
BRANCH  28  30
ATOM     30  C   UNL d   1      24.752 -17.551  -0.482  0.00  0.00     0.040 C 
ATOM     31  C   UNL d   1      23.896 -16.430  -0.530  0.00  0.00     0.020 C 
ATOM     32  C   UNL d   1      22.496 -16.587  -0.558  0.00  0.00     0.038 C 
ATOM     33  C   UNL d   1      21.933 -17.863  -0.595  0.00  0.00     0.068 C 
ATOM     34  C   UNL d   1      22.775 -18.967  -0.453  0.00  0.00     0.038 C 
ATOM     35  C   UNL d   1      24.171 -18.812  -0.360  0.00  0.00     0.020 C 
BRANCH  33  36
ATOM     36  O   UNL d   1      20.597 -17.920  -0.895  0.00  0.00    -0.351 OA
BRANCH  36  37
ATOM     37  C   UNL d   1      19.987 -19.212  -0.901  0.00  0.00     0.175 C 
BRANCH  37  38
ATOM     38  C   UNL d   1      19.378 -19.499   0.475  0.00  0.00     0.022 C 
ATOM     39  C   UNL d   1      19.094 -20.984   0.645  0.00  0.00     0.007 C 
ENDBRANCH  37  38
ENDBRANCH  36  37
ENDBRANCH  33  36
ENDBRANCH  28  30
ENDBRANCH  27  28
ENDBRANCH   1  27
TORSDOF 14
ENDMDL
MODEL 6
REMARK VINA RESULT:    -9.372      4.541      6.423
REMARK INTER + INTRA:         -15.658
REMARK INTER:                 -13.549
REMARK INTRA:                  -2.110
REMARK CONF_INDEPENDENT:        4.176
REMARK UNBOUND:                -2.110
REMARK  14 active torsions:
REMARK  status: ('A' for Active; 'I' for Inactive)
REMARK    1  A    between atoms: C_2  and  C_3 
REMARK    2  A    between atoms: C_3  and  O_4 
REMARK    3  A    between atoms: O_4  and  C_5 
REMARK    4  A    between atoms: C_8  and  C_9 
REMARK    5  A    between atoms: C_9  and  O_11 
REMARK    6  A    between atoms: O_11  and  C_12 
REMARK    7  A    between atoms: C_15  and  C_16 
REMARK    8  A    between atoms: N_17  and  N_18 
REMARK       I    between atoms: N_18  and  C_19 
REMARK    9  A    between atoms: C_19  and  C_21 
REMARK   10  A    between atoms: C_21  and  O_22 
REMARK   11  A    between atoms: O_22  and  C_23 
REMARK   12  A    between atoms: C_26  and  N_27 
REMARK   13  A    between atoms: C_33  and  O_34 
REMARK   14  A    between atoms: O_34  and  C_35 
ROOT
ATOM      1  C   UNL d   1      27.273 -15.215  -1.231  0.00  0.00     0.112 A 
ATOM      2  C   UNL d   1      27.783 -16.186  -0.343  0.00  0.00     0.041 A 
ATOM      3  C   UNL d   1      28.125 -15.853   0.990  0.00  0.00     0.016 A 
ATOM      4  C   UNL d   1      28.031 -14.528   1.432  0.00  0.00    -0.014 A 
ATOM      5  C   UNL d   1      27.497 -13.572   0.549  0.00  0.00     0.052 A 
ATOM      6  C   UNL d   1      27.085 -13.893  -0.774  0.00  0.00     0.103 A 
ENDROOT
BRANCH   4   7
ATOM      7  C   UNL d   1      28.540 -14.136   2.800  0.00  0.00     0.150 C 
ATOM      8  N   UNL d   1      29.732 -14.459   3.205  0.00  0.00    -0.184 NA
BRANCH   8   9
ATOM      9  N   UNL d   1      30.156 -14.118   4.485  0.00  0.00    -0.246 N 
ATOM     10  C   UNL d   1      29.288 -14.392   5.559  0.00  0.00     0.261 C 
ATOM     11  O   UNL d   1      28.177 -14.902   5.400  0.00  0.00    -0.269 OA
ATOM     12  H   UNL d   1      31.059 -13.675   4.614  0.00  0.00     0.192 HD
BRANCH  10  13
ATOM     13  C   UNL d   1      29.798 -14.011   6.979  0.00  0.00     0.280 C 
BRANCH  13  14
ATOM     14  O   UNL d   1      28.983 -12.962   7.533  0.00  0.00    -0.342 OA
BRANCH  14  15
ATOM     15  C   UNL d   1      28.767 -11.819   6.813  0.00  0.00     0.069 A 
ATOM     16  C   UNL d   1      27.786 -11.902   5.811  0.00  0.00     0.039 A 
ATOM     17  C   UNL d   1      27.553 -10.834   4.931  0.00  0.00     0.039 A 
ATOM     18  C   UNL d   1      28.269  -9.646   5.097  0.00  0.00     0.103 A 
ATOM     19  C   UNL d   1      29.265  -9.557   6.078  0.00  0.00     0.039 A 
ATOM     20  C   UNL d   1      29.517 -10.648   6.926  0.00  0.00     0.039 A 
BRANCH  18  21
ATOM     21  N   UNL d   1      27.937  -8.466   4.281  0.00  0.00    -0.116 N 
ATOM     22  O   UNL d   1      28.833  -7.635   4.074  0.00  0.00    -0.532 OA
ATOM     23  O   UNL d   1      26.789  -8.389   3.821  0.00  0.00    -0.532 OA
ENDBRANCH  18  21
ENDBRANCH  14  15
ENDBRANCH  13  14
ENDBRANCH  10  13
ENDBRANCH   8   9
ENDBRANCH   4   7
BRANCH   6  24
ATOM     24  O   UNL d   1      26.522 -12.807  -1.418  0.00  0.00    -0.349 OA
BRANCH  24  25
ATOM     25  C   UNL d   1      26.838 -12.618  -2.783  0.00  0.00     0.171 C 
ATOM     26  C   UNL d   1      25.775 -11.976  -3.640  0.00  0.00     0.034 C 
ENDBRANCH  24  25
ENDBRANCH   6  24
BRANCH   1  27
ATOM     27  O   UNL d   1      26.823 -15.706  -2.500  0.00  0.00    -0.272 OA
BRANCH  27  28
ATOM     28  C   UNL d   1      25.456 -15.659  -2.832  0.00  0.00     0.298 C 
ATOM     29  O   UNL d   1      24.956 -14.918  -3.654  0.00  0.00    -0.259 OA
BRANCH  28  30
ATOM     30  C   UNL d   1      24.633 -16.445  -1.824  0.00  0.00     0.040 C 
ATOM     31  C   UNL d   1      23.392 -15.950  -1.371  0.00  0.00     0.020 C 
ATOM     32  C   UNL d   1      22.573 -16.717  -0.518  0.00  0.00     0.038 C 
ATOM     33  C   UNL d   1      22.954 -18.008  -0.153  0.00  0.00     0.068 C 
ATOM     34  C   UNL d   1      24.221 -18.459  -0.525  0.00  0.00     0.038 C 
ATOM     35  C   UNL d   1      25.070 -17.669  -1.323  0.00  0.00     0.020 C 
BRANCH  33  36
ATOM     36  O   UNL d   1      21.985 -18.772   0.444  0.00  0.00    -0.351 OA
BRANCH  36  37
ATOM     37  C   UNL d   1      21.025 -19.391  -0.416  0.00  0.00     0.175 C 
BRANCH  37  38
ATOM     38  C   UNL d   1      19.640 -19.336   0.238  0.00  0.00     0.022 C 
ATOM     39  C   UNL d   1      19.630 -20.099   1.554  0.00  0.00     0.007 C 
ENDBRANCH  37  38
ENDBRANCH  36  37
ENDBRANCH  33  36
ENDBRANCH  28  30
ENDBRANCH  27  28
ENDBRANCH   1  27
TORSDOF 14
ENDMDL
MODEL 7
REMARK VINA RESULT:    -9.172      4.867      8.817
REMARK INTER + INTRA:         -15.911
REMARK INTER:                 -13.348
REMARK INTRA:                  -2.563
REMARK CONF_INDEPENDENT:        4.176
REMARK UNBOUND:                -2.563
REMARK  14 active torsions:
REMARK  status: ('A' for Active; 'I' for Inactive)
REMARK    1  A    between atoms: C_2  and  C_3 
REMARK    2  A    between atoms: C_3  and  O_4 
REMARK    3  A    between atoms: O_4  and  C_5 
REMARK    4  A    between atoms: C_8  and  C_9 
REMARK    5  A    between atoms: C_9  and  O_11 
REMARK    6  A    between atoms: O_11  and  C_12 
REMARK    7  A    between atoms: C_15  and  C_16 
REMARK    8  A    between atoms: N_17  and  N_18 
REMARK       I    between atoms: N_18  and  C_19 
REMARK    9  A    between atoms: C_19  and  C_21 
REMARK   10  A    between atoms: C_21  and  O_22 
REMARK   11  A    between atoms: O_22  and  C_23 
REMARK   12  A    between atoms: C_26  and  N_27 
REMARK   13  A    between atoms: C_33  and  O_34 
REMARK   14  A    between atoms: O_34  and  C_35 
ROOT
ATOM      1  C   UNL d   1      26.427 -15.542  -2.352  0.00  0.00     0.112 A 
ATOM      2  C   UNL d   1      27.721 -15.949  -1.967  0.00  0.00     0.041 A 
ATOM      3  C   UNL d   1      28.774 -16.033  -2.911  0.00  0.00     0.016 A 
ATOM      4  C   UNL d   1      28.528 -15.782  -4.266  0.00  0.00    -0.014 A 
ATOM      5  C   UNL d   1      27.241 -15.351  -4.636  0.00  0.00     0.052 A 
ATOM      6  C   UNL d   1      26.184 -15.195  -3.698  0.00  0.00     0.103 A 
ENDROOT
BRANCH   4   7
ATOM      7  C   UNL d   1      29.605 -16.022  -5.300  0.00  0.00     0.150 C 
ATOM      8  N   UNL d   1      29.680 -15.312  -6.386  0.00  0.00    -0.184 NA
BRANCH   8   9
ATOM      9  N   UNL d   1      30.657 -15.585  -7.337  0.00  0.00    -0.246 N 
ATOM     10  C   UNL d   1      31.926 -15.002  -7.161  0.00  0.00     0.261 C 
ATOM     11  O   UNL d   1      32.188 -14.258  -6.213  0.00  0.00    -0.269 OA
ATOM     12  H   UNL d   1      30.435 -16.176  -8.130  0.00  0.00     0.192 HD
BRANCH  10  13
ATOM     13  C   UNL d   1      33.000 -15.338  -8.236  0.00  0.00     0.280 C 
BRANCH  13  14
ATOM     14  O   UNL d   1      32.701 -16.602  -8.857  0.00  0.00    -0.342 OA
BRANCH  14  15
ATOM     15  C   UNL d   1      32.424 -17.691  -8.078  0.00  0.00     0.069 A 
ATOM     16  C   UNL d   1      31.337 -18.480  -8.489  0.00  0.00     0.039 A 
ATOM     17  C   UNL d   1      30.883 -19.555  -7.712  0.00  0.00     0.039 A 
ATOM     18  C   UNL d   1      31.566 -19.884  -6.538  0.00  0.00     0.103 A 
ATOM     19  C   UNL d   1      32.638 -19.094  -6.105  0.00  0.00     0.039 A 
ATOM     20  C   UNL d   1      33.057 -17.994  -6.872  0.00  0.00     0.039 A 
BRANCH  18  21
ATOM     21  N   UNL d   1      31.198 -21.095  -5.786  0.00  0.00    -0.116 N 
ATOM     22  O   UNL d   1      31.886 -22.113  -5.954  0.00  0.00    -0.532 OA
ATOM     23  O   UNL d   1      30.240 -21.019  -5.004  0.00  0.00    -0.532 OA
ENDBRANCH  18  21
ENDBRANCH  14  15
ENDBRANCH  13  14
ENDBRANCH  10  13
ENDBRANCH   8   9
ENDBRANCH   4   7
BRANCH   6  24
ATOM     24  O   UNL d   1      25.042 -14.685  -4.288  0.00  0.00    -0.349 OA
BRANCH  24  25
ATOM     25  C   UNL d   1      24.725 -13.329  -4.040  0.00  0.00     0.171 C 
ATOM     26  C   UNL d   1      25.842 -12.459  -3.520  0.00  0.00     0.034 C 
ENDBRANCH  24  25
ENDBRANCH   6  24
BRANCH   1  27
ATOM     27  O   UNL d   1      25.490 -15.349  -1.284  0.00  0.00    -0.272 OA
BRANCH  27  28
ATOM     28  C   UNL d   1      25.416 -16.283  -0.232  0.00  0.00     0.298 C 
ATOM     29  O   UNL d   1      26.311 -16.537   0.547  0.00  0.00    -0.259 OA
BRANCH  28  30
ATOM     30  C   UNL d   1      24.175 -17.149  -0.372  0.00  0.00     0.040 C 
ATOM     31  C   UNL d   1      22.922 -16.564  -0.659  0.00  0.00     0.020 C 
ATOM     32  C   UNL d   1      21.786 -17.364  -0.895  0.00  0.00     0.038 C 
ATOM     33  C   UNL d   1      21.895 -18.755  -0.902  0.00  0.00     0.068 C 
ATOM     34  C   UNL d   1      23.110 -19.330  -0.527  0.00  0.00     0.038 C 
ATOM     35  C   UNL d   1      24.232 -18.533  -0.228  0.00  0.00     0.020 C 
BRANCH  33  36
ATOM     36  O   UNL d   1      20.818 -19.438  -1.404  0.00  0.00    -0.351 OA
BRANCH  36  37
ATOM     37  C   UNL d   1      19.629 -19.449  -0.611  0.00  0.00     0.175 C 
BRANCH  37  38
ATOM     38  C   UNL d   1      19.735 -20.541   0.457  0.00  0.00     0.022 C 
ATOM     39  C   UNL d   1      19.877 -19.933   1.845  0.00  0.00     0.007 C 
ENDBRANCH  37  38
ENDBRANCH  36  37
ENDBRANCH  33  36
ENDBRANCH  28  30
ENDBRANCH  27  28
ENDBRANCH   1  27
TORSDOF 14
ENDMDL
MODEL 8
REMARK VINA RESULT:    -8.779      3.147      5.035
REMARK INTER + INTRA:         -15.412
REMARK INTER:                 -12.955
REMARK INTRA:                  -2.456
REMARK CONF_INDEPENDENT:        4.176
REMARK UNBOUND:                -2.456
REMARK  14 active torsions:
REMARK  status: ('A' for Active; 'I' for Inactive)
REMARK    1  A    between atoms: C_2  and  C_3 
REMARK    2  A    between atoms: C_3  and  O_4 
REMARK    3  A    between atoms: O_4  and  C_5 
REMARK    4  A    between atoms: C_8  and  C_9 
REMARK    5  A    between atoms: C_9  and  O_11 
REMARK    6  A    between atoms: O_11  and  C_12 
REMARK    7  A    between atoms: C_15  and  C_16 
REMARK    8  A    between atoms: N_17  and  N_18 
REMARK       I    between atoms: N_18  and  C_19 
REMARK    9  A    between atoms: C_19  and  C_21 
REMARK   10  A    between atoms: C_21  and  O_22 
REMARK   11  A    between atoms: O_22  and  C_23 
REMARK   12  A    between atoms: C_26  and  N_27 
REMARK   13  A    between atoms: C_33  and  O_34 
REMARK   14  A    between atoms: O_34  and  C_35 
ROOT
ATOM      1  C   UNL d   1      26.911 -15.769  -0.258  0.00  0.00     0.112 A 
ATOM      2  C   UNL d   1      27.579 -15.929   0.974  0.00  0.00     0.041 A 
ATOM      3  C   UNL d   1      27.946 -14.808   1.758  0.00  0.00     0.016 A 
ATOM      4  C   UNL d   1      27.715 -13.511   1.288  0.00  0.00    -0.014 A 
ATOM      5  C   UNL d   1      27.025 -13.361   0.071  0.00  0.00     0.052 A 
ATOM      6  C   UNL d   1      26.587 -14.470  -0.705  0.00  0.00     0.103 A 
ENDROOT
BRANCH   4   7
ATOM      7  C   UNL d   1      28.243 -12.312   2.043  0.00  0.00     0.150 C 
ATOM      8  N   UNL d   1      29.347 -12.367   2.728  0.00  0.00    -0.184 NA
BRANCH   8   9
ATOM      9  N   UNL d   1      29.784 -11.259   3.446  0.00  0.00    -0.246 N 
ATOM     10  C   UNL d   1      29.436 -11.179   4.808  0.00  0.00     0.261 C 
ATOM     11  O   UNL d   1      28.755 -12.041   5.370  0.00  0.00    -0.269 OA
ATOM     12  H   UNL d   1      30.321 -10.538   2.978  0.00  0.00     0.192 HD
BRANCH  10  13
ATOM     13  C   UNL d   1      29.952  -9.934   5.585  0.00  0.00     0.280 C 
BRANCH  13  14
ATOM     14  O   UNL d   1      28.986  -8.869   5.512  0.00  0.00    -0.342 OA
BRANCH  14  15
ATOM     15  C   UNL d   1      28.282  -8.671   4.357  0.00  0.00     0.069 A 
ATOM     16  C   UNL d   1      27.012  -9.267   4.301  0.00  0.00     0.039 A 
ATOM     17  C   UNL d   1      26.242  -9.232   3.130  0.00  0.00     0.039 A 
ATOM     18  C   UNL d   1      26.724  -8.537   2.017  0.00  0.00     0.103 A 
ATOM     19  C   UNL d   1      27.998  -7.956   2.051  0.00  0.00     0.039 A 
ATOM     20  C   UNL d   1      28.777  -8.034   3.218  0.00  0.00     0.039 A 
BRANCH  18  21
ATOM     21  N   UNL d   1      25.871  -8.363   0.830  0.00  0.00    -0.116 N 
ATOM     22  O   UNL d   1      24.780  -7.795   0.980  0.00  0.00    -0.532 OA
ATOM     23  O   UNL d   1      26.308  -8.767  -0.257  0.00  0.00    -0.532 OA
ENDBRANCH  18  21
ENDBRANCH  14  15
ENDBRANCH  13  14
ENDBRANCH  10  13
ENDBRANCH   8   9
ENDBRANCH   4   7
BRANCH   6  24
ATOM     24  O   UNL d   1      25.864 -14.071  -1.814  0.00  0.00    -0.349 OA
BRANCH  24  25
ATOM     25  C   UNL d   1      25.501 -15.065  -2.753  0.00  0.00     0.171 C 
ATOM     26  C   UNL d   1      26.086 -14.931  -4.137  0.00  0.00     0.034 C 
ENDBRANCH  24  25
ENDBRANCH   6  24
BRANCH   1  27
ATOM     27  O   UNL d   1      26.459 -16.977  -0.883  0.00  0.00    -0.272 OA
BRANCH  27  28
ATOM     28  C   UNL d   1      25.790 -17.957  -0.126  0.00  0.00     0.298 C 
ATOM     29  O   UNL d   1      26.326 -18.815   0.545  0.00  0.00    -0.259 OA
BRANCH  28  30
ATOM     30  C   UNL d   1      24.313 -17.996  -0.486  0.00  0.00     0.040 C 
ATOM     31  C   UNL d   1      23.644 -19.230  -0.631  0.00  0.00     0.020 C 
ATOM     32  C   UNL d   1      22.254 -19.279  -0.861  0.00  0.00     0.038 C 
ATOM     33  C   UNL d   1      21.507 -18.102  -0.894  0.00  0.00     0.068 C 
ATOM     34  C   UNL d   1      22.182 -16.881  -0.844  0.00  0.00     0.038 C 
ATOM     35  C   UNL d   1      23.579 -16.828  -0.679  0.00  0.00     0.020 C 
BRANCH  33  36
ATOM     36  O   UNL d   1      20.145 -18.255  -0.848  0.00  0.00    -0.351 OA
BRANCH  36  37
ATOM     37  C   UNL d   1      19.647 -19.582  -0.668  0.00  0.00     0.175 C 
BRANCH  37  38
ATOM     38  C   UNL d   1      18.984 -19.700   0.707  0.00  0.00     0.022 C 
ATOM     39  C   UNL d   1      20.028 -19.738   1.813  0.00  0.00     0.007 C 
ENDBRANCH  37  38
ENDBRANCH  36  37
ENDBRANCH  33  36
ENDBRANCH  28  30
ENDBRANCH  27  28
ENDBRANCH   1  27
TORSDOF 14
ENDMDL
MODEL 9
REMARK VINA RESULT:    -8.731      5.483     10.174
REMARK INTER + INTRA:         -15.429
REMARK INTER:                 -12.907
REMARK INTRA:                  -2.522
REMARK CONF_INDEPENDENT:        4.176
REMARK UNBOUND:                -2.522
REMARK  14 active torsions:
REMARK  status: ('A' for Active; 'I' for Inactive)
REMARK    1  A    between atoms: C_2  and  C_3 
REMARK    2  A    between atoms: C_3  and  O_4 
REMARK    3  A    between atoms: O_4  and  C_5 
REMARK    4  A    between atoms: C_8  and  C_9 
REMARK    5  A    between atoms: C_9  and  O_11 
REMARK    6  A    between atoms: O_11  and  C_12 
REMARK    7  A    between atoms: C_15  and  C_16 
REMARK    8  A    between atoms: N_17  and  N_18 
REMARK       I    between atoms: N_18  and  C_19 
REMARK    9  A    between atoms: C_19  and  C_21 
REMARK   10  A    between atoms: C_21  and  O_22 
REMARK   11  A    between atoms: O_22  and  C_23 
REMARK   12  A    between atoms: C_26  and  N_27 
REMARK   13  A    between atoms: C_33  and  O_34 
REMARK   14  A    between atoms: O_34  and  C_35 
ROOT
ATOM      1  C   UNL d   1      26.601 -15.476  -2.420  0.00  0.00     0.112 A 
ATOM      2  C   UNL d   1      27.957 -15.799  -2.201  0.00  0.00     0.041 A 
ATOM      3  C   UNL d   1      28.888 -15.810  -3.268  0.00  0.00     0.016 A 
ATOM      4  C   UNL d   1      28.463 -15.571  -4.579  0.00  0.00    -0.014 A 
ATOM      5  C   UNL d   1      27.115 -15.224  -4.785  0.00  0.00     0.052 A 
ATOM      6  C   UNL d   1      26.172 -15.142  -3.723  0.00  0.00     0.103 A 
ENDROOT
BRANCH   4   7
ATOM      7  C   UNL d   1      29.417 -15.735  -5.740  0.00  0.00     0.150 C 
ATOM      8  N   UNL d   1      29.995 -16.871  -5.996  0.00  0.00    -0.184 NA
BRANCH   8   9
ATOM      9  N   UNL d   1      30.899 -16.978  -7.047  0.00  0.00    -0.246 N 
ATOM     10  C   UNL d   1      32.174 -16.405  -6.878  0.00  0.00     0.261 C 
ATOM     11  O   UNL d   1      32.501 -15.809  -5.849  0.00  0.00    -0.269 OA
ATOM     12  H   UNL d   1      30.621 -17.446  -7.903  0.00  0.00     0.192 HD
BRANCH  10  13
ATOM     13  C   UNL d   1      33.166 -16.555  -8.067  0.00  0.00     0.280 C 
BRANCH  13  14
ATOM     14  O   UNL d   1      32.541 -17.274  -9.146  0.00  0.00    -0.342 OA
BRANCH  14  15
ATOM     15  C   UNL d   1      32.513 -18.641  -9.123  0.00  0.00     0.069 A 
ATOM     16  C   UNL d   1      33.721 -19.275  -8.789  0.00  0.00     0.039 A 
ATOM     17  C   UNL d   1      33.849 -20.671  -8.842  0.00  0.00     0.039 A 
ATOM     18  C   UNL d   1      32.735 -21.446  -9.174  0.00  0.00     0.103 A 
ATOM     19  C   UNL d   1      31.530 -20.826  -9.530  0.00  0.00     0.039 A 
ATOM     20  C   UNL d   1      31.426 -19.425  -9.513  0.00  0.00     0.039 A 
BRANCH  18  21
ATOM     21  N   UNL d   1      32.808 -22.914  -9.093  0.00  0.00    -0.116 N 
ATOM     22  O   UNL d   1      31.746 -23.540  -8.958  0.00  0.00    -0.532 OA
ATOM     23  O   UNL d   1      33.924 -23.441  -9.195  0.00  0.00    -0.532 OA
ENDBRANCH  18  21
ENDBRANCH  14  15
ENDBRANCH  13  14
ENDBRANCH  10  13
ENDBRANCH   8   9
ENDBRANCH   4   7
BRANCH   6  24
ATOM     24  O   UNL d   1      24.936 -14.707  -4.162  0.00  0.00    -0.349 OA
BRANCH  24  25
ATOM     25  C   UNL d   1      24.780 -13.324  -4.418  0.00  0.00     0.171 C 
ATOM     26  C   UNL d   1      25.541 -12.381  -3.521  0.00  0.00     0.034 C 
ENDBRANCH  24  25
ENDBRANCH   6  24
BRANCH   1  27
ATOM     27  O   UNL d   1      25.792 -15.350  -1.244  0.00  0.00    -0.272 OA
BRANCH  27  28
ATOM     28  C   UNL d   1      25.772 -16.382  -0.286  0.00  0.00     0.298 C 
ATOM     29  O   UNL d   1      26.719 -16.739   0.385  0.00  0.00    -0.259 OA
BRANCH  28  30
ATOM     30  C   UNL d   1      24.492 -17.195  -0.402  0.00  0.00     0.040 C 
ATOM     31  C   UNL d   1      23.263 -16.559  -0.681  0.00  0.00     0.020 C 
ATOM     32  C   UNL d   1      22.091 -17.311  -0.895  0.00  0.00     0.038 C 
ATOM     33  C   UNL d   1      22.140 -18.705  -0.888  0.00  0.00     0.068 C 
ATOM     34  C   UNL d   1      23.333 -19.329  -0.521  0.00  0.00     0.038 C 
ATOM     35  C   UNL d   1      24.491 -18.579  -0.243  0.00  0.00     0.020 C 
BRANCH  33  36
ATOM     36  O   UNL d   1      21.028 -19.346  -1.370  0.00  0.00    -0.351 OA
BRANCH  36  37
ATOM     37  C   UNL d   1      19.764 -18.939  -0.842  0.00  0.00     0.175 C 
BRANCH  37  38
ATOM     38  C   UNL d   1      19.182 -20.062   0.022  0.00  0.00     0.022 C 
ATOM     39  C   UNL d   1      19.905 -20.151   1.358  0.00  0.00     0.007 C 
ENDBRANCH  37  38
ENDBRANCH  36  37
ENDBRANCH  33  36
ENDBRANCH  28  30
ENDBRANCH  27  28
ENDBRANCH   1  27
TORSDOF 14
ENDMDL
