MODEL 1
REMARK VINA RESULT:    -9.248      0.000      0.000
REMARK INTER + INTRA:         -11.926
REMARK INTER:                 -10.142
REMARK INTRA:                  -1.784
REMARK CONF_INDEPENDENT:        0.895
REMARK UNBOUND:                -1.784
REMARK  3 active torsions:
REMARK  status: ('A' for Active; 'I' for Inactive)
REMARK    1  A    between atoms: C_3  and  C_4 
REMARK       I    between atoms: C_4  and  N_6 
REMARK    2  A    between atoms: N_6  and  N_7 
REMARK       I    between atoms: N_7  and  C_8 
REMARK    3  A    between atoms: C_8  and  C_10 
ROOT
ATOM      1  C   UNL d   1      24.668 -17.865  -0.523  0.00  0.00     0.294 C 
ATOM      2  O   UNL d   1      25.143 -18.573   0.374  0.00  0.00    -0.264 OA
ATOM      3  N   UNL d   1      23.295 -17.919  -0.780  0.00  0.00    -0.261 N 
ATOM      4  H   UNL d   1      22.838 -17.403  -1.511  0.00  0.00     0.190 HD
ENDROOT
BRANCH   3   5
ATOM      5  N   UNL d   1      22.383 -18.714  -0.052  0.00  0.00    -0.263 N 
ATOM      6  C   UNL d   1      21.033 -18.612  -0.394  0.00  0.00     0.270 C 
ATOM      7  O   UNL d   1      20.623 -17.853  -1.271  0.00  0.00    -0.266 OA
ATOM      8  H   UNL d   1      22.769 -19.403   0.589  0.00  0.00     0.190 HD
BRANCH   6   9
ATOM      9  C   UNL d   1      20.076 -19.479   0.349  0.00  0.00     0.035 A 
ATOM     10  C   UNL d   1      19.002 -20.070  -0.324  0.00  0.00     0.017 A 
ATOM     11  C   UNL d   1      18.105 -20.892   0.364  0.00  0.00     0.003 A 
ATOM     12  C   UNL d   1      18.271 -21.121   1.730  0.00  0.00     0.024 A 
ATOM     13  C   UNL d   1      19.352 -20.547   2.399  0.00  0.00     0.035 A 
ATOM     14 CL   UNL d   1      19.531 -20.825   4.091  0.00  0.00    -0.084 Cl
ATOM     15  C   UNL d   1      20.270 -19.745   1.715  0.00  0.00     0.041 A 
ENDBRANCH   6   9
ENDBRANCH   3   5
BRANCH   1  16
ATOM     16  C   UNL d   1      25.477 -16.942  -1.357  0.00  0.00     0.152 A 
ATOM     17  C   UNL d   1      26.818 -16.548  -1.347  0.00  0.00    -0.009 A 
ATOM     18  C   UNL d   1      27.942 -16.943  -0.468  0.00  0.00     0.052 C 
ATOM     19  C   UNL d   1      27.001 -15.625  -2.430  0.00  0.00     0.007 A 
ATOM     20  C   UNL d   1      28.106 -14.897  -2.927  0.00  0.00     0.015 A 
ATOM     21  C   UNL d   1      25.780 -15.510  -3.070  0.00  0.00     0.087 A 
ATOM     22  C   UNL d   1      27.951 -14.093  -4.060  0.00  0.00     0.001 A 
ATOM     23  C   UNL d   1      26.712 -14.003  -4.693  0.00  0.00     0.003 A 
ATOM     24  C   UNL d   1      25.592 -14.708  -4.207  0.00  0.00     0.038 A 
ATOM     25  O   UNL d   1      24.854 -16.291  -2.424  0.00  0.00    -0.304 OA
ENDBRANCH   1  16
TORSDOF 3
ENDMDL
MODEL 2
REMARK VINA RESULT:    -7.270      5.351      8.069
REMARK INTER + INTRA:          -9.649
REMARK INTER:                  -8.165
REMARK INTRA:                  -1.484
REMARK CONF_INDEPENDENT:        0.895
REMARK UNBOUND:                -1.484
REMARK  3 active torsions:
REMARK  status: ('A' for Active; 'I' for Inactive)
REMARK    1  A    between atoms: C_3  and  C_4 
REMARK       I    between atoms: C_4  and  N_6 
REMARK    2  A    between atoms: N_6  and  N_7 
REMARK       I    between atoms: N_7  and  C_8 
REMARK    3  A    between atoms: C_8  and  C_10 
ROOT
ATOM      1  C   UNL d   1      25.918 -10.648  -3.491  0.00  0.00     0.294 C 
ATOM      2  O   UNL d   1      26.687 -10.426  -2.547  0.00  0.00    -0.264 OA
ATOM      3  N   UNL d   1      25.383 -11.930  -3.648  0.00  0.00    -0.261 N 
ATOM      4  H   UNL d   1      24.780 -12.201  -4.404  0.00  0.00     0.190 HD
ENDROOT
BRANCH   3   5
ATOM      5  N   UNL d   1      25.634 -13.007  -2.768  0.00  0.00    -0.263 N 
ATOM      6  C   UNL d   1      25.153 -14.262  -3.144  0.00  0.00     0.270 C 
ATOM      7  O   UNL d   1      24.514 -14.450  -4.179  0.00  0.00    -0.266 OA
ATOM      8  H   UNL d   1      26.252 -12.834  -1.981  0.00  0.00     0.190 HD
BRANCH   6   9
ATOM      9  C   UNL d   1      25.450 -15.404  -2.235  0.00  0.00     0.035 A 
ATOM     10  C   UNL d   1      26.769 -15.660  -1.845  0.00  0.00     0.017 A 
ATOM     11  C   UNL d   1      27.055 -16.724  -0.984  0.00  0.00     0.003 A 
ATOM     12  C   UNL d   1      26.027 -17.543  -0.516  0.00  0.00     0.024 A 
ATOM     13  C   UNL d   1      24.710 -17.278  -0.890  0.00  0.00     0.035 A 
ATOM     14 CL   UNL d   1      23.455 -18.311  -0.318  0.00  0.00    -0.084 Cl
ATOM     15  C   UNL d   1      24.409 -16.201  -1.729  0.00  0.00     0.041 A 
ENDBRANCH   6   9
ENDBRANCH   3   5
BRANCH   1  16
ATOM     16  C   UNL d   1      25.517  -9.621  -4.483  0.00  0.00     0.152 A 
ATOM     17  C   UNL d   1      26.007  -9.237  -5.735  0.00  0.00    -0.009 A 
ATOM     18  C   UNL d   1      27.137  -9.756  -6.539  0.00  0.00     0.052 C 
ATOM     19  C   UNL d   1      25.172  -8.173  -6.214  0.00  0.00     0.007 A 
ATOM     20  C   UNL d   1      25.156  -7.386  -7.388  0.00  0.00     0.015 A 
ATOM     21  C   UNL d   1      24.198  -7.965  -5.254  0.00  0.00     0.087 A 
ATOM     22  C   UNL d   1      24.151  -6.432  -7.566  0.00  0.00     0.001 A 
ATOM     23  C   UNL d   1      23.173  -6.249  -6.589  0.00  0.00     0.003 A 
ATOM     24  C   UNL d   1      23.179  -7.011  -5.403  0.00  0.00     0.038 A 
ATOM     25  O   UNL d   1      24.404  -8.825  -4.204  0.00  0.00    -0.304 OA
ENDBRANCH   1  16
TORSDOF 3
ENDMDL
MODEL 3
REMARK VINA RESULT:    -7.218      5.623      9.966
REMARK INTER + INTRA:          -9.589
REMARK INTER:                  -8.113
REMARK INTRA:                  -1.477
REMARK CONF_INDEPENDENT:        0.895
REMARK UNBOUND:                -1.477
REMARK  3 active torsions:
REMARK  status: ('A' for Active; 'I' for Inactive)
REMARK    1  A    between atoms: C_3  and  C_4 
REMARK       I    between atoms: C_4  and  N_6 
REMARK    2  A    between atoms: N_6  and  N_7 
REMARK       I    between atoms: N_7  and  C_8 
REMARK    3  A    between atoms: C_8  and  C_10 
ROOT
ATOM      1  C   UNL d   1      25.182 -13.876  -3.542  0.00  0.00     0.294 C 
ATOM      2  O   UNL d   1      24.658 -14.075  -4.645  0.00  0.00    -0.264 OA
ATOM      3  N   UNL d   1      25.575 -12.579  -3.198  0.00  0.00    -0.261 N 
ATOM      4  H   UNL d   1      26.036 -12.339  -2.338  0.00  0.00     0.190 HD
ENDROOT
BRANCH   3   5
ATOM      5  N   UNL d   1      25.381 -11.447  -4.021  0.00  0.00    -0.263 N 
ATOM      6  C   UNL d   1      25.851 -10.223  -3.542  0.00  0.00     0.270 C 
ATOM      7  O   UNL d   1      26.393 -10.099  -2.445  0.00  0.00    -0.266 OA
ATOM      8  H   UNL d   1      25.027 -11.606  -4.960  0.00  0.00     0.190 HD
BRANCH   6   9
ATOM      9  C   UNL d   1      25.680  -9.037  -4.427  0.00  0.00     0.035 A 
ATOM     10  C   UNL d   1      26.789  -8.489  -5.081  0.00  0.00     0.017 A 
ATOM     11  C   UNL d   1      26.635  -7.381  -5.920  0.00  0.00     0.003 A 
ATOM     12  C   UNL d   1      25.375  -6.810  -6.103  0.00  0.00     0.024 A 
ATOM     13  C   UNL d   1      24.267  -7.366  -5.466  0.00  0.00     0.035 A 
ATOM     14 CL   UNL d   1      22.721  -6.637  -5.689  0.00  0.00    -0.084 Cl
ATOM     15  C   UNL d   1      24.405  -8.490  -4.646  0.00  0.00     0.041 A 
ENDBRANCH   6   9
ENDBRANCH   3   5
BRANCH   1  16
ATOM     16  C   UNL d   1      25.422 -14.944  -2.541  0.00  0.00     0.152 A 
ATOM     17  C   UNL d   1      26.494 -15.266  -1.704  0.00  0.00    -0.009 A 
ATOM     18  C   UNL d   1      27.811 -14.615  -1.513  0.00  0.00     0.052 C 
ATOM     19  C   UNL d   1      26.114 -16.423  -0.946  0.00  0.00     0.007 A 
ATOM     20  C   UNL d   1      26.751 -17.207   0.043  0.00  0.00     0.015 A 
ATOM     21  C   UNL d   1      24.825 -16.747  -1.330  0.00  0.00     0.087 A 
ATOM     22  C   UNL d   1      26.065 -18.276   0.626  0.00  0.00     0.001 A 
ATOM     23  C   UNL d   1      24.762 -18.575   0.230  0.00  0.00     0.003 A 
ATOM     24  C   UNL d   1      24.112 -17.818  -0.766  0.00  0.00     0.038 A 
ATOM     25  O   UNL d   1      24.405 -15.869  -2.298  0.00  0.00    -0.304 OA
ENDBRANCH   1  16
TORSDOF 3
ENDMDL
MODEL 4
REMARK VINA RESULT:    -7.134      4.031      6.664
REMARK INTER + INTRA:          -9.494
REMARK INTER:                  -8.029
REMARK INTRA:                  -1.465
REMARK CONF_INDEPENDENT:        0.895
REMARK UNBOUND:                -1.465
REMARK  3 active torsions:
REMARK  status: ('A' for Active; 'I' for Inactive)
REMARK    1  A    between atoms: C_3  and  C_4 
REMARK       I    between atoms: C_4  and  N_6 
REMARK    2  A    between atoms: N_6  and  N_7 
REMARK       I    between atoms: N_7  and  C_8 
REMARK    3  A    between atoms: C_8  and  C_10 
ROOT
ATOM      1  C   UNL d   1      27.669 -14.583  -5.477  0.00  0.00     0.294 C 
ATOM      2  O   UNL d   1      28.409 -15.575  -5.493  0.00  0.00    -0.264 OA
ATOM      3  N   UNL d   1      26.668 -14.495  -4.505  0.00  0.00    -0.261 N 
ATOM      4  H   UNL d   1      26.006 -13.743  -4.444  0.00  0.00     0.190 HD
ENDROOT
BRANCH   3   5
ATOM      5  N   UNL d   1      26.457 -15.460  -3.494  0.00  0.00    -0.263 N 
ATOM      6  C   UNL d   1      25.263 -15.380  -2.777  0.00  0.00     0.270 C 
ATOM      7  O   UNL d   1      24.421 -14.505  -2.976  0.00  0.00    -0.266 OA
ATOM      8  H   UNL d   1      27.123 -16.225  -3.431  0.00  0.00     0.190 HD
BRANCH   6   9
ATOM      9  C   UNL d   1      25.024 -16.420  -1.737  0.00  0.00     0.035 A 
ATOM     10  C   UNL d   1      26.077 -16.842  -0.918  0.00  0.00     0.017 A 
ATOM     11  C   UNL d   1      25.860 -17.811   0.067  0.00  0.00     0.003 A 
ATOM     12  C   UNL d   1      24.593 -18.370   0.232  0.00  0.00     0.024 A 
ATOM     13  C   UNL d   1      23.538 -17.938  -0.572  0.00  0.00     0.035 A 
ATOM     14 CL   UNL d   1      21.983 -18.652  -0.367  0.00  0.00    -0.084 Cl
ATOM     15  C   UNL d   1      23.738 -16.950  -1.541  0.00  0.00     0.041 A 
ENDBRANCH   6   9
ENDBRANCH   3   5
BRANCH   1  16
ATOM     16  C   UNL d   1      27.778 -13.460  -6.439  0.00  0.00     0.152 A 
ATOM     17  C   UNL d   1      27.279 -12.154  -6.468  0.00  0.00    -0.009 A 
ATOM     18  C   UNL d   1      26.443 -11.410  -5.498  0.00  0.00     0.052 C 
ATOM     19  C   UNL d   1      27.748 -11.543  -7.678  0.00  0.00     0.007 A 
ATOM     20  C   UNL d   1      27.587 -10.266  -8.263  0.00  0.00     0.015 A 
ATOM     21  C   UNL d   1      28.529 -12.483  -8.326  0.00  0.00     0.087 A 
ATOM     22  C   UNL d   1      28.232  -9.972  -9.468  0.00  0.00     0.001 A 
ATOM     23  C   UNL d   1      29.023 -10.933 -10.095  0.00  0.00     0.003 A 
ATOM     24  C   UNL d   1      29.185 -12.219  -9.539  0.00  0.00     0.038 A 
ATOM     25  O   UNL d   1      28.543 -13.644  -7.592  0.00  0.00    -0.304 OA
ENDBRANCH   1  16
TORSDOF 3
ENDMDL
MODEL 5
REMARK VINA RESULT:    -6.822      4.094      6.732
REMARK INTER + INTRA:          -9.491
REMARK INTER:                  -7.717
REMARK INTRA:                  -1.773
REMARK CONF_INDEPENDENT:        0.895
REMARK UNBOUND:                -1.773
REMARK  3 active torsions:
REMARK  status: ('A' for Active; 'I' for Inactive)
REMARK    1  A    between atoms: C_3  and  C_4 
REMARK       I    between atoms: C_4  and  N_6 
REMARK    2  A    between atoms: N_6  and  N_7 
REMARK       I    between atoms: N_7  and  C_8 
REMARK    3  A    between atoms: C_8  and  C_10 
ROOT
ATOM      1  C   UNL d   1      28.355 -14.819  -5.389  0.00  0.00     0.294 C 
ATOM      2  O   UNL d   1      29.178 -15.715  -5.162  0.00  0.00    -0.264 OA
ATOM      3  N   UNL d   1      27.208 -14.728  -4.595  0.00  0.00    -0.261 N 
ATOM      4  H   UNL d   1      26.478 -14.053  -4.735  0.00  0.00     0.190 HD
ENDROOT
BRANCH   3   5
ATOM      5  N   UNL d   1      26.930 -15.581  -3.504  0.00  0.00    -0.263 N 
ATOM      6  C   UNL d   1      25.640 -15.536  -2.972  0.00  0.00     0.270 C 
ATOM      7  O   UNL d   1      24.769 -14.778  -3.398  0.00  0.00    -0.266 OA
ATOM      8  H   UNL d   1      27.639 -16.264  -3.250  0.00  0.00     0.190 HD
BRANCH   6   9
ATOM      9  C   UNL d   1      25.337 -16.462  -1.846  0.00  0.00     0.035 A 
ATOM     10  C   UNL d   1      26.349 -16.831  -0.953  0.00  0.00     0.017 A 
ATOM     11  C   UNL d   1      26.071 -17.693   0.111  0.00  0.00     0.003 A 
ATOM     12  C   UNL d   1      24.781 -18.198   0.285  0.00  0.00     0.024 A 
ATOM     13  C   UNL d   1      23.767 -17.817  -0.592  0.00  0.00     0.035 A 
ATOM     14 CL   UNL d   1      22.185 -18.465  -0.374  0.00  0.00    -0.084 Cl
ATOM     15  C   UNL d   1      24.029 -16.935  -1.645  0.00  0.00     0.041 A 
ENDBRANCH   6   9
ENDBRANCH   3   5
BRANCH   1  16
ATOM     16  C   UNL d   1      28.511 -13.815  -6.469  0.00  0.00     0.152 A 
ATOM     17  C   UNL d   1      29.527 -13.523  -7.385  0.00  0.00    -0.009 A 
ATOM     18  C   UNL d   1      30.849 -14.154  -7.605  0.00  0.00     0.052 C 
ATOM     19  C   UNL d   1      29.074 -12.428  -8.193  0.00  0.00     0.007 A 
ATOM     20  C   UNL d   1      29.635 -11.698  -9.265  0.00  0.00     0.015 A 
ATOM     21  C   UNL d   1      27.799 -12.110  -7.760  0.00  0.00     0.087 A 
ATOM     22  C   UNL d   1      28.889 -10.686  -9.878  0.00  0.00     0.001 A 
ATOM     23  C   UNL d   1      27.602 -10.393  -9.430  0.00  0.00     0.003 A 
ATOM     24  C   UNL d   1      27.028 -11.097  -8.352  0.00  0.00     0.038 A 
ATOM     25  O   UNL d   1      27.457 -12.932  -6.715  0.00  0.00    -0.304 OA
ENDBRANCH   1  16
TORSDOF 3
ENDMDL
MODEL 6
REMARK VINA RESULT:    -6.809      5.792     10.024
REMARK INTER + INTRA:          -9.176
REMARK INTER:                  -7.704
REMARK INTRA:                  -1.472
REMARK CONF_INDEPENDENT:        0.895
REMARK UNBOUND:                -1.472
REMARK  3 active torsions:
REMARK  status: ('A' for Active; 'I' for Inactive)
REMARK    1  A    between atoms: C_3  and  C_4 
REMARK       I    between atoms: C_4  and  N_6 
REMARK    2  A    between atoms: N_6  and  N_7 
REMARK       I    between atoms: N_7  and  C_8 
REMARK    3  A    between atoms: C_8  and  C_10 
ROOT
ATOM      1  C   UNL d   1      25.161 -14.108  -3.643  0.00  0.00     0.294 C 
ATOM      2  O   UNL d   1      24.487 -14.382  -4.644  0.00  0.00    -0.264 OA
ATOM      3  N   UNL d   1      25.591 -12.792  -3.450  0.00  0.00    -0.261 N 
ATOM      4  H   UNL d   1      26.168 -12.494  -2.683  0.00  0.00     0.190 HD
ENDROOT
BRANCH   3   5
ATOM      5  N   UNL d   1      25.278 -11.720  -4.315  0.00  0.00    -0.263 N 
ATOM      6  C   UNL d   1      25.823 -10.472  -4.008  0.00  0.00     0.270 C 
ATOM      7  O   UNL d   1      26.529 -10.278  -3.020  0.00  0.00    -0.266 OA
ATOM      8  H   UNL d   1      24.781 -11.942  -5.174  0.00  0.00     0.190 HD
BRANCH   6   9
ATOM      9  C   UNL d   1      25.522  -9.351  -4.941  0.00  0.00     0.035 A 
ATOM     10  C   UNL d   1      24.494  -8.451  -4.642  0.00  0.00     0.017 A 
ATOM     11  C   UNL d   1      24.211  -7.390  -5.508  0.00  0.00     0.003 A 
ATOM     12  C   UNL d   1      24.948  -7.229  -6.682  0.00  0.00     0.024 A 
ATOM     13  C   UNL d   1      25.985  -8.115  -6.973  0.00  0.00     0.035 A 
ATOM     14 CL   UNL d   1      26.872  -7.913  -8.437  0.00  0.00    -0.084 Cl
ATOM     15  C   UNL d   1      26.293  -9.163  -6.100  0.00  0.00     0.041 A 
ENDBRANCH   6   9
ENDBRANCH   3   5
BRANCH   1  16
ATOM     16  C   UNL d   1      25.545 -15.103  -2.613  0.00  0.00     0.152 A 
ATOM     17  C   UNL d   1      26.755 -15.455  -2.006  0.00  0.00    -0.009 A 
ATOM     18  C   UNL d   1      28.124 -14.920  -2.184  0.00  0.00     0.052 C 
ATOM     19  C   UNL d   1      26.474 -16.500  -1.065  0.00  0.00     0.007 A 
ATOM     20  C   UNL d   1      27.262 -17.253  -0.165  0.00  0.00     0.015 A 
ATOM     21  C   UNL d   1      25.111 -16.729  -1.114  0.00  0.00     0.087 A 
ATOM     22  C   UNL d   1      26.651 -18.196   0.667  0.00  0.00     0.001 A 
ATOM     23  C   UNL d   1      25.274 -18.400   0.605  0.00  0.00     0.003 A 
ATOM     24  C   UNL d   1      24.469 -17.673  -0.296  0.00  0.00     0.038 A 
ATOM     25  O   UNL d   1      24.546 -15.901  -2.052  0.00  0.00    -0.304 OA
ENDBRANCH   1  16
TORSDOF 3
ENDMDL
MODEL 7
REMARK VINA RESULT:    -6.730      4.369      7.137
REMARK INTER + INTRA:          -9.370
REMARK INTER:                  -7.625
REMARK INTRA:                  -1.745
REMARK CONF_INDEPENDENT:        0.895
REMARK UNBOUND:                -1.745
REMARK  3 active torsions:
REMARK  status: ('A' for Active; 'I' for Inactive)
REMARK    1  A    between atoms: C_3  and  C_4 
REMARK       I    between atoms: C_4  and  N_6 
REMARK    2  A    between atoms: N_6  and  N_7 
REMARK       I    between atoms: N_7  and  C_8 
REMARK    3  A    between atoms: C_8  and  C_10 
ROOT
ATOM      1  C   UNL d   1      25.914 -11.742  -3.889  0.00  0.00     0.294 C 
ATOM      2  O   UNL d   1      25.909 -11.215  -2.769  0.00  0.00    -0.264 OA
ATOM      3  N   UNL d   1      25.762 -13.127  -3.992  0.00  0.00    -0.261 N 
ATOM      4  H   UNL d   1      25.789 -13.634  -4.858  0.00  0.00     0.190 HD
ENDROOT
BRANCH   3   5
ATOM      5  N   UNL d   1      25.564 -13.988  -2.889  0.00  0.00    -0.263 N 
ATOM      6  C   UNL d   1      25.474 -15.355  -3.155  0.00  0.00     0.270 C 
ATOM      7  O   UNL d   1      25.538 -15.819  -4.292  0.00  0.00    -0.266 OA
ATOM      8  H   UNL d   1      25.622 -13.579  -1.960  0.00  0.00     0.190 HD
BRANCH   6   9
ATOM      9  C   UNL d   1      25.303 -16.264  -1.987  0.00  0.00     0.035 A 
ATOM     10  C   UNL d   1      26.409 -16.609  -1.203  0.00  0.00     0.017 A 
ATOM     11  C   UNL d   1      26.255 -17.455  -0.100  0.00  0.00     0.003 A 
ATOM     12  C   UNL d   1      24.997 -17.967   0.220  0.00  0.00     0.024 A 
ATOM     13  C   UNL d   1      23.890 -17.610  -0.550  0.00  0.00     0.035 A 
ATOM     14 CL   UNL d   1      22.348 -18.267  -0.153  0.00  0.00    -0.084 Cl
ATOM     15  C   UNL d   1      24.029 -16.744  -1.639  0.00  0.00     0.041 A 
ENDBRANCH   6   9
ENDBRANCH   3   5
BRANCH   1  16
ATOM     16  C   UNL d   1      26.070 -10.982  -5.153  0.00  0.00     0.152 A 
ATOM     17  C   UNL d   1      25.957  -9.631  -5.495  0.00  0.00    -0.009 A 
ATOM     18  C   UNL d   1      25.640  -8.442  -4.671  0.00  0.00     0.052 C 
ATOM     19  C   UNL d   1      26.242  -9.518  -6.896  0.00  0.00     0.007 A 
ATOM     20  C   UNL d   1      26.289  -8.440  -7.808  0.00  0.00     0.015 A 
ATOM     21  C   UNL d   1      26.538 -10.791  -7.349  0.00  0.00     0.087 A 
ATOM     22  C   UNL d   1      26.650  -8.673  -9.138  0.00  0.00     0.001 A 
ATOM     23  C   UNL d   1      26.955  -9.964  -9.567  0.00  0.00     0.003 A 
ATOM     24  C   UNL d   1      26.900 -11.058  -8.679  0.00  0.00     0.038 A 
ATOM     25  O   UNL d   1      26.426 -11.680  -6.309  0.00  0.00    -0.304 OA
ENDBRANCH   1  16
TORSDOF 3
ENDMDL
MODEL 8
REMARK VINA RESULT:    -6.628      5.375     10.407
REMARK INTER + INTRA:          -8.993
REMARK INTER:                  -7.523
REMARK INTRA:                  -1.470
REMARK CONF_INDEPENDENT:        0.895
REMARK UNBOUND:                -1.470
REMARK  3 active torsions:
REMARK  status: ('A' for Active; 'I' for Inactive)
REMARK    1  A    between atoms: C_3  and  C_4 
REMARK       I    between atoms: C_4  and  N_6 
REMARK    2  A    between atoms: N_6  and  N_7 
REMARK       I    between atoms: N_7  and  C_8 
REMARK    3  A    between atoms: C_8  and  C_10 
ROOT
ATOM      1  C   UNL d   1      26.223 -14.261  -3.211  0.00  0.00     0.294 C 
ATOM      2  O   UNL d   1      26.077 -13.051  -2.997  0.00  0.00    -0.264 OA
ATOM      3  N   UNL d   1      26.976 -14.673  -4.315  0.00  0.00    -0.261 N 
ATOM      4  H   UNL d   1      27.113 -15.632  -4.578  0.00  0.00     0.190 HD
ENDROOT
BRANCH   3   5
ATOM      5  N   UNL d   1      27.627 -13.789  -5.204  0.00  0.00    -0.263 N 
ATOM      6  C   UNL d   1      28.276 -14.354  -6.304  0.00  0.00     0.270 C 
ATOM      7  O   UNL d   1      28.317 -15.567  -6.503  0.00  0.00    -0.266 OA
ATOM      8  H   UNL d   1      27.481 -12.792  -5.064  0.00  0.00     0.190 HD
BRANCH   6   9
ATOM      9  C   UNL d   1      28.930 -13.419  -7.261  0.00  0.00     0.035 A 
ATOM     10  C   UNL d   1      30.325 -13.390  -7.365  0.00  0.00     0.017 A 
ATOM     11  C   UNL d   1      30.947 -12.521  -8.267  0.00  0.00     0.003 A 
ATOM     12  C   UNL d   1      30.179 -11.671  -9.063  0.00  0.00     0.024 A 
ATOM     13  C   UNL d   1      28.788 -11.712  -8.974  0.00  0.00     0.035 A 
ATOM     14 CL   UNL d   1      27.856 -10.641  -9.951  0.00  0.00    -0.084 Cl
ATOM     15  C   UNL d   1      28.155 -12.595  -8.094  0.00  0.00     0.041 A 
ENDBRANCH   6   9
ENDBRANCH   3   5
BRANCH   1  16
ATOM     16  C   UNL d   1      25.642 -15.324  -2.355  0.00  0.00     0.152 A 
ATOM     17  C   UNL d   1      26.184 -16.368  -1.600  0.00  0.00    -0.009 A 
ATOM     18  C   UNL d   1      27.589 -16.780  -1.378  0.00  0.00     0.052 C 
ATOM     19  C   UNL d   1      25.093 -17.057  -0.975  0.00  0.00     0.007 A 
ATOM     20  C   UNL d   1      24.997 -18.171  -0.110  0.00  0.00     0.015 A 
ATOM     21  C   UNL d   1      23.935 -16.399  -1.350  0.00  0.00     0.087 A 
ATOM     22  C   UNL d   1      23.745 -18.573   0.364  0.00  0.00     0.001 A 
ATOM     23  C   UNL d   1      22.594 -17.886  -0.020  0.00  0.00     0.003 A 
ATOM     24  C   UNL d   1      22.663 -16.782  -0.895  0.00  0.00     0.038 A 
ATOM     25  O   UNL d   1      24.256 -15.361  -2.190  0.00  0.00    -0.304 OA
ENDBRANCH   1  16
TORSDOF 3
ENDMDL
MODEL 9
REMARK VINA RESULT:    -6.377      4.034      6.425
REMARK INTER + INTRA:          -8.892
REMARK INTER:                  -7.272
REMARK INTRA:                  -1.620
REMARK CONF_INDEPENDENT:        0.895
REMARK UNBOUND:                -1.620
REMARK  3 active torsions:
REMARK  status: ('A' for Active; 'I' for Inactive)
REMARK    1  A    between atoms: C_3  and  C_4 
REMARK       I    between atoms: C_4  and  N_6 
REMARK    2  A    between atoms: N_6  and  N_7 
REMARK       I    between atoms: N_7  and  C_8 
REMARK    3  A    between atoms: C_8  and  C_10 
ROOT
ATOM      1  C   UNL d   1      27.357 -14.451  -5.208  0.00  0.00     0.294 C 
ATOM      2  O   UNL d   1      27.950 -15.532  -5.307  0.00  0.00    -0.264 OA
ATOM      3  N   UNL d   1      26.453 -14.262  -4.158  0.00  0.00    -0.261 N 
ATOM      4  H   UNL d   1      25.907 -13.430  -4.028  0.00  0.00     0.190 HD
ENDROOT
BRANCH   3   5
ATOM      5  N   UNL d   1      26.187 -15.225  -3.159  0.00  0.00    -0.263 N 
ATOM      6  C   UNL d   1      24.928 -15.187  -2.556  0.00  0.00     0.270 C 
ATOM      7  O   UNL d   1      24.075 -14.349  -2.845  0.00  0.00    -0.266 OA
ATOM      8  H   UNL d   1      26.874 -15.962  -3.024  0.00  0.00     0.190 HD
BRANCH   6   9
ATOM      9  C   UNL d   1      24.636 -16.225  -1.529  0.00  0.00     0.035 A 
ATOM     10  C   UNL d   1      23.312 -16.595  -1.269  0.00  0.00     0.017 A 
ATOM     11  C   UNL d   1      23.029 -17.575  -0.312  0.00  0.00     0.003 A 
ATOM     12  C   UNL d   1      24.066 -18.183   0.396  0.00  0.00     0.024 A 
ATOM     13  C   UNL d   1      25.387 -17.828   0.125  0.00  0.00     0.035 A 
ATOM     14 CL   UNL d   1      26.655 -18.575   1.022  0.00  0.00    -0.084 Cl
ATOM     15  C   UNL d   1      25.683 -16.868  -0.848  0.00  0.00     0.041 A 
ENDBRANCH   6   9
ENDBRANCH   3   5
BRANCH   1  16
ATOM     16  C   UNL d   1      27.548 -13.319  -6.148  0.00  0.00     0.152 A 
ATOM     17  C   UNL d   1      28.498 -13.022  -7.129  0.00  0.00    -0.009 A 
ATOM     18  C   UNL d   1      29.684 -13.777  -7.596  0.00  0.00     0.052 C 
ATOM     19  C   UNL d   1      28.130 -11.766  -7.716  0.00  0.00     0.007 A 
ATOM     20  C   UNL d   1      28.680 -10.956  -8.735  0.00  0.00     0.015 A 
ATOM     21  C   UNL d   1      26.965 -11.357  -7.091  0.00  0.00     0.087 A 
ATOM     22  C   UNL d   1      28.032  -9.774  -9.104  0.00  0.00     0.001 A 
ATOM     23  C   UNL d   1      26.853  -9.390  -8.467  0.00  0.00     0.003 A 
ATOM     24  C   UNL d   1      26.294 -10.174  -7.436  0.00  0.00     0.038 A 
ATOM     25  O   UNL d   1      26.614 -12.281  -6.137  0.00  0.00    -0.304 OA
ENDBRANCH   1  16
TORSDOF 3
ENDMDL
