MODEL 1
REMARK VINA RESULT:   -10.467      0.000      0.000
REMARK INTER + INTRA:         -15.425
REMARK INTER:                 -14.047
REMARK INTRA:                  -1.378
REMARK CONF_INDEPENDENT:        3.580
REMARK UNBOUND:                -1.378
REMARK  12 active torsions:
REMARK  status: ('A' for Active; 'I' for Inactive)
REMARK    1  A    between atoms: C_2  and  O_3 
REMARK    2  A    between atoms: O_3  and  C_4 
REMARK    3  A    between atoms: C_4  and  C_5 
REMARK    4  A    between atoms: C_5  and  O_6 
REMARK    5  A    between atoms: O_6  and  C_7 
REMARK    6  A    between atoms: C_10  and  C_11 
REMARK       I    between atoms: C_11  and  N_13 
REMARK    7  A    between atoms: N_13  and  C_14 
REMARK    8  A    between atoms: C_14  and  N_16 
REMARK    9  A    between atoms: N_16  and  N_17 
REMARK       I    between atoms: N_17  and  C_18 
REMARK   10  A    between atoms: C_18  and  C_20 
REMARK   11  A    between atoms: C_23  and  N_24 
REMARK       I    between atoms: N_24  and  C_25 
REMARK   12  A    between atoms: C_25  and  C_27 
ROOT
ATOM      1  N   UNL d   1      29.105 -15.078  -0.199  0.00  0.00    -0.273 N 
ATOM      2  H   UNL d   1      29.382 -14.229  -0.688  0.00  0.00     0.189 HD
ENDROOT
BRANCH   1   3
ATOM      3  C   UNL d   1      28.758 -16.313  -0.784  0.00  0.00     0.193 C 
ATOM      4  S   UNL d   1      29.982 -17.383  -1.246  0.00  0.00    -0.039 SA
BRANCH   3   5
ATOM      5  N   UNL d   1      27.368 -16.553  -0.930  0.00  0.00    -0.298 N 
ATOM      6  C   UNL d   1      26.539 -17.292  -0.042  0.00  0.00     0.257 C 
ATOM      7  O   UNL d   1      26.950 -17.814   0.994  0.00  0.00    -0.267 OA
ATOM      8  H   UNL d   1      26.935 -16.180  -1.760  0.00  0.00     0.171 HD
BRANCH   6   9
ATOM      9  C   UNL d   1      25.076 -17.530  -0.324  0.00  0.00     0.032 A 
ATOM     10  C   UNL d   1      24.292 -16.425  -0.747  0.00  0.00     0.020 A 
ATOM     11  C   UNL d   1      22.898 -16.516  -0.893  0.00  0.00     0.038 A 
ATOM     12  C   UNL d   1      22.261 -17.733  -0.681  0.00  0.00     0.068 A 
ATOM     13  C   UNL d   1      23.034 -18.847  -0.347  0.00  0.00     0.038 A 
ATOM     14  C   UNL d   1      24.426 -18.749  -0.158  0.00  0.00     0.020 A 
BRANCH  12  15
ATOM     15  O   UNL d   1      20.911 -17.780  -0.907  0.00  0.00    -0.349 OA
BRANCH  15  16
ATOM     16  C   UNL d   1      20.368 -19.097  -1.070  0.00  0.00     0.201 C 
BRANCH  16  17
ATOM     17  C   UNL d   1      19.892 -19.620   0.282  0.00  0.00     0.194 C 
BRANCH  17  18
ATOM     18  O   UNL d   1      18.993 -20.717   0.091  0.00  0.00    -0.389 OA
BRANCH  18  19
ATOM     19  C   UNL d   1      18.315 -21.032   1.308  0.00  0.00     0.163 C 
ATOM     20  C   UNL d   1      19.081 -20.450   2.479  0.00  0.00     0.033 C 
ENDBRANCH  18  19
ENDBRANCH  17  18
ENDBRANCH  16  17
ENDBRANCH  15  16
ENDBRANCH  12  15
ENDBRANCH   6   9
ENDBRANCH   3   5
ENDBRANCH   1   3
BRANCH   1  21
ATOM     21  N   UNL d   1      29.099 -14.968   1.249  0.00  0.00    -0.264 N 
ATOM     22  C   UNL d   1      28.278 -14.089   1.941  0.00  0.00     0.270 C 
ATOM     23  O   UNL d   1      27.501 -13.308   1.387  0.00  0.00    -0.266 OA
ATOM     24  H   UNL d   1      29.681 -15.656   1.732  0.00  0.00     0.190 HD
BRANCH  22  25
ATOM     25  C   UNL d   1      28.400 -14.102   3.444  0.00  0.00     0.033 A 
ATOM     26  C   UNL d   1      27.379 -13.661   4.308  0.00  0.00     0.019 A 
ATOM     27  C   UNL d   1      27.569 -13.617   5.721  0.00  0.00     0.030 A 
ATOM     28  C   UNL d   1      28.771 -14.060   6.292  0.00  0.00     0.034 A 
ATOM     29  C   UNL d   1      29.783 -14.437   5.404  0.00  0.00     0.030 A 
ATOM     30  C   UNL d   1      29.611 -14.469   4.015  0.00  0.00     0.019 A 
BRANCH  28  31
ATOM     31  N   UNL d   1      28.938 -14.153   7.715  0.00  0.00    -0.327 N 
ATOM     32  C   UNL d   1      28.648 -13.116   8.602  0.00  0.00     0.225 C 
ATOM     33  O   UNL d   1      28.154 -12.037   8.270  0.00  0.00    -0.273 OA
ATOM     34  H   UNL d   1      29.371 -14.995   8.080  0.00  0.00     0.169 HD
BRANCH  32  35
ATOM     35  C   UNL d   1      28.954 -13.330  10.088  0.00  0.00     0.070 C 
ATOM     36  C   UNL d   1      27.782 -12.952  10.982  0.00  0.00     0.019 C 
ATOM     37  C   UNL d   1      29.270 -14.827  10.299  0.00  0.00     0.019 C 
ENDBRANCH  32  35
ENDBRANCH  28  31
ENDBRANCH  22  25
ENDBRANCH   1  21
TORSDOF 12
ENDMDL
MODEL 2
REMARK VINA RESULT:    -9.674      7.298     11.323
REMARK INTER + INTRA:         -14.427
REMARK INTER:                 -13.253
REMARK INTRA:                  -1.174
REMARK CONF_INDEPENDENT:        3.580
REMARK UNBOUND:                -1.174
REMARK  12 active torsions:
REMARK  status: ('A' for Active; 'I' for Inactive)
REMARK    1  A    between atoms: C_2  and  O_3 
REMARK    2  A    between atoms: O_3  and  C_4 
REMARK    3  A    between atoms: C_4  and  C_5 
REMARK    4  A    between atoms: C_5  and  O_6 
REMARK    5  A    between atoms: O_6  and  C_7 
REMARK    6  A    between atoms: C_10  and  C_11 
REMARK       I    between atoms: C_11  and  N_13 
REMARK    7  A    between atoms: N_13  and  C_14 
REMARK    8  A    between atoms: C_14  and  N_16 
REMARK    9  A    between atoms: N_16  and  N_17 
REMARK       I    between atoms: N_17  and  C_18 
REMARK   10  A    between atoms: C_18  and  C_20 
REMARK   11  A    between atoms: C_23  and  N_24 
REMARK       I    between atoms: N_24  and  C_25 
REMARK   12  A    between atoms: C_25  and  C_27 
ROOT
ATOM      1  N   UNL d   1      25.680 -13.550  -2.854  0.00  0.00    -0.273 N 
ATOM      2  H   UNL d   1      26.103 -12.900  -2.194  0.00  0.00     0.189 HD
ENDROOT
BRANCH   1   3
ATOM      3  C   UNL d   1      25.821 -13.536  -4.257  0.00  0.00     0.193 C 
ATOM      4  S   UNL d   1      26.304 -14.946  -5.054  0.00  0.00    -0.039 SA
BRANCH   3   5
ATOM      5  N   UNL d   1      25.530 -12.301  -4.890  0.00  0.00    -0.298 N 
ATOM      6  C   UNL d   1      26.298 -11.108  -4.812  0.00  0.00     0.257 C 
ATOM      7  O   UNL d   1      27.345 -11.016  -4.171  0.00  0.00    -0.267 OA
ATOM      8  H   UNL d   1      24.678 -12.265  -5.428  0.00  0.00     0.171 HD
BRANCH   6   9
ATOM      9  C   UNL d   1      25.863  -9.829  -5.486  0.00  0.00     0.032 A 
ATOM     10  C   UNL d   1      24.780  -9.112  -4.916  0.00  0.00     0.020 A 
ATOM     11  C   UNL d   1      24.213  -7.995  -5.551  0.00  0.00     0.038 A 
ATOM     12  C   UNL d   1      24.758  -7.529  -6.742  0.00  0.00     0.068 A 
ATOM     13  C   UNL d   1      25.879  -8.176  -7.267  0.00  0.00     0.038 A 
ATOM     14  C   UNL d   1      26.422  -9.323  -6.656  0.00  0.00     0.020 A 
BRANCH  12  15
ATOM     15  O   UNL d   1      24.210  -6.394  -7.279  0.00  0.00    -0.349 OA
BRANCH  15  16
ATOM     16  C   UNL d   1      22.866  -6.116  -6.866  0.00  0.00     0.201 C 
BRANCH  16  17
ATOM     17  C   UNL d   1      21.898  -6.545  -7.965  0.00  0.00     0.194 C 
BRANCH  17  18
ATOM     18  O   UNL d   1      20.571  -6.117  -7.642  0.00  0.00    -0.389 OA
BRANCH  18  19
ATOM     19  C   UNL d   1      19.638  -6.578  -8.619  0.00  0.00     0.163 C 
ATOM     20  C   UNL d   1      18.512  -7.322  -7.930  0.00  0.00     0.033 C 
ENDBRANCH  18  19
ENDBRANCH  17  18
ENDBRANCH  16  17
ENDBRANCH  15  16
ENDBRANCH  12  15
ENDBRANCH   6   9
ENDBRANCH   3   5
ENDBRANCH   1   3
BRANCH   1  21
ATOM     21  N   UNL d   1      24.873 -14.592  -2.246  0.00  0.00    -0.264 N 
ATOM     22  C   UNL d   1      25.415 -15.729  -1.662  0.00  0.00     0.270 C 
ATOM     23  O   UNL d   1      26.625 -15.964  -1.630  0.00  0.00    -0.266 OA
ATOM     24  H   UNL d   1      23.874 -14.384  -2.196  0.00  0.00     0.190 HD
BRANCH  22  25
ATOM     25  C   UNL d   1      24.434 -16.714  -1.078  0.00  0.00     0.033 A 
ATOM     26  C   UNL d   1      24.783 -18.025  -0.702  0.00  0.00     0.019 A 
ATOM     27  C   UNL d   1      23.804 -18.948  -0.227  0.00  0.00     0.030 A 
ATOM     28  C   UNL d   1      22.467 -18.553  -0.079  0.00  0.00     0.034 A 
ATOM     29  C   UNL d   1      22.143 -17.264  -0.515  0.00  0.00     0.030 A 
ATOM     30  C   UNL d   1      23.095 -16.357  -0.996  0.00  0.00     0.019 A 
BRANCH  28  31
ATOM     31  N   UNL d   1      21.490 -19.417   0.522  0.00  0.00    -0.327 N 
ATOM     32  C   UNL d   1      20.369 -19.909  -0.147  0.00  0.00     0.225 C 
ATOM     33  O   UNL d   1      20.133 -19.713  -1.340  0.00  0.00    -0.273 OA
ATOM     34  H   UNL d   1      21.584 -19.608   1.515  0.00  0.00     0.169 HD
BRANCH  32  35
ATOM     35  C   UNL d   1      19.368 -20.754   0.647  0.00  0.00     0.070 C 
ATOM     36  C   UNL d   1      19.089 -20.177   2.028  0.00  0.00     0.019 C 
ATOM     37  C   UNL d   1      18.043 -20.795  -0.145  0.00  0.00     0.019 C 
ENDBRANCH  32  35
ENDBRANCH  28  31
ENDBRANCH  22  25
ENDBRANCH   1  21
TORSDOF 12
ENDMDL
MODEL 3
REMARK VINA RESULT:    -9.470      6.725     10.714
REMARK INTER + INTRA:         -14.481
REMARK INTER:                 -13.049
REMARK INTRA:                  -1.431
REMARK CONF_INDEPENDENT:        3.580
REMARK UNBOUND:                -1.431
REMARK  12 active torsions:
REMARK  status: ('A' for Active; 'I' for Inactive)
REMARK    1  A    between atoms: C_2  and  O_3 
REMARK    2  A    between atoms: O_3  and  C_4 
REMARK    3  A    between atoms: C_4  and  C_5 
REMARK    4  A    between atoms: C_5  and  O_6 
REMARK    5  A    between atoms: O_6  and  C_7 
REMARK    6  A    between atoms: C_10  and  C_11 
REMARK       I    between atoms: C_11  and  N_13 
REMARK    7  A    between atoms: N_13  and  C_14 
REMARK    8  A    between atoms: C_14  and  N_16 
REMARK    9  A    between atoms: N_16  and  N_17 
REMARK       I    between atoms: N_17  and  C_18 
REMARK   10  A    between atoms: C_18  and  C_20 
REMARK   11  A    between atoms: C_23  and  N_24 
REMARK       I    between atoms: N_24  and  C_25 
REMARK   12  A    between atoms: C_25  and  C_27 
ROOT
ATOM      1  N   UNL d   1      26.820 -13.507  -2.024  0.00  0.00    -0.273 N 
ATOM      2  H   UNL d   1      27.358 -13.000  -1.324  0.00  0.00     0.189 HD
ENDROOT
BRANCH   1   3
ATOM      3  C   UNL d   1      26.888 -13.342  -3.423  0.00  0.00     0.193 C 
ATOM      4  S   UNL d   1      25.715 -12.409  -4.203  0.00  0.00    -0.039 SA
BRANCH   3   5
ATOM      5  N   UNL d   1      27.973 -13.990  -4.064  0.00  0.00    -0.298 N 
ATOM      6  C   UNL d   1      27.893 -14.892  -5.160  0.00  0.00     0.257 C 
ATOM      7  O   UNL d   1      26.833 -15.210  -5.700  0.00  0.00    -0.267 OA
ATOM      8  H   UNL d   1      28.889 -13.809  -3.684  0.00  0.00     0.171 HD
BRANCH   6   9
ATOM      9  C   UNL d   1      29.114 -15.568  -5.732  0.00  0.00     0.032 A 
ATOM     10  C   UNL d   1      29.649 -16.678  -5.029  0.00  0.00     0.020 A 
ATOM     11  C   UNL d   1      30.863 -17.280  -5.404  0.00  0.00     0.038 A 
ATOM     12  C   UNL d   1      31.538 -16.825  -6.530  0.00  0.00     0.068 A 
ATOM     13  C   UNL d   1      30.976 -15.788  -7.279  0.00  0.00     0.038 A 
ATOM     14  C   UNL d   1      29.782 -15.155  -6.881  0.00  0.00     0.020 A 
BRANCH  12  15
ATOM     15  O   UNL d   1      32.678 -17.495  -6.889  0.00  0.00    -0.349 OA
BRANCH  15  16
ATOM     16  C   UNL d   1      33.077 -17.326  -8.255  0.00  0.00     0.201 C 
BRANCH  16  17
ATOM     17  C   UNL d   1      32.453 -18.429  -9.106  0.00  0.00     0.194 C 
BRANCH  17  18
ATOM     18  O   UNL d   1      31.081 -18.608  -8.742  0.00  0.00    -0.389 OA
BRANCH  18  19
ATOM     19  C   UNL d   1      30.793 -19.989  -8.516  0.00  0.00     0.163 C 
ATOM     20  C   UNL d   1      31.124 -20.345  -7.081  0.00  0.00     0.033 C 
ENDBRANCH  18  19
ENDBRANCH  17  18
ENDBRANCH  16  17
ENDBRANCH  15  16
ENDBRANCH  12  15
ENDBRANCH   6   9
ENDBRANCH   3   5
ENDBRANCH   1   3
BRANCH   1  21
ATOM     21  N   UNL d   1      25.914 -14.506  -1.485  0.00  0.00    -0.264 N 
ATOM     22  C   UNL d   1      25.344 -15.509  -2.256  0.00  0.00     0.270 C 
ATOM     23  O   UNL d   1      25.536 -15.624  -3.469  0.00  0.00    -0.266 OA
ATOM     24  H   UNL d   1      25.799 -14.474  -0.470  0.00  0.00     0.190 HD
BRANCH  22  25
ATOM     25  C   UNL d   1      24.423 -16.464  -1.538  0.00  0.00     0.033 A 
ATOM     26  C   UNL d   1      24.751 -17.808  -1.278  0.00  0.00     0.019 A 
ATOM     27  C   UNL d   1      23.817 -18.696  -0.666  0.00  0.00     0.030 A 
ATOM     28  C   UNL d   1      22.556 -18.234  -0.262  0.00  0.00     0.034 A 
ATOM     29  C   UNL d   1      22.242 -16.910  -0.586  0.00  0.00     0.030 A 
ATOM     30  C   UNL d   1      23.146 -16.037  -1.200  0.00  0.00     0.019 A 
BRANCH  28  31
ATOM     31  N   UNL d   1      21.651 -19.070   0.477  0.00  0.00    -0.327 N 
ATOM     32  C   UNL d   1      20.555 -19.722  -0.091  0.00  0.00     0.225 C 
ATOM     33  O   UNL d   1      20.287 -19.709  -1.293  0.00  0.00    -0.273 OA
ATOM     34  H   UNL d   1      21.773 -19.115   1.483  0.00  0.00     0.169 HD
BRANCH  32  35
ATOM     35  C   UNL d   1      19.628 -20.513   0.837  0.00  0.00     0.070 C 
ATOM     36  C   UNL d   1      19.287 -19.747   2.107  0.00  0.00     0.019 C 
ATOM     37  C   UNL d   1      18.318 -20.801   0.070  0.00  0.00     0.019 C 
ENDBRANCH  32  35
ENDBRANCH  28  31
ENDBRANCH  22  25
ENDBRANCH   1  21
TORSDOF 12
ENDMDL
MODEL 4
REMARK VINA RESULT:    -9.184      1.779     10.186
REMARK INTER + INTRA:         -14.712
REMARK INTER:                 -12.763
REMARK INTRA:                  -1.949
REMARK CONF_INDEPENDENT:        3.580
REMARK UNBOUND:                -1.949
REMARK  12 active torsions:
REMARK  status: ('A' for Active; 'I' for Inactive)
REMARK    1  A    between atoms: C_2  and  O_3 
REMARK    2  A    between atoms: O_3  and  C_4 
REMARK    3  A    between atoms: C_4  and  C_5 
REMARK    4  A    between atoms: C_5  and  O_6 
REMARK    5  A    between atoms: O_6  and  C_7 
REMARK    6  A    between atoms: C_10  and  C_11 
REMARK       I    between atoms: C_11  and  N_13 
REMARK    7  A    between atoms: N_13  and  C_14 
REMARK    8  A    between atoms: C_14  and  N_16 
REMARK    9  A    between atoms: N_16  and  N_17 
REMARK       I    between atoms: N_17  and  C_18 
REMARK   10  A    between atoms: C_18  and  C_20 
REMARK   11  A    between atoms: C_23  and  N_24 
REMARK       I    between atoms: N_24  and  C_25 
REMARK   12  A    between atoms: C_25  and  C_27 
ROOT
ATOM      1  N   UNL d   1      28.273 -15.050  -0.879  0.00  0.00    -0.273 N 
ATOM      2  H   UNL d   1      28.246 -14.454  -1.704  0.00  0.00     0.189 HD
ENDROOT
BRANCH   1   3
ATOM      3  C   UNL d   1      29.381 -15.274  -0.036  0.00  0.00     0.193 C 
ATOM      4  S   UNL d   1      30.813 -15.882  -0.697  0.00  0.00    -0.039 SA
BRANCH   3   5
ATOM      5  N   UNL d   1      29.186 -14.952   1.330  0.00  0.00    -0.298 N 
ATOM      6  C   UNL d   1      28.087 -14.239   1.884  0.00  0.00     0.257 C 
ATOM      7  O   UNL d   1      27.144 -13.819   1.213  0.00  0.00    -0.267 OA
ATOM      8  H   UNL d   1      29.915 -15.237   1.965  0.00  0.00     0.171 HD
BRANCH   6   9
ATOM      9  C   UNL d   1      28.008 -13.904   3.353  0.00  0.00     0.032 A 
ATOM     10  C   UNL d   1      27.737 -12.559   3.714  0.00  0.00     0.020 A 
ATOM     11  C   UNL d   1      27.788 -12.124   5.049  0.00  0.00     0.038 A 
ATOM     12  C   UNL d   1      28.048 -13.040   6.063  0.00  0.00     0.068 A 
ATOM     13  C   UNL d   1      28.231 -14.382   5.725  0.00  0.00     0.038 A 
ATOM     14  C   UNL d   1      28.224 -14.814   4.385  0.00  0.00     0.020 A 
BRANCH  12  15
ATOM     15  O   UNL d   1      28.014 -12.573   7.350  0.00  0.00    -0.349 OA
BRANCH  15  16
ATOM     16  C   UNL d   1      29.231 -12.741   8.089  0.00  0.00     0.201 C 
BRANCH  16  17
ATOM     17  C   UNL d   1      29.400 -11.577   9.061  0.00  0.00     0.194 C 
BRANCH  17  18
ATOM     18  O   UNL d   1      29.097 -12.006  10.392  0.00  0.00    -0.389 OA
BRANCH  18  19
ATOM     19  C   UNL d   1      27.788 -12.573  10.455  0.00  0.00     0.163 C 
ATOM     20  C   UNL d   1      27.780 -13.716  11.451  0.00  0.00     0.033 C 
ENDBRANCH  18  19
ENDBRANCH  17  18
ENDBRANCH  16  17
ENDBRANCH  15  16
ENDBRANCH  12  15
ENDBRANCH   6   9
ENDBRANCH   3   5
ENDBRANCH   1   3
BRANCH   1  21
ATOM     21  N   UNL d   1      27.015 -15.703  -0.561  0.00  0.00    -0.264 N 
ATOM     22  C   UNL d   1      26.173 -16.239  -1.525  0.00  0.00     0.270 C 
ATOM     23  O   UNL d   1      26.406 -16.186  -2.735  0.00  0.00    -0.266 OA
ATOM     24  H   UNL d   1      26.837 -15.824   0.438  0.00  0.00     0.190 HD
BRANCH  22  25
ATOM     25  C   UNL d   1      24.903 -16.880  -1.024  0.00  0.00     0.033 A 
ATOM     26  C   UNL d   1      23.632 -16.290  -1.158  0.00  0.00     0.019 A 
ATOM     27  C   UNL d   1      22.469 -16.897  -0.598  0.00  0.00     0.030 A 
ATOM     28  C   UNL d   1      22.557 -18.129   0.065  0.00  0.00     0.034 A 
ATOM     29  C   UNL d   1      23.841 -18.659   0.230  0.00  0.00     0.030 A 
ATOM     30  C   UNL d   1      24.990 -18.063  -0.303  0.00  0.00     0.019 A 
BRANCH  28  31
ATOM     31  N   UNL d   1      21.385 -18.825   0.518  0.00  0.00    -0.327 N 
ATOM     32  C   UNL d   1      20.464 -19.436  -0.333  0.00  0.00     0.225 C 
ATOM     33  O   UNL d   1      20.592 -19.505  -1.557  0.00  0.00    -0.273 OA
ATOM     34  H   UNL d   1      21.179 -18.793   1.512  0.00  0.00     0.169 HD
BRANCH  32  35
ATOM     35  C   UNL d   1      19.217 -20.070   0.289  0.00  0.00     0.070 C 
ATOM     36  C   UNL d   1      19.413 -21.546   0.603  0.00  0.00     0.019 C 
ATOM     37  C   UNL d   1      18.908 -19.325   1.606  0.00  0.00     0.019 C 
ENDBRANCH  32  35
ENDBRANCH  28  31
ENDBRANCH  22  25
ENDBRANCH   1  21
TORSDOF 12
ENDMDL
MODEL 5
REMARK VINA RESULT:    -9.118      2.411     10.265
REMARK INTER + INTRA:         -14.636
REMARK INTER:                 -12.697
REMARK INTRA:                  -1.939
REMARK CONF_INDEPENDENT:        3.580
REMARK UNBOUND:                -1.939
REMARK  12 active torsions:
REMARK  status: ('A' for Active; 'I' for Inactive)
REMARK    1  A    between atoms: C_2  and  O_3 
REMARK    2  A    between atoms: O_3  and  C_4 
REMARK    3  A    between atoms: C_4  and  C_5 
REMARK    4  A    between atoms: C_5  and  O_6 
REMARK    5  A    between atoms: O_6  and  C_7 
REMARK    6  A    between atoms: C_10  and  C_11 
REMARK       I    between atoms: C_11  and  N_13 
REMARK    7  A    between atoms: N_13  and  C_14 
REMARK    8  A    between atoms: C_14  and  N_16 
REMARK    9  A    between atoms: N_16  and  N_17 
REMARK       I    between atoms: N_17  and  C_18 
REMARK   10  A    between atoms: C_18  and  C_20 
REMARK   11  A    between atoms: C_23  and  N_24 
REMARK       I    between atoms: N_24  and  C_25 
REMARK   12  A    between atoms: C_25  and  C_27 
ROOT
ATOM      1  N   UNL d   1      27.190 -13.835  -1.581  0.00  0.00    -0.273 N 
ATOM      2  H   UNL d   1      27.764 -14.118  -2.373  0.00  0.00     0.189 HD
ENDROOT
BRANCH   1   3
ATOM      3  C   UNL d   1      27.218 -12.589  -0.921  0.00  0.00     0.193 C 
ATOM      4  S   UNL d   1      27.106 -11.169  -1.830  0.00  0.00    -0.039 SA
BRANCH   3   5
ATOM      5  N   UNL d   1      27.336 -12.647   0.490  0.00  0.00    -0.298 N 
ATOM      6  C   UNL d   1      27.853 -13.730   1.253  0.00  0.00     0.257 C 
ATOM      7  O   UNL d   1      28.281 -14.770   0.752  0.00  0.00    -0.267 OA
ATOM      8  H   UNL d   1      26.996 -11.847   1.000  0.00  0.00     0.171 HD
BRANCH   6   9
ATOM      9  C   UNL d   1      27.883 -13.704   2.762  0.00  0.00     0.032 A 
ATOM     10  C   UNL d   1      27.760 -12.447   3.408  0.00  0.00     0.020 A 
ATOM     11  C   UNL d   1      27.921 -12.307   4.797  0.00  0.00     0.038 A 
ATOM     12  C   UNL d   1      28.146 -13.432   5.581  0.00  0.00     0.068 A 
ATOM     13  C   UNL d   1      28.183 -14.685   4.965  0.00  0.00     0.038 A 
ATOM     14  C   UNL d   1      28.065 -14.824   3.568  0.00  0.00     0.020 A 
BRANCH  12  15
ATOM     15  O   UNL d   1      28.224 -13.244   6.936  0.00  0.00    -0.349 OA
BRANCH  15  16
ATOM     16  C   UNL d   1      29.186 -14.067   7.608  0.00  0.00     0.201 C 
BRANCH  16  17
ATOM     17  C   UNL d   1      29.917 -13.238   8.660  0.00  0.00     0.194 C 
BRANCH  17  18
ATOM     18  O   UNL d   1      29.529 -13.661   9.971  0.00  0.00    -0.389 OA
BRANCH  18  19
ATOM     19  C   UNL d   1      28.249 -13.131  10.315  0.00  0.00     0.163 C 
ATOM     20  C   UNL d   1      28.155 -12.975  11.820  0.00  0.00     0.033 C 
ENDBRANCH  18  19
ENDBRANCH  17  18
ENDBRANCH  16  17
ENDBRANCH  15  16
ENDBRANCH  12  15
ENDBRANCH   6   9
ENDBRANCH   3   5
ENDBRANCH   1   3
BRANCH   1  21
ATOM     21  N   UNL d   1      26.244 -14.841  -1.129  0.00  0.00    -0.264 N 
ATOM     22  C   UNL d   1      25.286 -15.410  -1.956  0.00  0.00     0.270 C 
ATOM     23  O   UNL d   1      25.137 -15.093  -3.139  0.00  0.00    -0.266 OA
ATOM     24  H   UNL d   1      26.397 -15.170  -0.174  0.00  0.00     0.190 HD
BRANCH  22  25
ATOM     25  C   UNL d   1      24.382 -16.438  -1.325  0.00  0.00     0.033 A 
ATOM     26  C   UNL d   1      24.832 -17.694  -0.875  0.00  0.00     0.019 A 
ATOM     27  C   UNL d   1      23.926 -18.666  -0.356  0.00  0.00     0.030 A 
ATOM     28  C   UNL d   1      22.560 -18.373  -0.236  0.00  0.00     0.034 A 
ATOM     29  C   UNL d   1      22.138 -17.140  -0.744  0.00  0.00     0.030 A 
ATOM     30  C   UNL d   1      23.018 -16.186  -1.269  0.00  0.00     0.019 A 
BRANCH  28  31
ATOM     31  N   UNL d   1      21.650 -19.280   0.406  0.00  0.00    -0.327 N 
ATOM     32  C   UNL d   1      20.547 -19.853  -0.227  0.00  0.00     0.225 C 
ATOM     33  O   UNL d   1      20.274 -19.701  -1.418  0.00  0.00    -0.273 OA
ATOM     34  H   UNL d   1      21.777 -19.441   1.400  0.00  0.00     0.169 HD
BRANCH  32  35
ATOM     35  C   UNL d   1      19.616 -20.738   0.609  0.00  0.00     0.070 C 
ATOM     36  C   UNL d   1      19.452 -20.225   2.033  0.00  0.00     0.019 C 
ATOM     37  C   UNL d   1      18.229 -20.749  -0.072  0.00  0.00     0.019 C 
ENDBRANCH  32  35
ENDBRANCH  28  31
ENDBRANCH  22  25
ENDBRANCH   1  21
TORSDOF 12
ENDMDL
MODEL 6
REMARK VINA RESULT:    -8.914      1.946     10.123
REMARK INTER + INTRA:         -14.778
REMARK INTER:                 -12.493
REMARK INTRA:                  -2.284
REMARK CONF_INDEPENDENT:        3.580
REMARK UNBOUND:                -2.284
REMARK  12 active torsions:
REMARK  status: ('A' for Active; 'I' for Inactive)
REMARK    1  A    between atoms: C_2  and  O_3 
REMARK    2  A    between atoms: O_3  and  C_4 
REMARK    3  A    between atoms: C_4  and  C_5 
REMARK    4  A    between atoms: C_5  and  O_6 
REMARK    5  A    between atoms: O_6  and  C_7 
REMARK    6  A    between atoms: C_10  and  C_11 
REMARK       I    between atoms: C_11  and  N_13 
REMARK    7  A    between atoms: N_13  and  C_14 
REMARK    8  A    between atoms: C_14  and  N_16 
REMARK    9  A    between atoms: N_16  and  N_17 
REMARK       I    between atoms: N_17  and  C_18 
REMARK   10  A    between atoms: C_18  and  C_20 
REMARK   11  A    between atoms: C_23  and  N_24 
REMARK       I    between atoms: N_24  and  C_25 
REMARK   12  A    between atoms: C_25  and  C_27 
ROOT
ATOM      1  N   UNL d   1      27.902 -15.174  -1.633  0.00  0.00    -0.273 N 
ATOM      2  H   UNL d   1      27.721 -14.677  -2.503  0.00  0.00     0.189 HD
ENDROOT
BRANCH   1   3
ATOM      3  C   UNL d   1      29.088 -15.138  -0.872  0.00  0.00     0.193 C 
ATOM      4  S   UNL d   1      30.486 -15.865  -1.483  0.00  0.00    -0.039 SA
BRANCH   3   5
ATOM      5  N   UNL d   1      28.996 -14.467   0.374  0.00  0.00    -0.298 N 
ATOM      6  C   UNL d   1      28.164 -14.827   1.470  0.00  0.00     0.257 C 
ATOM      7  O   UNL d   1      27.413 -15.802   1.460  0.00  0.00    -0.267 OA
ATOM      8  H   UNL d   1      29.562 -13.640   0.479  0.00  0.00     0.171 HD
BRANCH   6   9
ATOM      9  C   UNL d   1      28.107 -14.006   2.735  0.00  0.00     0.032 A 
ATOM     10  C   UNL d   1      28.199 -14.690   3.975  0.00  0.00     0.020 A 
ATOM     11  C   UNL d   1      28.011 -14.031   5.202  0.00  0.00     0.038 A 
ATOM     12  C   UNL d   1      27.789 -12.659   5.220  0.00  0.00     0.068 A 
ATOM     13  C   UNL d   1      27.782 -11.963   4.009  0.00  0.00     0.038 A 
ATOM     14  C   UNL d   1      27.927 -12.627   2.776  0.00  0.00     0.020 A 
BRANCH  12  15
ATOM     15  O   UNL d   1      27.684 -12.059   6.447  0.00  0.00    -0.349 OA
BRANCH  15  16
ATOM     16  C   UNL d   1      28.883 -12.071   7.233  0.00  0.00     0.201 C 
BRANCH  16  17
ATOM     17  C   UNL d   1      28.528 -12.318   8.696  0.00  0.00     0.194 C 
BRANCH  17  18
ATOM     18  O   UNL d   1      29.058 -13.578   9.121  0.00  0.00    -0.389 OA
BRANCH  18  19
ATOM     19  C   UNL d   1      30.001 -14.076   8.171  0.00  0.00     0.163 C 
ATOM     20  C   UNL d   1      31.133 -14.771   8.901  0.00  0.00     0.033 C 
ENDBRANCH  18  19
ENDBRANCH  17  18
ENDBRANCH  16  17
ENDBRANCH  15  16
ENDBRANCH  12  15
ENDBRANCH   6   9
ENDBRANCH   3   5
ENDBRANCH   1   3
BRANCH   1  21
ATOM     21  N   UNL d   1      26.791 -15.977  -1.152  0.00  0.00    -0.264 N 
ATOM     22  C   UNL d   1      25.538 -15.976  -1.749  0.00  0.00     0.270 C 
ATOM     23  O   UNL d   1      25.252 -15.276  -2.722  0.00  0.00    -0.266 OA
ATOM     24  H   UNL d   1      27.027 -16.620  -0.392  0.00  0.00     0.190 HD
BRANCH  22  25
ATOM     25  C   UNL d   1      24.497 -16.867  -1.120  0.00  0.00     0.033 A 
ATOM     26  C   UNL d   1      24.757 -18.185  -0.698  0.00  0.00     0.019 A 
ATOM     27  C   UNL d   1      23.721 -19.018  -0.181  0.00  0.00     0.030 A 
ATOM     28  C   UNL d   1      22.416 -18.525  -0.036  0.00  0.00     0.034 A 
ATOM     29  C   UNL d   1      22.180 -17.233  -0.518  0.00  0.00     0.030 A 
ATOM     30  C   UNL d   1      23.187 -16.414  -1.041  0.00  0.00     0.019 A 
BRANCH  28  31
ATOM     31  N   UNL d   1      21.388 -19.295   0.605  0.00  0.00    -0.327 N 
ATOM     32  C   UNL d   1      20.309 -19.867  -0.070  0.00  0.00     0.225 C 
ATOM     33  O   UNL d   1      20.159 -19.834  -1.292  0.00  0.00    -0.273 OA
ATOM     34  H   UNL d   1      21.410 -19.351   1.618  0.00  0.00     0.169 HD
BRANCH  32  35
ATOM     35  C   UNL d   1      19.244 -20.593   0.757  0.00  0.00     0.070 C 
ATOM     36  C   UNL d   1      18.807 -19.788   1.973  0.00  0.00     0.019 C 
ATOM     37  C   UNL d   1      18.013 -20.825  -0.146  0.00  0.00     0.019 C 
ENDBRANCH  32  35
ENDBRANCH  28  31
ENDBRANCH  22  25
ENDBRANCH   1  21
TORSDOF 12
ENDMDL
MODEL 7
REMARK VINA RESULT:    -8.913      2.035     10.064
REMARK INTER + INTRA:         -14.393
REMARK INTER:                 -12.493
REMARK INTRA:                  -1.900
REMARK CONF_INDEPENDENT:        3.580
REMARK UNBOUND:                -1.900
REMARK  12 active torsions:
REMARK  status: ('A' for Active; 'I' for Inactive)
REMARK    1  A    between atoms: C_2  and  O_3 
REMARK    2  A    between atoms: O_3  and  C_4 
REMARK    3  A    between atoms: C_4  and  C_5 
REMARK    4  A    between atoms: C_5  and  O_6 
REMARK    5  A    between atoms: O_6  and  C_7 
REMARK    6  A    between atoms: C_10  and  C_11 
REMARK       I    between atoms: C_11  and  N_13 
REMARK    7  A    between atoms: N_13  and  C_14 
REMARK    8  A    between atoms: C_14  and  N_16 
REMARK    9  A    between atoms: N_16  and  N_17 
REMARK       I    between atoms: N_17  and  C_18 
REMARK   10  A    between atoms: C_18  and  C_20 
REMARK   11  A    between atoms: C_23  and  N_24 
REMARK       I    between atoms: N_24  and  C_25 
REMARK   12  A    between atoms: C_25  and  C_27 
ROOT
ATOM      1  N   UNL d   1      28.477 -15.256  -1.335  0.00  0.00    -0.273 N 
ATOM      2  H   UNL d   1      28.387 -14.693  -2.178  0.00  0.00     0.189 HD
ENDROOT
BRANCH   1   3
ATOM      3  C   UNL d   1      29.630 -15.400  -0.536  0.00  0.00     0.193 C 
ATOM      4  S   UNL d   1      31.113 -15.732  -1.275  0.00  0.00    -0.039 SA
BRANCH   3   5
ATOM      5  N   UNL d   1      29.431 -15.242   0.859  0.00  0.00    -0.298 N 
ATOM      6  C   UNL d   1      28.704 -14.201   1.499  0.00  0.00     0.257 C 
ATOM      7  O   UNL d   1      28.138 -13.295   0.887  0.00  0.00    -0.267 OA
ATOM      8  H   UNL d   1      29.872 -15.926   1.454  0.00  0.00     0.171 HD
BRANCH   6   9
ATOM      9  C   UNL d   1      28.602 -14.101   3.001  0.00  0.00     0.032 A 
ATOM     10  C   UNL d   1      29.807 -14.075   3.749  0.00  0.00     0.020 A 
ATOM     11  C   UNL d   1      29.811 -14.130   5.153  0.00  0.00     0.038 A 
ATOM     12  C   UNL d   1      28.605 -14.147   5.845  0.00  0.00     0.068 A 
ATOM     13  C   UNL d   1      27.413 -14.086   5.120  0.00  0.00     0.038 A 
ATOM     14  C   UNL d   1      27.405 -14.075   3.712  0.00  0.00     0.020 A 
BRANCH  12  15
ATOM     15  O   UNL d   1      28.669 -14.128   7.213  0.00  0.00    -0.349 OA
BRANCH  15  16
ATOM     16  C   UNL d   1      29.526 -13.121   7.767  0.00  0.00     0.201 C 
BRANCH  16  17
ATOM     17  C   UNL d   1      28.860 -11.755   7.628  0.00  0.00     0.194 C 
BRANCH  17  18
ATOM     18  O   UNL d   1      29.706 -10.873   6.883  0.00  0.00    -0.389 OA
BRANCH  18  19
ATOM     19  C   UNL d   1      28.927  -9.981   6.084  0.00  0.00     0.163 C 
ATOM     20  C   UNL d   1      28.141 -10.776   5.060  0.00  0.00     0.033 C 
ENDBRANCH  18  19
ENDBRANCH  17  18
ENDBRANCH  16  17
ENDBRANCH  15  16
ENDBRANCH  12  15
ENDBRANCH   6   9
ENDBRANCH   3   5
ENDBRANCH   1   3
BRANCH   1  21
ATOM     21  N   UNL d   1      27.265 -15.951  -0.939  0.00  0.00    -0.264 N 
ATOM     22  C   UNL d   1      26.115 -15.977  -1.716  0.00  0.00     0.270 C 
ATOM     23  O   UNL d   1      26.015 -15.393  -2.798  0.00  0.00    -0.266 OA
ATOM     24  H   UNL d   1      27.349 -16.502  -0.082  0.00  0.00     0.190 HD
BRANCH  22  25
ATOM     25  C   UNL d   1      24.945 -16.744  -1.155  0.00  0.00     0.033 A 
ATOM     26  C   UNL d   1      23.609 -16.313  -1.270  0.00  0.00     0.019 A 
ATOM     27  C   UNL d   1      22.541 -17.031  -0.654  0.00  0.00     0.030 A 
ATOM     28  C   UNL d   1      22.792 -18.219   0.047  0.00  0.00     0.034 A 
ATOM     29  C   UNL d   1      24.134 -18.588   0.190  0.00  0.00     0.030 A 
ATOM     30  C   UNL d   1      25.190 -17.881  -0.397  0.00  0.00     0.019 A 
BRANCH  28  31
ATOM     31  N   UNL d   1      21.724 -19.030   0.559  0.00  0.00    -0.327 N 
ATOM     32  C   UNL d   1      20.729 -19.600  -0.237  0.00  0.00     0.225 C 
ATOM     33  O   UNL d   1      20.699 -19.528  -1.466  0.00  0.00    -0.273 OA
ATOM     34  H   UNL d   1      21.648 -19.119   1.567  0.00  0.00     0.169 HD
BRANCH  32  35
ATOM     35  C   UNL d   1      19.604 -20.373   0.459  0.00  0.00     0.070 C 
ATOM     36  C   UNL d   1      19.147 -19.699   1.745  0.00  0.00     0.019 C 
ATOM     37  C   UNL d   1      18.404 -20.446  -0.511  0.00  0.00     0.019 C 
ENDBRANCH  32  35
ENDBRANCH  28  31
ENDBRANCH  22  25
ENDBRANCH   1  21
TORSDOF 12
ENDMDL
MODEL 8
REMARK VINA RESULT:    -8.708      0.796      1.533
REMARK INTER + INTRA:         -14.508
REMARK INTER:                 -12.287
REMARK INTRA:                  -2.221
REMARK CONF_INDEPENDENT:        3.580
REMARK UNBOUND:                -2.221
REMARK  12 active torsions:
REMARK  status: ('A' for Active; 'I' for Inactive)
REMARK    1  A    between atoms: C_2  and  O_3 
REMARK    2  A    between atoms: O_3  and  C_4 
REMARK    3  A    between atoms: C_4  and  C_5 
REMARK    4  A    between atoms: C_5  and  O_6 
REMARK    5  A    between atoms: O_6  and  C_7 
REMARK    6  A    between atoms: C_10  and  C_11 
REMARK       I    between atoms: C_11  and  N_13 
REMARK    7  A    between atoms: N_13  and  C_14 
REMARK    8  A    between atoms: C_14  and  N_16 
REMARK    9  A    between atoms: N_16  and  N_17 
REMARK       I    between atoms: N_17  and  C_18 
REMARK   10  A    between atoms: C_18  and  C_20 
REMARK   11  A    between atoms: C_23  and  N_24 
REMARK       I    between atoms: N_24  and  C_25 
REMARK   12  A    between atoms: C_25  and  C_27 
ROOT
ATOM      1  N   UNL d   1      29.393 -15.272  -0.293  0.00  0.00    -0.273 N 
ATOM      2  H   UNL d   1      29.852 -14.473  -0.725  0.00  0.00     0.189 HD
ENDROOT
BRANCH   1   3
ATOM      3  C   UNL d   1      28.914 -16.425  -0.948  0.00  0.00     0.193 C 
ATOM      4  S   UNL d   1      30.019 -17.543  -1.570  0.00  0.00    -0.039 SA
BRANCH   3   5
ATOM      5  N   UNL d   1      27.503 -16.547  -1.022  0.00  0.00    -0.298 N 
ATOM      6  C   UNL d   1      26.632 -16.942   0.029  0.00  0.00     0.257 C 
ATOM      7  O   UNL d   1      27.020 -17.222   1.163  0.00  0.00    -0.267 OA
ATOM      8  H   UNL d   1      27.085 -16.355  -1.918  0.00  0.00     0.171 HD
BRANCH   6   9
ATOM      9  C   UNL d   1      25.144 -17.089  -0.177  0.00  0.00     0.032 A 
ATOM     10  C   UNL d   1      24.564 -18.363   0.053  0.00  0.00     0.020 A 
ATOM     11  C   UNL d   1      23.218 -18.633  -0.250  0.00  0.00     0.038 A 
ATOM     12  C   UNL d   1      22.404 -17.614  -0.731  0.00  0.00     0.068 A 
ATOM     13  C   UNL d   1      22.944 -16.335  -0.880  0.00  0.00     0.038 A 
ATOM     14  C   UNL d   1      24.302 -16.072  -0.618  0.00  0.00     0.020 A 
BRANCH  12  15
ATOM     15  O   UNL d   1      21.084 -17.916  -0.942  0.00  0.00    -0.349 OA
BRANCH  15  16
ATOM     16  C   UNL d   1      20.785 -19.317  -1.003  0.00  0.00     0.201 C 
BRANCH  16  17
ATOM     17  C   UNL d   1      19.802 -19.675   0.108  0.00  0.00     0.194 C 
BRANCH  17  18
ATOM     18  O   UNL d   1      20.457 -20.474   1.098  0.00  0.00    -0.389 OA
BRANCH  18  19
ATOM     19  C   UNL d   1      19.809 -20.341   2.364  0.00  0.00     0.163 C 
ATOM     20  C   UNL d   1      18.335 -20.059   2.150  0.00  0.00     0.033 C 
ENDBRANCH  18  19
ENDBRANCH  17  18
ENDBRANCH  16  17
ENDBRANCH  15  16
ENDBRANCH  12  15
ENDBRANCH   6   9
ENDBRANCH   3   5
ENDBRANCH   1   3
BRANCH   1  21
ATOM     21  N   UNL d   1      29.254 -15.184   1.150  0.00  0.00    -0.264 N 
ATOM     22  C   UNL d   1      29.567 -14.043   1.875  0.00  0.00     0.270 C 
ATOM     23  O   UNL d   1      30.013 -13.014   1.361  0.00  0.00    -0.266 OA
ATOM     24  H   UNL d   1      28.818 -15.999   1.587  0.00  0.00     0.190 HD
BRANCH  22  25
ATOM     25  C   UNL d   1      29.367 -14.122   3.367  0.00  0.00     0.033 A 
ATOM     26  C   UNL d   1      30.304 -14.700   4.245  0.00  0.00     0.019 A 
ATOM     27  C   UNL d   1      30.037 -14.824   5.641  0.00  0.00     0.030 A 
ATOM     28  C   UNL d   1      28.844 -14.326   6.185  0.00  0.00     0.034 A 
ATOM     29  C   UNL d   1      27.911 -13.810   5.278  0.00  0.00     0.030 A 
ATOM     30  C   UNL d   1      28.159 -13.699   3.905  0.00  0.00     0.019 A 
BRANCH  28  31
ATOM     31  N   UNL d   1      28.609 -14.316   7.601  0.00  0.00    -0.327 N 
ATOM     32  C   UNL d   1      28.528 -13.153   8.368  0.00  0.00     0.225 C 
ATOM     33  O   UNL d   1      28.577 -12.013   7.906  0.00  0.00    -0.273 OA
ATOM     34  H   UNL d   1      28.587 -15.212   8.076  0.00  0.00     0.169 HD
BRANCH  32  35
ATOM     35  C   UNL d   1      28.357 -13.300   9.884  0.00  0.00     0.070 C 
ATOM     36  C   UNL d   1      28.723 -14.693  10.376  0.00  0.00     0.019 C 
ATOM     37  C   UNL d   1      29.287 -12.276  10.570  0.00  0.00     0.019 C 
ENDBRANCH  32  35
ENDBRANCH  28  31
ENDBRANCH  22  25
ENDBRANCH   1  21
TORSDOF 12
ENDMDL
