MODEL 1
REMARK VINA RESULT:    -7.435      0.000      0.000
REMARK INTER + INTRA:         -10.529
REMARK INTER:                  -9.523
REMARK INTRA:                  -1.006
REMARK CONF_INDEPENDENT:        2.088
REMARK UNBOUND:                -1.006
REMARK  7 active torsions:
REMARK  status: ('A' for Active; 'I' for Inactive)
REMARK    1  A    between atoms: C_2  and  N_16 
REMARK    2  A    between atoms: C_3  and  C_4 
REMARK       I    between atoms: C_4  and  N_6 
REMARK    3  A    between atoms: N_6  and  C_7 
REMARK    4  A    between atoms: C_11  and  N_12 
REMARK    5  A    between atoms: N_16  and  N_17 
REMARK       I    between atoms: N_17  and  C_18 
REMARK    6  A    between atoms: C_18  and  C_20 
REMARK    7  A    between atoms: C_26  and  O_27 
ROOT
ATOM      1  C   UNL d   1      25.153 -16.299  -2.407  0.00  0.00     0.070 C 
ATOM      2  C   UNL d   1      25.546 -16.490  -0.942  0.00  0.00     0.027 C 
ATOM      3  C   UNL d   1      24.859 -17.311  -0.105  0.00  0.00     0.100 C 
ENDROOT
BRANCH   2   4
ATOM      4  N   UNL d   1      26.674 -15.752  -0.562  0.00  0.00    -0.302 N 
ATOM      5  H   UNL d   1      27.416 -15.607  -1.257  0.00  0.00     0.186 HD
BRANCH   4   6
ATOM      6  N   UNL d   1      26.855 -15.079   0.653  0.00  0.00    -0.266 N 
ATOM      7  C   UNL d   1      26.869 -13.693   0.707  0.00  0.00     0.272 C 
ATOM      8  O   UNL d   1      26.583 -12.952  -0.237  0.00  0.00    -0.266 OA
ATOM      9  H   UNL d   1      27.259 -15.597   1.424  0.00  0.00     0.190 HD
BRANCH   7  10
ATOM     10  C   UNL d   1      27.245 -13.099   2.034  0.00  0.00     0.067 A 
ATOM     11  C   UNL d   1      27.026 -11.729   2.256  0.00  0.00     0.020 A 
ATOM     12  C   UNL d   1      27.482 -11.117   3.428  0.00  0.00     0.002 A 
ATOM     13  C   UNL d   1      28.125 -11.874   4.408  0.00  0.00     0.009 A 
ATOM     14  C   UNL d   1      28.347 -13.246   4.216  0.00  0.00    -0.028 A 
ATOM     15  C   UNL d   1      29.122 -14.005   5.254  0.00  0.00     0.051 C 
ATOM     16  C   UNL d   1      27.885 -13.853   3.032  0.00  0.00     0.087 A 
BRANCH  16  17
ATOM     17  O   UNL d   1      28.051 -15.200   2.825  0.00  0.00    -0.359 OA
ATOM     18  H   UNL d   1      28.621 -15.572   3.518  0.00  0.00     0.217 HD
ENDBRANCH  16  17
ENDBRANCH   7  10
ENDBRANCH   4   6
ENDBRANCH   2   4
BRANCH   3  19
ATOM     19  C   UNL d   1      23.660 -18.120  -0.481  0.00  0.00     0.247 C 
ATOM     20  O   UNL d   1      23.637 -18.826  -1.489  0.00  0.00    -0.268 OA
ATOM     21  N   UNL d   1      22.540 -17.990   0.318  0.00  0.00    -0.324 N 
ATOM     22  H   UNL d   1      22.468 -17.229   0.982  0.00  0.00     0.169 HD
BRANCH  21  23
ATOM     23  C   UNL d   1      21.382 -18.766   0.047  0.00  0.00     0.037 A 
ATOM     24  C   UNL d   1      20.950 -18.966  -1.265  0.00  0.00     0.029 A 
ATOM     25  C   UNL d   1      19.781 -19.700  -1.516  0.00  0.00     0.005 A 
ATOM     26  C   UNL d   1      19.055 -20.264  -0.464  0.00  0.00     0.036 A 
ATOM     27  C   UNL d   1      19.489 -20.064   0.849  0.00  0.00     0.105 A 
ATOM     28  C   UNL d   1      20.646 -19.325   1.103  0.00  0.00     0.065 A 
BRANCH  27  29
ATOM     29  N   UNL d   1      18.696 -20.569   1.977  0.00  0.00    -0.116 N 
ATOM     30  O   UNL d   1      19.187 -20.480   3.110  0.00  0.00    -0.532 OA
ATOM     31  O   UNL d   1      17.595 -21.083   1.729  0.00  0.00    -0.532 OA
ENDBRANCH  27  29
ENDBRANCH  21  23
ENDBRANCH   3  19
TORSDOF 7
ENDMDL
MODEL 2
REMARK VINA RESULT:    -7.434      5.091      7.752
REMARK INTER + INTRA:         -10.562
REMARK INTER:                  -9.522
REMARK INTRA:                  -1.039
REMARK CONF_INDEPENDENT:        2.088
REMARK UNBOUND:                -1.039
REMARK  7 active torsions:
REMARK  status: ('A' for Active; 'I' for Inactive)
REMARK    1  A    between atoms: C_2  and  N_16 
REMARK    2  A    between atoms: C_3  and  C_4 
REMARK       I    between atoms: C_4  and  N_6 
REMARK    3  A    between atoms: N_6  and  C_7 
REMARK    4  A    between atoms: C_11  and  N_12 
REMARK    5  A    between atoms: N_16  and  N_17 
REMARK       I    between atoms: N_17  and  C_18 
REMARK    6  A    between atoms: C_18  and  C_20 
REMARK    7  A    between atoms: C_26  and  O_27 
ROOT
ATOM      1  C   UNL d   1      27.770 -15.231   5.068  0.00  0.00     0.070 C 
ATOM      2  C   UNL d   1      28.987 -14.516   4.482  0.00  0.00     0.027 C 
ATOM      3  C   UNL d   1      29.072 -14.178   3.169  0.00  0.00     0.100 C 
ENDROOT
BRANCH   2   4
ATOM      4  N   UNL d   1      29.985 -14.241   5.426  0.00  0.00    -0.302 N 
ATOM      5  H   UNL d   1      30.858 -13.809   5.099  0.00  0.00     0.186 HD
BRANCH   4   6
ATOM      6  N   UNL d   1      29.877 -14.388   6.815  0.00  0.00    -0.266 N 
ATOM      7  C   UNL d   1      29.015 -13.591   7.554  0.00  0.00     0.272 C 
ATOM      8  O   UNL d   1      28.185 -12.818   7.067  0.00  0.00    -0.266 OA
ATOM      9  H   UNL d   1      30.628 -14.865   7.298  0.00  0.00     0.190 HD
BRANCH   7  10
ATOM     10  C   UNL d   1      29.122 -13.728   9.045  0.00  0.00     0.067 A 
ATOM     11  C   UNL d   1      28.164 -13.101   9.859  0.00  0.00     0.020 A 
ATOM     12  C   UNL d   1      28.306 -13.098  11.251  0.00  0.00     0.002 A 
ATOM     13  C   UNL d   1      29.383 -13.755  11.846  0.00  0.00     0.009 A 
ATOM     14  C   UNL d   1      30.348 -14.398  11.056  0.00  0.00    -0.028 A 
ATOM     15  C   UNL d   1      31.540 -15.016  11.730  0.00  0.00     0.051 C 
ATOM     16  C   UNL d   1      30.198 -14.395   9.655  0.00  0.00     0.087 A 
BRANCH  16  17
ATOM     17  O   UNL d   1      31.102 -15.044   8.853  0.00  0.00    -0.359 OA
ATOM     18  H   UNL d   1      30.799 -15.950   8.679  0.00  0.00     0.217 HD
ENDBRANCH  16  17
ENDBRANCH   7  10
ENDBRANCH   4   6
ENDBRANCH   2   4
BRANCH   3  19
ATOM     19  C   UNL d   1      28.023 -14.446   2.139  0.00  0.00     0.247 C 
ATOM     20  O   UNL d   1      27.022 -13.739   2.025  0.00  0.00    -0.268 OA
ATOM     21  N   UNL d   1      28.186 -15.573   1.356  0.00  0.00    -0.324 N 
ATOM     22  H   UNL d   1      28.857 -16.286   1.614  0.00  0.00     0.169 HD
BRANCH  21  23
ATOM     23  C   UNL d   1      27.253 -15.861   0.325  0.00  0.00     0.037 A 
ATOM     24  C   UNL d   1      26.638 -17.112   0.251  0.00  0.00     0.029 A 
ATOM     25  C   UNL d   1      25.750 -17.398  -0.796  0.00  0.00     0.005 A 
ATOM     26  C   UNL d   1      25.444 -16.428  -1.756  0.00  0.00     0.036 A 
ATOM     27  C   UNL d   1      26.059 -15.176  -1.680  0.00  0.00     0.105 A 
ATOM     28  C   UNL d   1      26.952 -14.892  -0.645  0.00  0.00     0.065 A 
BRANCH  27  29
ATOM     29  N   UNL d   1      25.826 -14.171  -2.725  0.00  0.00    -0.116 N 
ATOM     30  O   UNL d   1      25.155 -14.512  -3.709  0.00  0.00    -0.532 OA
ATOM     31  O   UNL d   1      26.338 -13.052  -2.580  0.00  0.00    -0.532 OA
ENDBRANCH  27  29
ENDBRANCH  21  23
ENDBRANCH   3  19
TORSDOF 7
ENDMDL
MODEL 3
REMARK VINA RESULT:    -7.284      4.059     10.332
REMARK INTER + INTRA:         -10.453
REMARK INTER:                  -9.372
REMARK INTRA:                  -1.081
REMARK CONF_INDEPENDENT:        2.088
REMARK UNBOUND:                -1.081
REMARK  7 active torsions:
REMARK  status: ('A' for Active; 'I' for Inactive)
REMARK    1  A    between atoms: C_2  and  N_16 
REMARK    2  A    between atoms: C_3  and  C_4 
REMARK       I    between atoms: C_4  and  N_6 
REMARK    3  A    between atoms: N_6  and  C_7 
REMARK    4  A    between atoms: C_11  and  N_12 
REMARK    5  A    between atoms: N_16  and  N_17 
REMARK       I    between atoms: N_17  and  C_18 
REMARK    6  A    between atoms: C_18  and  C_20 
REMARK    7  A    between atoms: C_26  and  O_27 
ROOT
ATOM      1  C   UNL d   1      24.868 -18.257  -0.336  0.00  0.00     0.070 C 
ATOM      2  C   UNL d   1      24.322 -16.967  -0.947  0.00  0.00     0.027 C 
ATOM      3  C   UNL d   1      25.108 -16.094  -1.630  0.00  0.00     0.100 C 
ENDROOT
BRANCH   2   4
ATOM      4  N   UNL d   1      22.949 -16.785  -0.740  0.00  0.00    -0.302 N 
ATOM      5  H   UNL d   1      22.472 -16.044  -1.267  0.00  0.00     0.186 HD
BRANCH   4   6
ATOM      6  N   UNL d   1      22.112 -17.594   0.041  0.00  0.00    -0.266 N 
ATOM      7  C   UNL d   1      21.408 -18.647  -0.523  0.00  0.00     0.272 C 
ATOM      8  O   UNL d   1      21.558 -19.052  -1.679  0.00  0.00    -0.266 OA
ATOM      9  H   UNL d   1      21.807 -17.232   0.935  0.00  0.00     0.190 HD
BRANCH   7  10
ATOM     10  C   UNL d   1      20.417 -19.323   0.380  0.00  0.00     0.067 A 
ATOM     11  C   UNL d   1      20.655 -19.341   1.765  0.00  0.00     0.020 A 
ATOM     12  C   UNL d   1      19.824 -20.070   2.621  0.00  0.00     0.002 A 
ATOM     13  C   UNL d   1      18.722 -20.756   2.109  0.00  0.00     0.009 A 
ATOM     14  C   UNL d   1      18.455 -20.745   0.732  0.00  0.00    -0.028 A 
ATOM     15  C   UNL d   1      17.312 -21.569   0.211  0.00  0.00     0.051 C 
ATOM     16  C   UNL d   1      19.299 -20.008  -0.123  0.00  0.00     0.087 A 
BRANCH  16  17
ATOM     17  O   UNL d   1      19.047 -19.946  -1.470  0.00  0.00    -0.359 OA
ATOM     18  H   UNL d   1      19.667 -19.331  -1.894  0.00  0.00     0.217 HD
ENDBRANCH  16  17
ENDBRANCH   7  10
ENDBRANCH   4   6
ENDBRANCH   2   4
BRANCH   3  19
ATOM     19  C   UNL d   1      26.572 -16.263  -1.878  0.00  0.00     0.247 C 
ATOM     20  O   UNL d   1      27.235 -17.133  -1.312  0.00  0.00    -0.268 OA
ATOM     21  N   UNL d   1      27.174 -15.352  -2.724  0.00  0.00    -0.324 N 
ATOM     22  H   UNL d   1      26.698 -14.497  -2.981  0.00  0.00     0.169 HD
BRANCH  21  23
ATOM     23  C   UNL d   1      28.552 -15.483  -3.042  0.00  0.00     0.037 A 
ATOM     24  C   UNL d   1      29.531 -15.238  -2.079  0.00  0.00     0.029 A 
ATOM     25  C   UNL d   1      30.890 -15.330  -2.417  0.00  0.00     0.005 A 
ATOM     26  C   UNL d   1      31.278 -15.699  -3.708  0.00  0.00     0.036 A 
ATOM     27  C   UNL d   1      30.297 -15.946  -4.672  0.00  0.00     0.105 A 
ATOM     28  C   UNL d   1      28.945 -15.844  -4.341  0.00  0.00     0.065 A 
BRANCH  27  29
ATOM     29  N   UNL d   1      30.678 -16.246  -6.057  0.00  0.00    -0.116 N 
ATOM     30  O   UNL d   1      30.030 -17.116  -6.656  0.00  0.00    -0.532 OA
ATOM     31  O   UNL d   1      31.644 -15.637  -6.539  0.00  0.00    -0.532 OA
ENDBRANCH  27  29
ENDBRANCH  21  23
ENDBRANCH   3  19
TORSDOF 7
ENDMDL
MODEL 4
REMARK VINA RESULT:    -7.245      4.205      7.381
REMARK INTER + INTRA:         -10.482
REMARK INTER:                  -9.333
REMARK INTRA:                  -1.150
REMARK CONF_INDEPENDENT:        2.088
REMARK UNBOUND:                -1.150
REMARK  7 active torsions:
REMARK  status: ('A' for Active; 'I' for Inactive)
REMARK    1  A    between atoms: C_2  and  N_16 
REMARK    2  A    between atoms: C_3  and  C_4 
REMARK       I    between atoms: C_4  and  N_6 
REMARK    3  A    between atoms: N_6  and  C_7 
REMARK    4  A    between atoms: C_11  and  N_12 
REMARK    5  A    between atoms: N_16  and  N_17 
REMARK       I    between atoms: N_17  and  C_18 
REMARK    6  A    between atoms: C_18  and  C_20 
REMARK    7  A    between atoms: C_26  and  O_27 
ROOT
ATOM      1  C   UNL d   1      27.780 -15.201   5.111  0.00  0.00     0.070 C 
ATOM      2  C   UNL d   1      29.045 -14.491   4.629  0.00  0.00     0.027 C 
ATOM      3  C   UNL d   1      29.204 -14.075   3.346  0.00  0.00     0.100 C 
ENDROOT
BRANCH   2   4
ATOM      4  N   UNL d   1      30.004 -14.308   5.634  0.00  0.00    -0.302 N 
ATOM      5  H   UNL d   1      30.929 -13.955   5.364  0.00  0.00     0.186 HD
BRANCH   4   6
ATOM      6  N   UNL d   1      29.798 -14.449   7.013  0.00  0.00    -0.266 N 
ATOM      7  C   UNL d   1      29.084 -13.501   7.730  0.00  0.00     0.272 C 
ATOM      8  O   UNL d   1      28.459 -12.565   7.225  0.00  0.00    -0.266 OA
ATOM      9  H   UNL d   1      30.409 -15.079   7.519  0.00  0.00     0.190 HD
BRANCH   7  10
ATOM     10  C   UNL d   1      29.087 -13.678   9.221  0.00  0.00     0.067 A 
ATOM     11  C   UNL d   1      28.155 -12.967   9.996  0.00  0.00     0.020 A 
ATOM     12  C   UNL d   1      28.212 -13.007  11.393  0.00  0.00     0.002 A 
ATOM     13  C   UNL d   1      29.174 -13.789  12.031  0.00  0.00     0.009 A 
ATOM     14  C   UNL d   1      30.110 -14.519  11.281  0.00  0.00    -0.028 A 
ATOM     15  C   UNL d   1      31.185 -15.276  12.007  0.00  0.00     0.051 C 
ATOM     16  C   UNL d   1      30.045 -14.471   9.875  0.00  0.00     0.087 A 
BRANCH  16  17
ATOM     17  O   UNL d   1      30.920 -15.199   9.109  0.00  0.00    -0.359 OA
ATOM     18  H   UNL d   1      30.701 -16.143   9.165  0.00  0.00     0.217 HD
ENDBRANCH  16  17
ENDBRANCH   7  10
ENDBRANCH   4   6
ENDBRANCH   2   4
BRANCH   3  19
ATOM     19  C   UNL d   1      28.198 -14.244   2.253  0.00  0.00     0.247 C 
ATOM     20  O   UNL d   1      27.168 -13.571   2.203  0.00  0.00    -0.268 OA
ATOM     21  N   UNL d   1      28.438 -15.242   1.329  0.00  0.00    -0.324 N 
ATOM     22  H   UNL d   1      29.134 -15.954   1.511  0.00  0.00     0.169 HD
BRANCH  21  23
ATOM     23  C   UNL d   1      27.548 -15.426   0.237  0.00  0.00     0.037 A 
ATOM     24  C   UNL d   1      27.536 -14.526  -0.830  0.00  0.00     0.029 A 
ATOM     25  C   UNL d   1      26.624 -14.696  -1.882  0.00  0.00     0.005 A 
ATOM     26  C   UNL d   1      25.742 -15.780  -1.892  0.00  0.00     0.036 A 
ATOM     27  C   UNL d   1      25.756 -16.681  -0.824  0.00  0.00     0.105 A 
ATOM     28  C   UNL d   1      26.655 -16.509   0.230  0.00  0.00     0.065 A 
BRANCH  27  29
ATOM     29  N   UNL d   1      24.780 -17.776  -0.765  0.00  0.00    -0.116 N 
ATOM     30  O   UNL d   1      24.860 -18.567   0.185  0.00  0.00    -0.532 OA
ATOM     31  O   UNL d   1      23.952 -17.866  -1.684  0.00  0.00    -0.532 OA
ENDBRANCH  27  29
ENDBRANCH  21  23
ENDBRANCH   3  19
TORSDOF 7
ENDMDL
MODEL 5
REMARK VINA RESULT:    -7.139      4.794      7.333
REMARK INTER + INTRA:         -10.358
REMARK INTER:                  -9.227
REMARK INTRA:                  -1.130
REMARK CONF_INDEPENDENT:        2.088
REMARK UNBOUND:                -1.130
REMARK  7 active torsions:
REMARK  status: ('A' for Active; 'I' for Inactive)
REMARK    1  A    between atoms: C_2  and  N_16 
REMARK    2  A    between atoms: C_3  and  C_4 
REMARK       I    between atoms: C_4  and  N_6 
REMARK    3  A    between atoms: N_6  and  C_7 
REMARK    4  A    between atoms: C_11  and  N_12 
REMARK    5  A    between atoms: N_16  and  N_17 
REMARK       I    between atoms: N_17  and  C_18 
REMARK    6  A    between atoms: C_18  and  C_20 
REMARK    7  A    between atoms: C_26  and  O_27 
ROOT
ATOM      1  C   UNL d   1      27.575 -14.619   4.511  0.00  0.00     0.070 C 
ATOM      2  C   UNL d   1      28.860 -14.305   3.745  0.00  0.00     0.027 C 
ATOM      3  C   UNL d   1      28.925 -14.329   2.389  0.00  0.00     0.100 C 
ENDROOT
BRANCH   2   4
ATOM      4  N   UNL d   1      29.944 -13.986   4.574  0.00  0.00    -0.302 N 
ATOM      5  H   UNL d   1      30.718 -13.443   4.174  0.00  0.00     0.186 HD
BRANCH   4   6
ATOM      6  N   UNL d   1      30.038 -14.234   5.949  0.00  0.00    -0.266 N 
ATOM      7  C   UNL d   1      29.383 -13.427   6.868  0.00  0.00     0.272 C 
ATOM      8  O   UNL d   1      28.569 -12.548   6.574  0.00  0.00    -0.266 OA
ATOM      9  H   UNL d   1      30.804 -14.812   6.273  0.00  0.00     0.190 HD
BRANCH   7  10
ATOM     10  C   UNL d   1      29.706 -13.691   8.311  0.00  0.00     0.067 A 
ATOM     11  C   UNL d   1      30.844 -14.452   8.628  0.00  0.00     0.020 A 
ATOM     12  C   UNL d   1      31.103 -14.827   9.950  0.00  0.00     0.002 A 
ATOM     13  C   UNL d   1      30.252 -14.411  10.975  0.00  0.00     0.009 A 
ATOM     14  C   UNL d   1      29.115 -13.640  10.686  0.00  0.00    -0.028 A 
ATOM     15  C   UNL d   1      28.177 -13.290  11.805  0.00  0.00     0.051 C 
ATOM     16  C   UNL d   1      28.862 -13.269   9.351  0.00  0.00     0.087 A 
BRANCH  16  17
ATOM     17  O   UNL d   1      27.780 -12.486   9.036  0.00  0.00    -0.359 OA
ATOM     18  H   UNL d   1      27.774 -12.298   8.084  0.00  0.00     0.217 HD
ENDBRANCH  16  17
ENDBRANCH   7  10
ENDBRANCH   4   6
ENDBRANCH   2   4
BRANCH   3  19
ATOM     19  C   UNL d   1      27.786 -14.654   1.476  0.00  0.00     0.247 C 
ATOM     20  O   UNL d   1      26.816 -13.907   1.348  0.00  0.00    -0.268 OA
ATOM     21  N   UNL d   1      27.832 -15.872   0.826  0.00  0.00    -0.324 N 
ATOM     22  H   UNL d   1      28.483 -16.589   1.121  0.00  0.00     0.169 HD
BRANCH  21  23
ATOM     23  C   UNL d   1      26.808 -16.224  -0.093  0.00  0.00     0.037 A 
ATOM     24  C   UNL d   1      25.891 -17.231   0.214  0.00  0.00     0.029 A 
ATOM     25  C   UNL d   1      24.911 -17.597  -0.720  0.00  0.00     0.005 A 
ATOM     26  C   UNL d   1      24.818 -16.941  -1.951  0.00  0.00     0.036 A 
ATOM     27  C   UNL d   1      25.735 -15.931  -2.256  0.00  0.00     0.105 A 
ATOM     28  C   UNL d   1      26.720 -15.572  -1.333  0.00  0.00     0.065 A 
BRANCH  27  29
ATOM     29  N   UNL d   1      25.718 -15.289  -3.576  0.00  0.00    -0.116 N 
ATOM     30  O   UNL d   1      24.780 -14.520  -3.827  0.00  0.00    -0.532 OA
ATOM     31  O   UNL d   1      26.622 -15.575  -4.374  0.00  0.00    -0.532 OA
ENDBRANCH  27  29
ENDBRANCH  21  23
ENDBRANCH   3  19
TORSDOF 7
ENDMDL
MODEL 6
REMARK VINA RESULT:    -6.984      6.191      8.068
REMARK INTER + INTRA:         -10.573
REMARK INTER:                  -9.072
REMARK INTRA:                  -1.500
REMARK CONF_INDEPENDENT:        2.088
REMARK UNBOUND:                -1.500
REMARK  7 active torsions:
REMARK  status: ('A' for Active; 'I' for Inactive)
REMARK    1  A    between atoms: C_2  and  N_16 
REMARK    2  A    between atoms: C_3  and  C_4 
REMARK       I    between atoms: C_4  and  N_6 
REMARK    3  A    between atoms: N_6  and  C_7 
REMARK    4  A    between atoms: C_11  and  N_12 
REMARK    5  A    between atoms: N_16  and  N_17 
REMARK       I    between atoms: N_17  and  C_18 
REMARK    6  A    between atoms: C_18  and  C_20 
REMARK    7  A    between atoms: C_26  and  O_27 
ROOT
ATOM      1  C   UNL d   1      27.775 -12.841  -2.767  0.00  0.00     0.070 C 
ATOM      2  C   UNL d   1      26.765 -12.440  -3.841  0.00  0.00     0.027 C 
ATOM      3  C   UNL d   1      25.697 -13.216  -4.164  0.00  0.00     0.100 C 
ENDROOT
BRANCH   2   4
ATOM      4  N   UNL d   1      27.044 -11.205  -4.441  0.00  0.00    -0.302 N 
ATOM      5  H   UNL d   1      28.024 -10.909  -4.509  0.00  0.00     0.186 HD
BRANCH   4   6
ATOM      6  N   UNL d   1      26.121 -10.363  -5.075  0.00  0.00    -0.266 N 
ATOM      7  C   UNL d   1      26.534  -9.208  -5.722  0.00  0.00     0.272 C 
ATOM      8  O   UNL d   1      27.712  -8.902  -5.926  0.00  0.00    -0.266 OA
ATOM      9  H   UNL d   1      25.147 -10.447  -4.811  0.00  0.00     0.190 HD
BRANCH   7  10
ATOM     10  C   UNL d   1      25.436  -8.306  -6.206  0.00  0.00     0.067 A 
ATOM     11  C   UNL d   1      25.605  -7.609  -7.413  0.00  0.00     0.020 A 
ATOM     12  C   UNL d   1      24.661  -6.664  -7.828  0.00  0.00     0.002 A 
ATOM     13  C   UNL d   1      23.518  -6.434  -7.063  0.00  0.00     0.009 A 
ATOM     14  C   UNL d   1      23.319  -7.126  -5.858  0.00  0.00    -0.028 A 
ATOM     15  C   UNL d   1      22.121  -6.784  -5.019  0.00  0.00     0.051 C 
ATOM     16  C   UNL d   1      24.276  -8.074  -5.448  0.00  0.00     0.087 A 
BRANCH  16  17
ATOM     17  O   UNL d   1      24.096  -8.795  -4.294  0.00  0.00    -0.359 OA
ATOM     18  H   UNL d   1      24.405  -8.280  -3.531  0.00  0.00     0.217 HD
ENDBRANCH  16  17
ENDBRANCH   7  10
ENDBRANCH   4   6
ENDBRANCH   2   4
BRANCH   3  19
ATOM     19  C   UNL d   1      25.365 -14.531  -3.537  0.00  0.00     0.247 C 
ATOM     20  O   UNL d   1      25.155 -15.542  -4.208  0.00  0.00    -0.268 OA
ATOM     21  N   UNL d   1      25.234 -14.555  -2.162  0.00  0.00    -0.324 N 
ATOM     22  H   UNL d   1      25.149 -13.693  -1.638  0.00  0.00     0.169 HD
BRANCH  21  23
ATOM     23  C   UNL d   1      24.968 -15.781  -1.496  0.00  0.00     0.037 A 
ATOM     24  C   UNL d   1      25.995 -16.488  -0.870  0.00  0.00     0.029 A 
ATOM     25  C   UNL d   1      25.726 -17.719  -0.252  0.00  0.00     0.005 A 
ATOM     26  C   UNL d   1      24.427 -18.235  -0.228  0.00  0.00     0.036 A 
ATOM     27  C   UNL d   1      23.399 -17.525  -0.854  0.00  0.00     0.105 A 
ATOM     28  C   UNL d   1      23.666 -16.306  -1.479  0.00  0.00     0.065 A 
BRANCH  27  29
ATOM     29  N   UNL d   1      22.045 -18.088  -0.922  0.00  0.00    -0.116 N 
ATOM     30  O   UNL d   1      21.092 -17.297  -0.902  0.00  0.00    -0.532 OA
ATOM     31  O   UNL d   1      21.930 -19.322  -0.963  0.00  0.00    -0.532 OA
ENDBRANCH  27  29
ENDBRANCH  21  23
ENDBRANCH   3  19
TORSDOF 7
ENDMDL
MODEL 7
REMARK VINA RESULT:    -6.936      5.150      7.692
REMARK INTER + INTRA:         -10.247
REMARK INTER:                  -9.024
REMARK INTRA:                  -1.224
REMARK CONF_INDEPENDENT:        2.088
REMARK UNBOUND:                -1.224
REMARK  7 active torsions:
REMARK  status: ('A' for Active; 'I' for Inactive)
REMARK    1  A    between atoms: C_2  and  N_16 
REMARK    2  A    between atoms: C_3  and  C_4 
REMARK       I    between atoms: C_4  and  N_6 
REMARK    3  A    between atoms: N_6  and  C_7 
REMARK    4  A    between atoms: C_11  and  N_12 
REMARK    5  A    between atoms: N_16  and  N_17 
REMARK       I    between atoms: N_17  and  C_18 
REMARK    6  A    between atoms: C_18  and  C_20 
REMARK    7  A    between atoms: C_26  and  O_27 
ROOT
ATOM      1  C   UNL d   1      24.514 -13.630  -4.268  0.00  0.00     0.070 C 
ATOM      2  C   UNL d   1      26.009 -13.407  -4.041  0.00  0.00     0.027 C 
ATOM      3  C   UNL d   1      26.674 -13.945  -2.986  0.00  0.00     0.100 C 
ENDROOT
BRANCH   2   4
ATOM      4  N   UNL d   1      26.613 -12.610  -5.022  0.00  0.00    -0.302 N 
ATOM      5  H   UNL d   1      26.254 -11.658  -5.163  0.00  0.00     0.186 HD
BRANCH   4   6
ATOM      6  N   UNL d   1      27.751 -12.935  -5.770  0.00  0.00    -0.266 N 
ATOM      7  C   UNL d   1      28.028 -14.249  -6.117  0.00  0.00     0.272 C 
ATOM      8  O   UNL d   1      27.258 -15.197  -5.942  0.00  0.00    -0.266 OA
ATOM      9  H   UNL d   1      28.504 -12.258  -5.803  0.00  0.00     0.190 HD
BRANCH   7  10
ATOM     10  C   UNL d   1      29.362 -14.483  -6.764  0.00  0.00     0.067 A 
ATOM     11  C   UNL d   1      30.029 -15.699  -6.538  0.00  0.00     0.020 A 
ATOM     12  C   UNL d   1      31.327 -15.898  -7.017  0.00  0.00     0.002 A 
ATOM     13  C   UNL d   1      31.959 -14.903  -7.762  0.00  0.00     0.009 A 
ATOM     14  C   UNL d   1      31.311 -13.683  -8.013  0.00  0.00    -0.028 A 
ATOM     15  C   UNL d   1      32.060 -12.604  -8.741  0.00  0.00     0.051 C 
ATOM     16  C   UNL d   1      30.004 -13.491  -7.525  0.00  0.00     0.087 A 
BRANCH  16  17
ATOM     17  O   UNL d   1      29.327 -12.326  -7.781  0.00  0.00    -0.359 OA
ATOM     18  H   UNL d   1      29.582 -11.646  -7.137  0.00  0.00     0.217 HD
ENDBRANCH  16  17
ENDBRANCH   7  10
ENDBRANCH   4   6
ENDBRANCH   2   4
BRANCH   3  19
ATOM     19  C   UNL d   1      26.063 -14.808  -1.929  0.00  0.00     0.247 C 
ATOM     20  O   UNL d   1      26.086 -14.497  -0.738  0.00  0.00    -0.268 OA
ATOM     21  N   UNL d   1      25.526 -16.014  -2.336  0.00  0.00    -0.324 N 
ATOM     22  H   UNL d   1      25.733 -16.384  -3.255  0.00  0.00     0.169 HD
BRANCH  21  23
ATOM     23  C   UNL d   1      24.886 -16.859  -1.392  0.00  0.00     0.037 A 
ATOM     24  C   UNL d   1      25.589 -17.365  -0.298  0.00  0.00     0.029 A 
ATOM     25  C   UNL d   1      24.956 -18.233   0.605  0.00  0.00     0.005 A 
ATOM     26  C   UNL d   1      23.611 -18.576   0.439  0.00  0.00     0.036 A 
ATOM     27  C   UNL d   1      22.907 -18.067  -0.656  0.00  0.00     0.105 A 
ATOM     28  C   UNL d   1      23.538 -17.212  -1.562  0.00  0.00     0.065 A 
BRANCH  27  29
ATOM     29  N   UNL d   1      21.521 -18.483  -0.904  0.00  0.00    -0.116 N 
ATOM     30  O   UNL d   1      20.660 -17.596  -0.976  0.00  0.00    -0.532 OA
ATOM     31  O   UNL d   1      21.286 -19.697  -0.995  0.00  0.00    -0.532 OA
ENDBRANCH  27  29
ENDBRANCH  21  23
ENDBRANCH   3  19
TORSDOF 7
ENDMDL
MODEL 8
REMARK VINA RESULT:    -6.745      4.943      6.941
REMARK INTER + INTRA:         -10.117
REMARK INTER:                  -8.833
REMARK INTRA:                  -1.285
REMARK CONF_INDEPENDENT:        2.088
REMARK UNBOUND:                -1.285
REMARK  7 active torsions:
REMARK  status: ('A' for Active; 'I' for Inactive)
REMARK    1  A    between atoms: C_2  and  N_16 
REMARK    2  A    between atoms: C_3  and  C_4 
REMARK       I    between atoms: C_4  and  N_6 
REMARK    3  A    between atoms: N_6  and  C_7 
REMARK    4  A    between atoms: C_11  and  N_12 
REMARK    5  A    between atoms: N_16  and  N_17 
REMARK       I    between atoms: N_17  and  C_18 
REMARK    6  A    between atoms: C_18  and  C_20 
REMARK    7  A    between atoms: C_26  and  O_27 
ROOT
ATOM      1  C   UNL d   1      28.588 -14.872  -4.648  0.00  0.00     0.070 C 
ATOM      2  C   UNL d   1      27.630 -13.684  -4.572  0.00  0.00     0.027 C 
ATOM      3  C   UNL d   1      26.397 -13.777  -4.008  0.00  0.00     0.100 C 
ENDROOT
BRANCH   2   4
ATOM      4  N   UNL d   1      28.149 -12.507  -5.127  0.00  0.00    -0.302 N 
ATOM      5  H   UNL d   1      29.004 -12.573  -5.691  0.00  0.00     0.186 HD
BRANCH   4   6
ATOM      6  N   UNL d   1      27.555 -11.240  -5.090  0.00  0.00    -0.266 N 
ATOM      7  C   UNL d   1      27.102 -10.696  -3.897  0.00  0.00     0.272 C 
ATOM      8  O   UNL d   1      27.307 -11.184  -2.782  0.00  0.00    -0.266 OA
ATOM      9  H   UNL d   1      27.201 -10.859  -5.959  0.00  0.00     0.190 HD
BRANCH   7  10
ATOM     10  C   UNL d   1      26.329  -9.414  -4.019  0.00  0.00     0.067 A 
ATOM     11  C   UNL d   1      26.546  -8.394  -3.078  0.00  0.00     0.020 A 
ATOM     12  C   UNL d   1      25.753  -7.241  -3.084  0.00  0.00     0.002 A 
ATOM     13  C   UNL d   1      24.764  -7.077  -4.054  0.00  0.00     0.009 A 
ATOM     14  C   UNL d   1      24.535  -8.077  -5.012  0.00  0.00    -0.028 A 
ATOM     15  C   UNL d   1      23.401  -7.902  -5.982  0.00  0.00     0.051 C 
ATOM     16  C   UNL d   1      25.337  -9.235  -4.997  0.00  0.00     0.087 A 
BRANCH  16  17
ATOM     17  O   UNL d   1      25.166 -10.216  -5.941  0.00  0.00    -0.359 OA
ATOM     18  H   UNL d   1      25.156 -11.087  -5.513  0.00  0.00     0.217 HD
ENDBRANCH  16  17
ENDBRANCH   7  10
ENDBRANCH   4   6
ENDBRANCH   2   4
BRANCH   3  19
ATOM     19  C   UNL d   1      25.818 -15.013  -3.398  0.00  0.00     0.247 C 
ATOM     20  O   UNL d   1      25.450 -15.968  -4.082  0.00  0.00    -0.268 OA
ATOM     21  N   UNL d   1      25.646 -15.014  -2.027  0.00  0.00    -0.324 N 
ATOM     22  H   UNL d   1      25.702 -14.152  -1.501  0.00  0.00     0.169 HD
BRANCH  21  23
ATOM     23  C   UNL d   1      25.146 -16.174  -1.377  0.00  0.00     0.037 A 
ATOM     24  C   UNL d   1      25.986 -16.972  -0.599  0.00  0.00     0.029 A 
ATOM     25  C   UNL d   1      25.490 -18.137   0.003  0.00  0.00     0.005 A 
ATOM     26  C   UNL d   1      24.147 -18.496  -0.140  0.00  0.00     0.036 A 
ATOM     27  C   UNL d   1      23.306 -17.696  -0.918  0.00  0.00     0.105 A 
ATOM     28  C   UNL d   1      23.799 -16.542  -1.528  0.00  0.00     0.065 A 
BRANCH  27  29
ATOM     29  N   UNL d   1      21.915 -18.099  -1.159  0.00  0.00    -0.116 N 
ATOM     30  O   UNL d   1      21.717 -19.223  -1.641  0.00  0.00    -0.532 OA
ATOM     31  O   UNL d   1      21.019 -17.282  -0.898  0.00  0.00    -0.532 OA
ENDBRANCH  27  29
ENDBRANCH  21  23
ENDBRANCH   3  19
TORSDOF 7
ENDMDL
MODEL 9
REMARK VINA RESULT:    -6.709      5.627      7.455
REMARK INTER + INTRA:         -10.076
REMARK INTER:                  -8.797
REMARK INTRA:                  -1.279
REMARK CONF_INDEPENDENT:        2.088
REMARK UNBOUND:                -1.279
REMARK  7 active torsions:
REMARK  status: ('A' for Active; 'I' for Inactive)
REMARK    1  A    between atoms: C_2  and  N_16 
REMARK    2  A    between atoms: C_3  and  C_4 
REMARK       I    between atoms: C_4  and  N_6 
REMARK    3  A    between atoms: N_6  and  C_7 
REMARK    4  A    between atoms: C_11  and  N_12 
REMARK    5  A    between atoms: N_16  and  N_17 
REMARK       I    between atoms: N_17  and  C_18 
REMARK    6  A    between atoms: C_18  and  C_20 
REMARK    7  A    between atoms: C_26  and  O_27 
ROOT
ATOM      1  C   UNL d   1      27.591 -12.893   1.943  0.00  0.00     0.070 C 
ATOM      2  C   UNL d   1      27.759 -14.391   2.201  0.00  0.00     0.027 C 
ATOM      3  C   UNL d   1      27.428 -15.331   1.278  0.00  0.00     0.100 C 
ENDROOT
BRANCH   2   4
ATOM      4  N   UNL d   1      28.291 -14.687   3.463  0.00  0.00    -0.302 N 
ATOM      5  H   UNL d   1      28.615 -15.645   3.641  0.00  0.00     0.186 HD
BRANCH   4   6
ATOM      6  N   UNL d   1      28.539 -13.773   4.495  0.00  0.00    -0.266 N 
ATOM      7  C   UNL d   1      28.476 -14.161   5.825  0.00  0.00     0.272 C 
ATOM      8  O   UNL d   1      28.353 -15.327   6.210  0.00  0.00    -0.266 OA
ATOM      9  H   UNL d   1      28.476 -12.786   4.276  0.00  0.00     0.190 HD
BRANCH   7  10
ATOM     10  C   UNL d   1      28.588 -13.052   6.831  0.00  0.00     0.067 A 
ATOM     11  C   UNL d   1      28.670 -11.725   6.379  0.00  0.00     0.020 A 
ATOM     12  C   UNL d   1      28.905 -10.680   7.279  0.00  0.00     0.002 A 
ATOM     13  C   UNL d   1      29.020 -10.944   8.643  0.00  0.00     0.009 A 
ATOM     14  C   UNL d   1      28.931 -12.260   9.123  0.00  0.00    -0.028 A 
ATOM     15  C   UNL d   1      29.150 -12.512  10.587  0.00  0.00     0.051 C 
ATOM     16  C   UNL d   1      28.695 -13.306   8.209  0.00  0.00     0.087 A 
BRANCH  16  17
ATOM     17  O   UNL d   1      28.566 -14.600   8.646  0.00  0.00    -0.359 OA
ATOM     18  H   UNL d   1      29.024 -15.201   8.037  0.00  0.00     0.217 HD
ENDBRANCH  16  17
ENDBRANCH   7  10
ENDBRANCH   4   6
ENDBRANCH   2   4
BRANCH   3  19
ATOM     19  C   UNL d   1      26.870 -15.048  -0.079  0.00  0.00     0.247 C 
ATOM     20  O   UNL d   1      25.946 -15.708  -0.557  0.00  0.00    -0.268 OA
ATOM     21  N   UNL d   1      27.483 -14.053  -0.815  0.00  0.00    -0.324 N 
ATOM     22  H   UNL d   1      28.388 -13.693  -0.539  0.00  0.00     0.169 HD
BRANCH  21  23
ATOM     23  C   UNL d   1      26.973 -13.699  -2.093  0.00  0.00     0.037 A 
ATOM     24  C   UNL d   1      26.270 -12.508  -2.274  0.00  0.00     0.029 A 
ATOM     25  C   UNL d   1      25.736 -12.191  -3.531  0.00  0.00     0.005 A 
ATOM     26  C   UNL d   1      25.927 -13.044  -4.622  0.00  0.00     0.036 A 
ATOM     27  C   UNL d   1      26.633 -14.236  -4.440  0.00  0.00     0.105 A 
ATOM     28  C   UNL d   1      27.156 -14.559  -3.187  0.00  0.00     0.065 A 
BRANCH  27  29
ATOM     29  N   UNL d   1      26.771 -15.192  -5.546  0.00  0.00    -0.116 N 
ATOM     30  O   UNL d   1      25.822 -15.958  -5.764  0.00  0.00    -0.532 OA
ATOM     31  O   UNL d   1      27.837 -15.200  -6.178  0.00  0.00    -0.532 OA
ENDBRANCH  27  29
ENDBRANCH  21  23
ENDBRANCH   3  19
TORSDOF 7
ENDMDL
