MODEL 1
REMARK VINA RESULT:    -6.873      0.000      0.000
REMARK INTER + INTRA:          -9.546
REMARK INTER:                  -8.662
REMARK INTRA:                  -0.883
REMARK CONF_INDEPENDENT:        1.790
REMARK UNBOUND:                -0.883
REMARK  6 active torsions:
REMARK  status: ('A' for Active; 'I' for Inactive)
REMARK    1  A    between atoms: C_9  and  O_10 
REMARK    2  A    between atoms: C_12  and  O_13 
REMARK    3  A    between atoms: C_16  and  C_17 
REMARK    4  A    between atoms: N_18  and  N_19 
REMARK       I    between atoms: N_19  and  C_20 
REMARK       I    between atoms: C_20  and  N_21 
REMARK    5  A    between atoms: C_23  and  O_24 
REMARK    6  A    between atoms: C_27  and  C_28 
ROOT
ATOM      1  C   UNL d   1      26.447  -9.734  -2.930  0.00  0.00     0.019 C 
ATOM      2  C   UNL d   1      26.785 -11.231  -3.362  0.00  0.00    -0.005 C 
ATOM      3  C   UNL d   1      25.529 -11.877  -2.819  0.00  0.00     0.013 C 
ATOM      4  C   UNL d   1      25.655 -13.338  -2.870  0.00  0.00     0.007 C 
ATOM      5  C   UNL d   1      26.956 -13.864  -2.167  0.00  0.00     0.009 C 
ATOM      6  C   UNL d   1      28.373 -13.022  -2.668  0.00  0.00     0.026 C 
ATOM      7  C   UNL d   1      29.639 -13.481  -1.909  0.00  0.00     0.011 C 
ATOM      8  C   UNL d   1      29.903 -14.927  -2.214  0.00  0.00     0.039 C 
ATOM      9  C   UNL d   1      28.736 -15.651  -1.768  0.00  0.00     0.073 C 
ATOM     10  C   UNL d   1      28.431 -15.283  -0.318  0.00  0.00     0.070 C 
ATOM     11  C   UNL d   1      29.414 -16.317   0.230  0.00  0.00     0.121 C 
ATOM     12  C   UNL d   1      28.016 -16.936   0.314  0.00  0.00     0.033 C 
ATOM     13  C   UNL d   1      27.343 -16.857  -1.624  0.00  0.00     0.021 C 
ATOM     14  C   UNL d   1      27.106 -15.485  -2.272  0.00  0.00     0.031 C 
ATOM     15  C   UNL d   1      28.167 -11.400  -2.772  0.00  0.00     0.070 C 
ATOM     16  C   UNL d   1      28.731 -10.267  -4.021  0.00  0.00     0.040 C 
ATOM     17  C   UNL d   1      28.673 -11.178  -5.165  0.00  0.00     0.013 C 
ATOM     18  C   UNL d   1      27.237 -11.776  -4.963  0.00  0.00     0.028 C 
ENDROOT
BRANCH  14  19
ATOM     19  C   UNL d   1      25.596 -16.298  -2.227  0.00  0.00     0.124 C 
ATOM     20  N   UNL d   1      24.846 -16.198  -1.216  0.00  0.00    -0.186 NA
BRANCH  20  21
ATOM     21  N   UNL d   1      23.488 -16.425  -1.271  0.00  0.00    -0.230 N 
ATOM     22  C   UNL d   1      22.860 -17.462  -0.644  0.00  0.00     0.334 C 
ATOM     23  N   UNL d   1      23.547 -18.291   0.176  0.00  0.00    -0.351 N 
ATOM     24  O   UNL d   1      21.636 -17.643  -0.817  0.00  0.00    -0.246 OA
ATOM     25  H   UNL d   1      24.530 -18.153   0.381  0.00  0.00     0.160 HD
ATOM     26  H   UNL d   1      23.064 -19.069   0.596  0.00  0.00     0.160 HD
ATOM     27  H   UNL d   1      22.918 -15.772  -1.761  0.00  0.00     0.194 HD
ENDBRANCH  20  21
ENDBRANCH  14  19
BRANCH   9  28
ATOM     28  O   UNL d   1      29.493 -17.146  -2.030  0.00  0.00    -0.389 OA
ATOM     29  H   UNL d   1      30.453 -17.251  -1.816  0.00  0.00     0.210 HD
ENDBRANCH   9  28
BRANCH  11  30
ATOM     30  O   UNL d   1      30.290 -15.575   0.986  0.00  0.00    -0.395 OA
ATOM     31  H   UNL d   1      30.288 -15.945   1.890  0.00  0.00     0.210 HD
ENDBRANCH  11  30
BRANCH  15  32
ATOM     32  O   UNL d   1      28.239 -10.964  -1.427  0.00  0.00    -0.389 OA
ATOM     33  H   UNL d   1      29.048 -11.369  -1.051  0.00  0.00     0.210 HD
ENDBRANCH  15  32
BRANCH  18  34
ATOM     34  C   UNL d   1      27.454 -13.291  -5.431  0.00  0.00    -0.045 C 
ATOM     35  C   UNL d   1      28.633 -13.847  -5.778  0.00  0.00     0.087 C 
ATOM     36  C   UNL d   1      28.482 -15.292  -5.851  0.00  0.00     0.283 C 
ATOM     37  O   UNL d   1      29.406 -16.094  -5.836  0.00  0.00    -0.260 OA
ATOM     38  O   UNL d   1      27.171 -15.575  -5.918  0.00  0.00    -0.314 OA
ATOM     39  C   UNL d   1      26.504 -14.450  -5.389  0.00  0.00     0.213 C 
ENDBRANCH  18  34
TORSDOF 6
ENDMDL
MODEL 2
REMARK VINA RESULT:    -6.567      2.874      6.025
REMARK INTER + INTRA:          -9.594
REMARK INTER:                  -8.356
REMARK INTRA:                  -1.238
REMARK CONF_INDEPENDENT:        1.790
REMARK UNBOUND:                -1.238
REMARK  6 active torsions:
REMARK  status: ('A' for Active; 'I' for Inactive)
REMARK    1  A    between atoms: C_9  and  O_10 
REMARK    2  A    between atoms: C_12  and  O_13 
REMARK    3  A    between atoms: C_16  and  C_17 
REMARK    4  A    between atoms: N_18  and  N_19 
REMARK       I    between atoms: N_19  and  C_20 
REMARK       I    between atoms: C_20  and  N_21 
REMARK    5  A    between atoms: C_23  and  O_24 
REMARK    6  A    between atoms: C_27  and  C_28 
ROOT
ATOM      1  C   UNL d   1      30.194 -12.740   1.402  0.00  0.00     0.019 C 
ATOM      2  C   UNL d   1      29.233 -13.661   0.525  0.00  0.00    -0.005 C 
ATOM      3  C   UNL d   1      30.280 -14.166  -0.443  0.00  0.00     0.013 C 
ATOM      4  C   UNL d   1      29.636 -14.887  -1.547  0.00  0.00     0.007 C 
ATOM      5  C   UNL d   1      28.516 -14.047  -2.254  0.00  0.00     0.009 C 
ATOM      6  C   UNL d   1      27.408 -13.338  -1.142  0.00  0.00     0.026 C 
ATOM      7  C   UNL d   1      26.360 -12.439  -1.835  0.00  0.00     0.011 C 
ATOM      8  C   UNL d   1      25.521 -13.276  -2.757  0.00  0.00     0.039 C 
ATOM      9  C   UNL d   1      26.433 -13.851  -3.719  0.00  0.00     0.073 C 
ATOM     10  C   UNL d   1      27.277 -12.743  -4.346  0.00  0.00     0.070 C 
ATOM     11  C   UNL d   1      26.210 -12.420  -5.391  0.00  0.00     0.121 C 
ATOM     12  C   UNL d   1      27.252 -13.311  -6.073  0.00  0.00     0.033 C 
ATOM     13  C   UNL d   1      27.281 -14.994  -4.897  0.00  0.00     0.021 C 
ATOM     14  C   UNL d   1      27.778 -14.878  -3.448  0.00  0.00     0.031 C 
ATOM     15  C   UNL d   1      28.132 -12.684   0.174  0.00  0.00     0.070 C 
ATOM     16  C   UNL d   1      27.653 -12.764   1.884  0.00  0.00     0.040 C 
ATOM     17  C   UNL d   1      27.031 -14.089   1.861  0.00  0.00     0.013 C 
ATOM     18  C   UNL d   1      28.150 -14.901   1.120  0.00  0.00     0.028 C 
ENDROOT
BRANCH  14  19
ATOM     19  C   UNL d   1      28.838 -15.948  -4.270  0.00  0.00     0.124 C 
ATOM     20  N   UNL d   1      29.523 -16.789  -3.625  0.00  0.00    -0.186 NA
BRANCH  20  21
ATOM     21  N   UNL d   1      30.028 -17.936  -4.198  0.00  0.00    -0.230 N 
ATOM     22  C   UNL d   1      30.576 -17.990  -5.446  0.00  0.00     0.334 C 
ATOM     23  N   UNL d   1      30.752 -16.862  -6.172  0.00  0.00    -0.351 N 
ATOM     24  O   UNL d   1      30.931 -19.090  -5.922  0.00  0.00    -0.246 OA
ATOM     25  H   UNL d   1      30.522 -15.945  -5.807  0.00  0.00     0.160 HD
ATOM     26  H   UNL d   1      31.126 -16.937  -7.105  0.00  0.00     0.160 HD
ATOM     27  H   UNL d   1      30.035 -18.772  -3.656  0.00  0.00     0.194 HD
ENDBRANCH  20  21
ENDBRANCH  14  19
BRANCH   9  28
ATOM     28  O   UNL d   1      25.155 -14.456  -4.655  0.00  0.00    -0.389 OA
ATOM     29  H   UNL d   1      24.463 -13.835  -4.995  0.00  0.00     0.210 HD
ENDBRANCH   9  28
BRANCH  11  30
ATOM     30  O   UNL d   1      25.931 -11.091  -5.180  0.00  0.00    -0.395 OA
ATOM     31  H   UNL d   1      24.968 -11.009  -5.039  0.00  0.00     0.210 HD
ENDBRANCH  11  30
BRANCH  15  32
ATOM     32  O   UNL d   1      28.635 -11.447  -0.297  0.00  0.00    -0.389 OA
ATOM     33  H   UNL d   1      29.481 -11.650  -0.747  0.00  0.00     0.210 HD
ENDBRANCH  15  32
BRANCH  18  34
ATOM     34  C   UNL d   1      27.279 -15.913   0.239  0.00  0.00    -0.045 C 
ATOM     35  C   UNL d   1      26.000 -15.724  -0.145  0.00  0.00     0.087 C 
ATOM     36  C   UNL d   1      25.653 -16.698  -1.167  0.00  0.00     0.283 C 
ATOM     37  O   UNL d   1      24.699 -16.607  -1.927  0.00  0.00    -0.260 OA
ATOM     38  O   UNL d   1      26.564 -17.684  -1.134  0.00  0.00    -0.314 OA
ATOM     39  C   UNL d   1      27.707 -17.135  -0.516  0.00  0.00     0.213 C 
ENDBRANCH  18  34
TORSDOF 6
ENDMDL
MODEL 3
REMARK VINA RESULT:    -6.454      2.570      5.097
REMARK INTER + INTRA:         -10.165
REMARK INTER:                  -8.244
REMARK INTRA:                  -1.921
REMARK CONF_INDEPENDENT:        1.790
REMARK UNBOUND:                -1.921
REMARK  6 active torsions:
REMARK  status: ('A' for Active; 'I' for Inactive)
REMARK    1  A    between atoms: C_9  and  O_10 
REMARK    2  A    between atoms: C_12  and  O_13 
REMARK    3  A    between atoms: C_16  and  C_17 
REMARK    4  A    between atoms: N_18  and  N_19 
REMARK       I    between atoms: N_19  and  C_20 
REMARK       I    between atoms: C_20  and  N_21 
REMARK    5  A    between atoms: C_23  and  O_24 
REMARK    6  A    between atoms: C_27  and  C_28 
ROOT
ATOM      1  C   UNL d   1      30.012 -13.181   1.579  0.00  0.00     0.019 C 
ATOM      2  C   UNL d   1      29.373 -13.882   0.299  0.00  0.00    -0.005 C 
ATOM      3  C   UNL d   1      28.392 -12.785  -0.053  0.00  0.00     0.013 C 
ATOM      4  C   UNL d   1      27.470 -13.253  -1.095  0.00  0.00     0.007 C 
ATOM      5  C   UNL d   1      26.759 -14.601  -0.722  0.00  0.00     0.009 C 
ATOM      6  C   UNL d   1      27.860 -15.806  -0.170  0.00  0.00     0.026 C 
ATOM      7  C   UNL d   1      27.149 -17.102   0.280  0.00  0.00     0.011 C 
ATOM      8  C   UNL d   1      26.441 -17.713  -0.895  0.00  0.00     0.039 C 
ATOM      9  C   UNL d   1      25.489 -16.726  -1.348  0.00  0.00     0.073 C 
ATOM     10  C   UNL d   1      24.631 -16.267  -0.171  0.00  0.00     0.070 C 
ATOM     11  C   UNL d   1      23.657 -17.435  -0.329  0.00  0.00     0.121 C 
ATOM     12  C   UNL d   1      23.014 -16.218  -1.001  0.00  0.00     0.033 C 
ATOM     13  C   UNL d   1      24.411 -15.649  -2.394  0.00  0.00     0.021 C 
ATOM     14  C   UNL d   1      25.774 -15.132  -1.909  0.00  0.00     0.031 C 
ATOM     15  C   UNL d   1      28.992 -15.232   0.864  0.00  0.00     0.070 C 
ATOM     16  C   UNL d   1      30.734 -15.580   0.939  0.00  0.00     0.040 C 
ATOM     17  C   UNL d   1      30.962 -15.798  -0.490  0.00  0.00     0.013 C 
ATOM     18  C   UNL d   1      30.241 -14.534  -1.075  0.00  0.00     0.028 C 
ENDROOT
BRANCH  14  19
ATOM     19  C   UNL d   1      25.017 -13.854  -2.768  0.00  0.00     0.124 C 
ATOM     20  N   UNL d   1      25.663 -12.810  -3.061  0.00  0.00    -0.186 NA
BRANCH  20  21
ATOM     21  N   UNL d   1      25.297 -11.972  -4.092  0.00  0.00    -0.230 N 
ATOM     22  C   UNL d   1      25.904 -11.952  -5.313  0.00  0.00     0.334 C 
ATOM     23  N   UNL d   1      26.863 -12.856  -5.623  0.00  0.00    -0.351 N 
ATOM     24  O   UNL d   1      25.565 -11.100  -6.162  0.00  0.00    -0.246 OA
ATOM     25  H   UNL d   1      27.135 -13.593  -4.983  0.00  0.00     0.160 HD
ATOM     26  H   UNL d   1      27.318 -12.794  -6.520  0.00  0.00     0.160 HD
ATOM     27  H   UNL d   1      24.514 -11.371  -3.958  0.00  0.00     0.194 HD
ENDBRANCH  20  21
ENDBRANCH  14  19
BRANCH   9  28
ATOM     28  O   UNL d   1      24.776 -17.825  -2.426  0.00  0.00    -0.389 OA
ATOM     29  H   UNL d   1      23.863 -17.653  -2.765  0.00  0.00     0.210 HD
ENDBRANCH   9  28
BRANCH  11  30
ATOM     30  O   UNL d   1      23.701 -18.070   0.888  0.00  0.00    -0.395 OA
ATOM     31  H   UNL d   1      23.169 -18.886   0.816  0.00  0.00     0.210 HD
ENDBRANCH  11  30
BRANCH  15  32
ATOM     32  O   UNL d   1      28.303 -15.129   2.096  0.00  0.00    -0.389 OA
ATOM     33  H   UNL d   1      28.945 -15.380   2.791  0.00  0.00     0.210 HD
ENDBRANCH  15  32
BRANCH  18  34
ATOM     34  C   UNL d   1      29.602 -15.124  -2.417  0.00  0.00    -0.045 C 
ATOM     35  C   UNL d   1      29.026 -14.403  -3.401  0.00  0.00     0.087 C 
ATOM     36  C   UNL d   1      28.840 -15.244  -4.572  0.00  0.00     0.283 C 
ATOM     37  O   UNL d   1      28.636 -14.832  -5.705  0.00  0.00    -0.260 OA
ATOM     38  O   UNL d   1      28.949 -16.527  -4.190  0.00  0.00    -0.314 OA
ATOM     39  C   UNL d   1      29.679 -16.511  -2.983  0.00  0.00     0.213 C 
ENDBRANCH  18  34
TORSDOF 6
ENDMDL
MODEL 4
REMARK VINA RESULT:    -6.398      2.865      4.752
REMARK INTER + INTRA:          -9.727
REMARK INTER:                  -8.188
REMARK INTRA:                  -1.540
REMARK CONF_INDEPENDENT:        1.790
REMARK UNBOUND:                -1.540
REMARK  6 active torsions:
REMARK  status: ('A' for Active; 'I' for Inactive)
REMARK    1  A    between atoms: C_9  and  O_10 
REMARK    2  A    between atoms: C_12  and  O_13 
REMARK    3  A    between atoms: C_16  and  C_17 
REMARK    4  A    between atoms: N_18  and  N_19 
REMARK       I    between atoms: N_19  and  C_20 
REMARK       I    between atoms: C_20  and  N_21 
REMARK    5  A    between atoms: C_23  and  O_24 
REMARK    6  A    between atoms: C_27  and  C_28 
ROOT
ATOM      1  C   UNL d   1      25.977 -12.530  -4.525  0.00  0.00     0.019 C 
ATOM      2  C   UNL d   1      26.300 -13.550  -3.343  0.00  0.00    -0.005 C 
ATOM      3  C   UNL d   1      26.484 -12.524  -2.247  0.00  0.00     0.013 C 
ATOM      4  C   UNL d   1      27.028 -13.167  -1.045  0.00  0.00     0.007 C 
ATOM      5  C   UNL d   1      28.335 -13.987  -1.330  0.00  0.00     0.009 C 
ATOM      6  C   UNL d   1      28.178 -15.047  -2.679  0.00  0.00     0.026 C 
ATOM      7  C   UNL d   1      29.493 -15.788  -3.011  0.00  0.00     0.011 C 
ATOM      8  C   UNL d   1      29.873 -16.666  -1.855  0.00  0.00     0.039 C 
ATOM      9  C   UNL d   1      30.042 -15.787  -0.721  0.00  0.00     0.073 C 
ATOM     10  C   UNL d   1      31.000 -14.656  -1.091  0.00  0.00     0.070 C 
ATOM     11  C   UNL d   1      32.235 -15.495  -0.761  0.00  0.00     0.121 C 
ATOM     12  C   UNL d   1      31.968 -14.591   0.446  0.00  0.00     0.033 C 
ATOM     13  C   UNL d   1      30.043 -15.064   0.979  0.00  0.00     0.021 C 
ATOM     14  C   UNL d   1      28.901 -14.734   0.006  0.00  0.00     0.031 C 
ATOM     15  C   UNL d   1      27.414 -14.367  -3.958  0.00  0.00     0.070 C 
ATOM     16  C   UNL d   1      26.179 -15.058  -5.035  0.00  0.00     0.040 C 
ATOM     17  C   UNL d   1      25.530 -15.939  -4.063  0.00  0.00     0.013 C 
ATOM     18  C   UNL d   1      25.339 -14.936  -2.872  0.00  0.00     0.028 C 
ENDROOT
BRANCH  14  19
ATOM     19  C   UNL d   1      28.627 -13.833   1.440  0.00  0.00     0.124 C 
ATOM     20  N   UNL d   1      27.462 -13.723   1.913  0.00  0.00    -0.186 NA
BRANCH  20  21
ATOM     21  N   UNL d   1      27.221 -13.425   3.237  0.00  0.00    -0.230 N 
ATOM     22  C   UNL d   1      27.690 -14.161   4.285  0.00  0.00     0.334 C 
ATOM     23  N   UNL d   1      28.532 -15.200   4.076  0.00  0.00    -0.351 N 
ATOM     24  O   UNL d   1      27.351 -13.867   5.451  0.00  0.00    -0.246 OA
ATOM     25  H   UNL d   1      28.870 -15.443   3.153  0.00  0.00     0.160 HD
ATOM     26  H   UNL d   1      28.833 -15.748   4.867  0.00  0.00     0.160 HD
ATOM     27  H   UNL d   1      26.708 -12.598   3.449  0.00  0.00     0.194 HD
ENDBRANCH  20  21
ENDBRANCH  14  19
BRANCH   9  28
ATOM     28  O   UNL d   1      30.675 -17.040   0.230  0.00  0.00    -0.389 OA
ATOM     29  H   UNL d   1      30.060 -17.619   0.745  0.00  0.00     0.210 HD
ENDBRANCH   9  28
BRANCH  11  30
ATOM     30  O   UNL d   1      32.951 -15.509  -1.934  0.00  0.00    -0.395 OA
ATOM     31  H   UNL d   1      32.796 -16.371  -2.364  0.00  0.00     0.210 HD
ENDBRANCH  11  30
BRANCH  15  32
ATOM     32  O   UNL d   1      28.411 -13.559  -4.557  0.00  0.00    -0.389 OA
ATOM     33  H   UNL d   1      28.012 -13.192  -5.372  0.00  0.00     0.210 HD
ENDBRANCH  15  32
BRANCH  18  34
ATOM     34  C   UNL d   1      25.589 -15.888  -1.611  0.00  0.00    -0.045 C 
ATOM     35  C   UNL d   1      26.230 -17.075  -1.634  0.00  0.00     0.087 C 
ATOM     36  C   UNL d   1      26.520 -17.493  -0.272  0.00  0.00     0.283 C 
ATOM     37  O   UNL d   1      27.341 -18.344   0.040  0.00  0.00    -0.260 OA
ATOM     38  O   UNL d   1      25.749 -16.775   0.562  0.00  0.00    -0.314 OA
ATOM     39  C   UNL d   1      25.384 -15.614  -0.151  0.00  0.00     0.213 C 
ENDBRANCH  18  34
TORSDOF 6
ENDMDL
MODEL 5
REMARK VINA RESULT:    -6.274      2.876      5.729
REMARK INTER + INTRA:          -9.663
REMARK INTER:                  -8.064
REMARK INTRA:                  -1.599
REMARK CONF_INDEPENDENT:        1.790
REMARK UNBOUND:                -1.599
REMARK  6 active torsions:
REMARK  status: ('A' for Active; 'I' for Inactive)
REMARK    1  A    between atoms: C_9  and  O_10 
REMARK    2  A    between atoms: C_12  and  O_13 
REMARK    3  A    between atoms: C_16  and  C_17 
REMARK    4  A    between atoms: N_18  and  N_19 
REMARK       I    between atoms: N_19  and  C_20 
REMARK       I    between atoms: C_20  and  N_21 
REMARK    5  A    between atoms: C_23  and  O_24 
REMARK    6  A    between atoms: C_27  and  C_28 
ROOT
ATOM      1  C   UNL d   1      29.413 -12.181   1.464  0.00  0.00     0.019 C 
ATOM      2  C   UNL d   1      28.788 -13.342   0.569  0.00  0.00    -0.005 C 
ATOM      3  C   UNL d   1      30.092 -13.955   0.109  0.00  0.00     0.013 C 
ATOM      4  C   UNL d   1      29.837 -14.944  -0.945  0.00  0.00     0.007 C 
ATOM      5  C   UNL d   1      28.991 -14.367  -2.133  0.00  0.00     0.009 C 
ATOM      6  C   UNL d   1      27.581 -13.530  -1.604  0.00  0.00     0.026 C 
ATOM      7  C   UNL d   1      26.797 -12.887  -2.769  0.00  0.00     0.011 C 
ATOM      8  C   UNL d   1      26.301 -13.965  -3.689  0.00  0.00     0.039 C 
ATOM      9  C   UNL d   1      27.476 -14.656  -4.168  0.00  0.00     0.073 C 
ATOM     10  C   UNL d   1      28.464 -13.642  -4.742  0.00  0.00     0.070 C 
ATOM     11  C   UNL d   1      27.779 -13.636  -6.108  0.00  0.00     0.121 C 
ATOM     12  C   UNL d   1      28.992 -14.564  -6.217  0.00  0.00     0.033 C 
ATOM     13  C   UNL d   1      28.664 -15.951  -4.739  0.00  0.00     0.021 C 
ATOM     14  C   UNL d   1      28.676 -15.490  -3.273  0.00  0.00     0.031 C 
ATOM     15  C   UNL d   1      27.845 -12.555  -0.315  0.00  0.00     0.070 C 
ATOM     16  C   UNL d   1      26.850 -12.308   1.138  0.00  0.00     0.040 C 
ATOM     17  C   UNL d   1      26.281 -13.653   1.228  0.00  0.00     0.013 C 
ATOM     18  C   UNL d   1      27.584 -14.510   1.070  0.00  0.00     0.028 C 
ENDROOT
BRANCH  14  19
ATOM     19  C   UNL d   1      29.952 -16.620  -3.465  0.00  0.00     0.124 C 
ATOM     20  N   UNL d   1      30.297 -17.363  -2.505  0.00  0.00    -0.186 NA
BRANCH  20  21
ATOM     21  N   UNL d   1      30.963 -18.556  -2.688  0.00  0.00    -0.230 N 
ATOM     22  C   UNL d   1      31.154 -19.484  -1.707  0.00  0.00     0.334 C 
ATOM     23  N   UNL d   1      30.591 -19.323  -0.486  0.00  0.00    -0.351 N 
ATOM     24  O   UNL d   1      31.844 -20.500  -1.938  0.00  0.00    -0.246 OA
ATOM     25  H   UNL d   1      29.986 -18.540  -0.271  0.00  0.00     0.160 HD
ATOM     26  H   UNL d   1      30.780 -20.008   0.230  0.00  0.00     0.160 HD
ATOM     27  H   UNL d   1      31.291 -18.780  -3.602  0.00  0.00     0.194 HD
ENDBRANCH  20  21
ENDBRANCH  14  19
BRANCH   9  28
ATOM     28  O   UNL d   1      26.565 -15.548  -5.287  0.00  0.00    -0.389 OA
ATOM     29  H   UNL d   1      25.775 -16.056  -4.977  0.00  0.00     0.210 HD
ENDBRANCH   9  28
BRANCH  11  30
ATOM     30  O   UNL d   1      27.434 -12.319  -6.300  0.00  0.00    -0.395 OA
ATOM     31  H   UNL d   1      26.556 -12.181  -5.898  0.00  0.00     0.210 HD
ENDBRANCH  11  30
BRANCH  15  32
ATOM     32  O   UNL d   1      28.459 -11.409  -0.877  0.00  0.00    -0.389 OA
ATOM     33  H   UNL d   1      29.392 -11.654  -1.046  0.00  0.00     0.210 HD
ENDBRANCH  15  32
BRANCH  18  34
ATOM     34  C   UNL d   1      27.046 -15.753   0.218  0.00  0.00    -0.045 C 
ATOM     35  C   UNL d   1      25.922 -15.772  -0.526  0.00  0.00     0.087 C 
ATOM     36  C   UNL d   1      25.924 -16.951  -1.377  0.00  0.00     0.283 C 
ATOM     37  O   UNL d   1      25.222 -17.103  -2.367  0.00  0.00    -0.260 OA
ATOM     38  O   UNL d   1      26.833 -17.815  -0.895  0.00  0.00    -0.314 OA
ATOM     39  C   UNL d   1      27.727 -17.046  -0.121  0.00  0.00     0.213 C 
ENDBRANCH  18  34
TORSDOF 6
ENDMDL
MODEL 6
REMARK VINA RESULT:    -6.226      2.617      5.482
REMARK INTER + INTRA:         -10.108
REMARK INTER:                  -8.015
REMARK INTRA:                  -2.093
REMARK CONF_INDEPENDENT:        1.790
REMARK UNBOUND:                -2.093
REMARK  6 active torsions:
REMARK  status: ('A' for Active; 'I' for Inactive)
REMARK    1  A    between atoms: C_9  and  O_10 
REMARK    2  A    between atoms: C_12  and  O_13 
REMARK    3  A    between atoms: C_16  and  C_17 
REMARK    4  A    between atoms: N_18  and  N_19 
REMARK       I    between atoms: N_19  and  C_20 
REMARK       I    between atoms: C_20  and  N_21 
REMARK    5  A    between atoms: C_23  and  O_24 
REMARK    6  A    between atoms: C_27  and  C_28 
ROOT
ATOM      1  C   UNL d   1      29.213 -15.204  -6.847  0.00  0.00     0.019 C 
ATOM      2  C   UNL d   1      29.050 -14.845  -5.303  0.00  0.00    -0.005 C 
ATOM      3  C   UNL d   1      29.733 -16.074  -4.745  0.00  0.00     0.013 C 
ATOM      4  C   UNL d   1      29.537 -16.141  -3.292  0.00  0.00     0.007 C 
ATOM      5  C   UNL d   1      28.027 -16.048  -2.875  0.00  0.00     0.009 C 
ATOM      6  C   UNL d   1      27.204 -14.738  -3.632  0.00  0.00     0.026 C 
ATOM      7  C   UNL d   1      25.698 -14.702  -3.289  0.00  0.00     0.011 C 
ATOM      8  C   UNL d   1      25.530 -14.481  -1.814  0.00  0.00     0.039 C 
ATOM      9  C   UNL d   1      26.187 -15.592  -1.164  0.00  0.00     0.073 C 
ATOM     10  C   UNL d   1      25.661 -16.904  -1.744  0.00  0.00     0.070 C 
ATOM     11  C   UNL d   1      24.459 -16.925  -0.801  0.00  0.00     0.121 C 
ATOM     12  C   UNL d   1      25.516 -17.857  -0.202  0.00  0.00     0.033 C 
ATOM     13  C   UNL d   1      27.158 -16.641   0.006  0.00  0.00     0.021 C 
ATOM     14  C   UNL d   1      27.828 -16.077  -1.256  0.00  0.00     0.031 C 
ATOM     15  C   UNL d   1      27.565 -14.570  -5.221  0.00  0.00     0.070 C 
ATOM     16  C   UNL d   1      27.888 -13.092  -6.156  0.00  0.00     0.040 C 
ATOM     17  C   UNL d   1      28.498 -12.302  -5.086  0.00  0.00     0.013 C 
ATOM     18  C   UNL d   1      29.523 -13.349  -4.526  0.00  0.00     0.028 C 
ENDROOT
BRANCH  14  19
ATOM     19  C   UNL d   1      28.984 -17.063  -0.460  0.00  0.00     0.124 C 
ATOM     20  N   UNL d   1      30.214 -16.789  -0.529  0.00  0.00    -0.186 NA
BRANCH  20  21
ATOM     21  N   UNL d   1      31.129 -17.228   0.403  0.00  0.00    -0.230 N 
ATOM     22  C   UNL d   1      31.965 -16.406   1.101  0.00  0.00     0.334 C 
ATOM     23  N   UNL d   1      31.864 -15.061   0.986  0.00  0.00    -0.351 N 
ATOM     24  O   UNL d   1      32.824 -16.896   1.865  0.00  0.00    -0.246 OA
ATOM     25  H   UNL d   1      31.153 -14.621   0.415  0.00  0.00     0.160 HD
ATOM     26  H   UNL d   1      32.519 -14.480   1.486  0.00  0.00     0.160 HD
ATOM     27  H   UNL d   1      31.158 -18.201   0.616  0.00  0.00     0.194 HD
ENDBRANCH  20  21
ENDBRANCH  14  19
BRANCH   9  28
ATOM     28  O   UNL d   1      25.584 -15.135   0.354  0.00  0.00    -0.389 OA
ATOM     29  H   UNL d   1      25.961 -14.341   0.809  0.00  0.00     0.210 HD
ENDBRANCH   9  28
BRANCH  11  30
ATOM     30  O   UNL d   1      23.375 -16.959  -1.645  0.00  0.00    -0.395 OA
ATOM     31  H   UNL d   1      23.205 -17.894  -1.870  0.00  0.00     0.210 HD
ENDBRANCH  11  30
BRANCH  15  32
ATOM     32  O   UNL d   1      26.793 -15.575  -5.851  0.00  0.00    -0.389 OA
ATOM     33  H   UNL d   1      25.858 -15.295  -5.766  0.00  0.00     0.210 HD
ENDBRANCH  15  32
BRANCH  18  34
ATOM     34  C   UNL d   1      29.479 -13.029  -2.959  0.00  0.00    -0.045 C 
ATOM     35  C   UNL d   1      28.476 -12.404  -2.309  0.00  0.00     0.087 C 
ATOM     36  C   UNL d   1      28.656 -12.563  -0.875  0.00  0.00     0.283 C 
ATOM     37  O   UNL d   1      27.784 -12.390  -0.036  0.00  0.00    -0.260 OA
ATOM     38  O   UNL d   1      29.924 -12.945  -0.650  0.00  0.00    -0.314 OA
ATOM     39  C   UNL d   1      30.379 -13.510  -1.860  0.00  0.00     0.213 C 
ENDBRANCH  18  34
TORSDOF 6
ENDMDL
MODEL 7
REMARK VINA RESULT:    -5.857      1.700      2.378
REMARK INTER + INTRA:          -9.700
REMARK INTER:                  -7.647
REMARK INTRA:                  -2.053
REMARK CONF_INDEPENDENT:        1.790
REMARK UNBOUND:                -2.053
REMARK  6 active torsions:
REMARK  status: ('A' for Active; 'I' for Inactive)
REMARK    1  A    between atoms: C_9  and  O_10 
REMARK    2  A    between atoms: C_12  and  O_13 
REMARK    3  A    between atoms: C_16  and  C_17 
REMARK    4  A    between atoms: N_18  and  N_19 
REMARK       I    between atoms: N_19  and  C_20 
REMARK       I    between atoms: C_20  and  N_21 
REMARK    5  A    between atoms: C_23  and  O_24 
REMARK    6  A    between atoms: C_27  and  C_28 
ROOT
ATOM      1  C   UNL d   1      27.523 -10.061  -0.630  0.00  0.00     0.019 C 
ATOM      2  C   UNL d   1      27.303 -11.417  -1.439  0.00  0.00    -0.005 C 
ATOM      3  C   UNL d   1      27.054 -12.315  -0.248  0.00  0.00     0.013 C 
ATOM      4  C   UNL d   1      27.039 -13.719  -0.673  0.00  0.00     0.007 C 
ATOM      5  C   UNL d   1      28.323 -14.127  -1.478  0.00  0.00     0.009 C 
ATOM      6  C   UNL d   1      28.701 -13.018  -2.741  0.00  0.00     0.026 C 
ATOM      7  C   UNL d   1      30.013 -13.374  -3.474  0.00  0.00     0.011 C 
ATOM      8  C   UNL d   1      29.861 -14.708  -4.145  0.00  0.00     0.039 C 
ATOM      9  C   UNL d   1      29.578 -15.657  -3.093  0.00  0.00     0.073 C 
ATOM     10  C   UNL d   1      30.636 -15.536  -1.999  0.00  0.00     0.070 C 
ATOM     11  C   UNL d   1      31.602 -16.470  -2.727  0.00  0.00     0.121 C 
ATOM     12  C   UNL d   1      30.893 -17.303  -1.656  0.00  0.00     0.033 C 
ATOM     13  C   UNL d   1      28.904 -17.071  -2.113  0.00  0.00     0.021 C 
ATOM     14  C   UNL d   1      28.271 -15.677  -1.984  0.00  0.00     0.031 C 
ATOM     15  C   UNL d   1      28.547 -11.448  -2.299  0.00  0.00     0.070 C 
ATOM     16  C   UNL d   1      27.840 -10.086  -3.197  0.00  0.00     0.040 C 
ATOM     17  C   UNL d   1      26.825 -10.834  -3.939  0.00  0.00     0.013 C 
ATOM     18  C   UNL d   1      26.194 -11.668  -2.770  0.00  0.00     0.028 C 
ENDROOT
BRANCH  14  19
ATOM     19  C   UNL d   1      27.462 -16.712  -0.880  0.00  0.00     0.124 C 
ATOM     20  N   UNL d   1      26.268 -16.478  -0.543  0.00  0.00    -0.186 NA
BRANCH  20  21
ATOM     21  N   UNL d   1      25.428 -17.453  -0.049  0.00  0.00    -0.230 N 
ATOM     22  C   UNL d   1      24.320 -17.909  -0.700  0.00  0.00     0.334 C 
ATOM     23  N   UNL d   1      24.033 -17.487  -1.953  0.00  0.00    -0.351 N 
ATOM     24  O   UNL d   1      23.566 -18.734  -0.140  0.00  0.00    -0.246 OA
ATOM     25  H   UNL d   1      24.641 -16.857  -2.462  0.00  0.00     0.160 HD
ATOM     26  H   UNL d   1      23.188 -17.814  -2.395  0.00  0.00     0.160 HD
ATOM     27  H   UNL d   1      25.664 -17.885   0.817  0.00  0.00     0.194 HD
ENDBRANCH  20  21
ENDBRANCH  14  19
BRANCH   9  28
ATOM     28  O   UNL d   1      29.729 -16.969  -4.157  0.00  0.00    -0.389 OA
ATOM     29  H   UNL d   1      29.472 -16.859  -5.106  0.00  0.00     0.210 HD
ENDBRANCH   9  28
BRANCH  11  30
ATOM     30  O   UNL d   1      32.735 -15.710  -2.898  0.00  0.00    -0.395 OA
ATOM     31  H   UNL d   1      33.209 -16.056  -3.678  0.00  0.00     0.210 HD
ENDBRANCH  11  30
BRANCH  15  32
ATOM     32  O   UNL d   1      29.725 -11.189  -1.558  0.00  0.00    -0.389 OA
ATOM     33  H   UNL d   1      30.068 -12.062  -1.276  0.00  0.00     0.210 HD
ENDBRANCH  15  32
BRANCH  18  34
ATOM     34  C   UNL d   1      25.878 -13.054  -3.503  0.00  0.00    -0.045 C 
ATOM     35  C   UNL d   1      26.364 -13.443  -4.699  0.00  0.00     0.087 C 
ATOM     36  C   UNL d   1      26.101 -14.861  -4.890  0.00  0.00     0.283 C 
ATOM     37  O   UNL d   1      26.667 -15.575  -5.705  0.00  0.00    -0.260 OA
ATOM     38  O   UNL d   1      25.155 -15.234  -4.013  0.00  0.00    -0.314 OA
ATOM     39  C   UNL d   1      25.187 -14.277  -2.977  0.00  0.00     0.213 C 
ENDBRANCH  18  34
TORSDOF 6
ENDMDL
MODEL 8
REMARK VINA RESULT:    -5.852      3.691      7.110
REMARK INTER + INTRA:          -9.724
REMARK INTER:                  -7.642
REMARK INTRA:                  -2.082
REMARK CONF_INDEPENDENT:        1.790
REMARK UNBOUND:                -2.082
REMARK  6 active torsions:
REMARK  status: ('A' for Active; 'I' for Inactive)
REMARK    1  A    between atoms: C_9  and  O_10 
REMARK    2  A    between atoms: C_12  and  O_13 
REMARK    3  A    between atoms: C_16  and  C_17 
REMARK    4  A    between atoms: N_18  and  N_19 
REMARK       I    between atoms: N_19  and  C_20 
REMARK       I    between atoms: C_20  and  N_21 
REMARK    5  A    between atoms: C_23  and  O_24 
REMARK    6  A    between atoms: C_27  and  C_28 
ROOT
ATOM      1  C   UNL d   1      25.612 -15.881  -3.424  0.00  0.00     0.019 C 
ATOM      2  C   UNL d   1      26.242 -14.429  -3.609  0.00  0.00    -0.005 C 
ATOM      3  C   UNL d   1      25.124 -13.838  -4.441  0.00  0.00     0.013 C 
ATOM      4  C   UNL d   1      25.533 -12.532  -4.973  0.00  0.00     0.007 C 
ATOM      5  C   UNL d   1      26.896 -12.588  -5.747  0.00  0.00     0.009 C 
ATOM      6  C   UNL d   1      28.133 -13.400  -4.865  0.00  0.00     0.026 C 
ATOM      7  C   UNL d   1      29.448 -13.531  -5.665  0.00  0.00     0.011 C 
ATOM      8  C   UNL d   1      29.994 -12.162  -5.950  0.00  0.00     0.039 C 
ATOM      9  C   UNL d   1      28.981 -11.478  -6.720  0.00  0.00     0.073 C 
ATOM     10  C   UNL d   1      28.582 -12.339  -7.916  0.00  0.00     0.070 C 
ATOM     11  C   UNL d   1      29.736 -11.817  -8.771  0.00  0.00     0.121 C 
ATOM     12  C   UNL d   1      28.483 -11.038  -9.183  0.00  0.00     0.033 C 
ATOM     13  C   UNL d   1      27.846 -10.199  -7.420  0.00  0.00     0.021 C 
ATOM     14  C   UNL d   1      27.360 -11.121  -6.292  0.00  0.00     0.031 C 
ATOM     15  C   UNL d   1      27.619 -14.772  -4.132  0.00  0.00     0.070 C 
ATOM     16  C   UNL d   1      27.976 -15.384  -2.502  0.00  0.00     0.040 C 
ATOM     17  C   UNL d   1      28.118 -14.094  -1.825  0.00  0.00     0.013 C 
ATOM     18  C   UNL d   1      26.822 -13.375  -2.337  0.00  0.00     0.028 C 
ENDROOT
BRANCH  14  19
ATOM     19  C   UNL d   1      26.035 -10.132  -6.752  0.00  0.00     0.124 C 
ATOM     20  N   UNL d   1      25.155  -9.811  -5.907  0.00  0.00    -0.186 NA
BRANCH  20  21
ATOM     21  N   UNL d   1      24.347  -8.704  -6.056  0.00  0.00    -0.230 N 
ATOM     22  C   UNL d   1      24.120  -7.784  -5.075  0.00  0.00     0.334 C 
ATOM     23  N   UNL d   1      24.780  -7.856  -3.896  0.00  0.00    -0.351 N 
ATOM     24  O   UNL d   1      23.305  -6.857  -5.269  0.00  0.00    -0.246 OA
ATOM     25  H   UNL d   1      25.483  -8.562  -3.714  0.00  0.00     0.160 HD
ATOM     26  H   UNL d   1      24.565  -7.183  -3.176  0.00  0.00     0.160 HD
ATOM     27  H   UNL d   1      23.934  -8.537  -6.948  0.00  0.00     0.194 HD
ENDBRANCH  20  21
ENDBRANCH  14  19
BRANCH   9  28
ATOM     28  O   UNL d   1      30.018 -10.173  -7.034  0.00  0.00    -0.389 OA
ATOM     29  H   UNL d   1      30.997 -10.309  -6.995  0.00  0.00     0.210 HD
ENDBRANCH   9  28
BRANCH  11  30
ATOM     30  O   UNL d   1      30.436 -12.950  -9.112  0.00  0.00    -0.395 OA
ATOM     31  H   UNL d   1      30.022 -13.324  -9.913  0.00  0.00     0.210 HD
ENDBRANCH  11  30
BRANCH  15  32
ATOM     32  O   UNL d   1      27.579 -15.721  -5.182  0.00  0.00    -0.389 OA
ATOM     33  H   UNL d   1      26.975 -15.354  -5.860  0.00  0.00     0.210 HD
ENDBRANCH  15  32
BRANCH  18  34
ATOM     34  C   UNL d   1      27.338 -11.870  -2.503  0.00  0.00    -0.045 C 
ATOM     35  C   UNL d   1      26.560 -10.787  -2.708  0.00  0.00     0.087 C 
ATOM     36  C   UNL d   1      27.348  -9.581  -2.509  0.00  0.00     0.283 C 
ATOM     37  O   UNL d   1      26.885  -8.465  -2.317  0.00  0.00    -0.260 OA
ATOM     38  O   UNL d   1      28.648  -9.916  -2.555  0.00  0.00    -0.314 OA
ATOM     39  C   UNL d   1      28.703 -11.296  -2.267  0.00  0.00     0.213 C 
ENDBRANCH  18  34
TORSDOF 6
ENDMDL
MODEL 9
REMARK VINA RESULT:    -5.630      2.859      5.801
REMARK INTER + INTRA:          -9.483
REMARK INTER:                  -7.420
REMARK INTRA:                  -2.063
REMARK CONF_INDEPENDENT:        1.790
REMARK UNBOUND:                -2.063
REMARK  6 active torsions:
REMARK  status: ('A' for Active; 'I' for Inactive)
REMARK    1  A    between atoms: C_9  and  O_10 
REMARK    2  A    between atoms: C_12  and  O_13 
REMARK    3  A    between atoms: C_16  and  C_17 
REMARK    4  A    between atoms: N_18  and  N_19 
REMARK       I    between atoms: N_19  and  C_20 
REMARK       I    between atoms: C_20  and  N_21 
REMARK    5  A    between atoms: C_23  and  O_24 
REMARK    6  A    between atoms: C_27  and  C_28 
ROOT
ATOM      1  C   UNL d   1      31.156 -16.035  -7.550  0.00  0.00     0.019 C 
ATOM      2  C   UNL d   1      30.846 -15.319  -6.161  0.00  0.00    -0.005 C 
ATOM      3  C   UNL d   1      30.759 -16.570  -5.314  0.00  0.00     0.013 C 
ATOM      4  C   UNL d   1      30.246 -16.237  -3.980  0.00  0.00     0.007 C 
ATOM      5  C   UNL d   1      28.892 -15.445  -4.026  0.00  0.00     0.009 C 
ATOM      6  C   UNL d   1      28.937 -14.107  -5.111  0.00  0.00     0.026 C 
ATOM      7  C   UNL d   1      27.577 -13.383  -5.221  0.00  0.00     0.011 C 
ATOM      8  C   UNL d   1      27.214 -12.802  -3.885  0.00  0.00     0.039 C 
ATOM      9  C   UNL d   1      27.139 -13.917  -2.970  0.00  0.00     0.073 C 
ATOM     10  C   UNL d   1      26.215 -14.988  -3.546  0.00  0.00     0.070 C 
ATOM     11  C   UNL d   1      24.962 -14.310  -2.992  0.00  0.00     0.121 C 
ATOM     12  C   UNL d   1      25.325 -15.442  -2.027  0.00  0.00     0.033 C 
ATOM     13  C   UNL d   1      27.252 -14.996  -1.474  0.00  0.00     0.021 C 
ATOM     14  C   UNL d   1      28.359 -15.042  -2.538  0.00  0.00     0.031 C 
ATOM     15  C   UNL d   1      29.668 -14.447  -6.537  0.00  0.00     0.070 C 
ATOM     16  C   UNL d   1      30.819 -13.471  -7.478  0.00  0.00     0.040 C 
ATOM     17  C   UNL d   1      31.475 -12.792  -6.359  0.00  0.00     0.013 C 
ATOM     18  C   UNL d   1      31.766 -14.021  -5.429  0.00  0.00     0.028 C 
ENDROOT
BRANCH  14  19
ATOM     19  C   UNL d   1      28.740 -16.220  -1.351  0.00  0.00     0.124 C 
ATOM     20  N   UNL d   1      29.905 -16.700  -1.278  0.00  0.00    -0.186 NA
BRANCH  20  21
ATOM     21  N   UNL d   1      30.403 -17.278  -0.130  0.00  0.00    -0.230 N 
ATOM     22  C   UNL d   1      31.478 -16.802   0.561  0.00  0.00     0.334 C 
ATOM     23  N   UNL d   1      32.070 -15.639   0.202  0.00  0.00    -0.351 N 
ATOM     24  O   UNL d   1      31.915 -17.438   1.545  0.00  0.00    -0.246 OA
ATOM     25  H   UNL d   1      31.720 -15.069  -0.558  0.00  0.00     0.160 HD
ATOM     26  H   UNL d   1      32.885 -15.332   0.710  0.00  0.00     0.160 HD
ATOM     27  H   UNL d   1      29.926 -18.067   0.247  0.00  0.00     0.194 HD
ENDBRANCH  20  21
ENDBRANCH  14  19
BRANCH   9  28
ATOM     28  O   UNL d   1      26.498 -12.940  -1.741  0.00  0.00    -0.389 OA
ATOM     29  H   UNL d   1      27.106 -12.532  -1.076  0.00  0.00     0.210 HD
ENDBRANCH   9  28
BRANCH  11  30
ATOM     30  O   UNL d   1      24.191 -14.076  -4.105  0.00  0.00    -0.395 OA
ATOM     31  H   UNL d   1      24.134 -13.109  -4.228  0.00  0.00     0.210 HD
ENDBRANCH  11  30
BRANCH  15  32
ATOM     32  O   UNL d   1      28.680 -15.155  -7.263  0.00  0.00    -0.389 OA
ATOM     33  H   UNL d   1      28.851 -14.970  -8.209  0.00  0.00     0.210 HD
ENDBRANCH  15  32
BRANCH  18  34
ATOM     34  C   UNL d   1      31.535 -13.385  -3.980  0.00  0.00    -0.045 C 
ATOM     35  C   UNL d   1      31.903 -13.941  -2.807  0.00  0.00     0.087 C 
ATOM     36  C   UNL d   1      31.801 -12.948  -1.749  0.00  0.00     0.283 C 
ATOM     37  O   UNL d   1      32.339 -13.033  -0.654  0.00  0.00    -0.260 OA
ATOM     38  O   UNL d   1      31.038 -11.936  -2.194  0.00  0.00    -0.314 OA
ATOM     39  C   UNL d   1      31.086 -12.005  -3.602  0.00  0.00     0.213 C 
ENDBRANCH  18  34
TORSDOF 6
ENDMDL
