MODEL 1
REMARK VINA RESULT:    -7.951      0.000      0.000
REMARK INTER + INTRA:          -9.526
REMARK INTER:                  -8.846
REMARK INTRA:                  -0.680
REMARK CONF_INDEPENDENT:        0.895
REMARK UNBOUND:                -0.680
REMARK  3 active torsions:
REMARK  status: ('A' for Active; 'I' for Inactive)
REMARK    1  A    between atoms: C_5  and  C_6 
REMARK       I    between atoms: C_6  and  N_8 
REMARK    2  A    between atoms: N_8  and  N_9 
REMARK    3  A    between atoms: N_9  and  C_10 
ROOT
ATOM      1  C   UNL d   1      22.777 -17.279  -0.746  0.00  0.00     0.270 C 
ATOM      2  O   UNL d   1      22.106 -16.255  -0.900  0.00  0.00    -0.266 OA
ATOM      3  N   UNL d   1      22.195 -18.542  -0.606  0.00  0.00    -0.265 N 
ATOM      4  H   UNL d   1      22.728 -19.399  -0.674  0.00  0.00     0.190 HD
ENDROOT
BRANCH   3   5
ATOM      5  N   UNL d   1      20.832 -18.673  -0.888  0.00  0.00    -0.298 N 
ATOM      6  H   UNL d   1      20.417 -18.007  -1.541  0.00  0.00     0.187 HD
BRANCH   5   7
ATOM      7  C   UNL d   1      20.016 -19.475  -0.072  0.00  0.00     0.048 A 
ATOM      8  C   UNL d   1      18.831 -20.074  -0.513  0.00  0.00     0.031 A 
ATOM      9  C   UNL d   1      18.029 -20.822   0.361  0.00  0.00     0.003 A 
ATOM     10  C   UNL d   1      18.377 -20.951   1.704  0.00  0.00     0.007 A 
ATOM     11  C   UNL d   1      19.541 -20.346   2.183  0.00  0.00    -0.060 A 
ATOM     12  C   UNL d   1      19.900 -20.448   3.638  0.00  0.00     0.048 C 
ATOM     13  C   UNL d   1      20.355 -19.625   1.286  0.00  0.00     0.037 A 
ENDBRANCH   5   7
ENDBRANCH   3   5
BRANCH   1  14
ATOM     14  C   UNL d   1      24.283 -17.185  -0.688  0.00  0.00     0.033 A 
ATOM     15  C   UNL d   1      25.005 -18.098   0.103  0.00  0.00     0.017 A 
ATOM     16  C   UNL d   1      26.410 -18.069   0.150  0.00  0.00     0.007 A 
ATOM     17  C   UNL d   1      27.124 -17.122  -0.590  0.00  0.00    -0.062 A 
ATOM     18  C   UNL d   1      28.626 -17.082  -0.579  0.00  0.00     0.048 C 
ATOM     19  C   UNL d   1      26.410 -16.201  -1.362  0.00  0.00     0.007 A 
ATOM     20  C   UNL d   1      25.009 -16.230  -1.410  0.00  0.00     0.017 A 
ENDBRANCH   1  14
TORSDOF 3
ENDMDL
MODEL 2
REMARK VINA RESULT:    -7.876      1.223      7.445
REMARK INTER + INTRA:          -9.268
REMARK INTER:                  -8.771
REMARK INTRA:                  -0.497
REMARK CONF_INDEPENDENT:        0.895
REMARK UNBOUND:                -0.497
REMARK  3 active torsions:
REMARK  status: ('A' for Active; 'I' for Inactive)
REMARK    1  A    between atoms: C_5  and  C_6 
REMARK       I    between atoms: C_6  and  N_8 
REMARK    2  A    between atoms: N_8  and  N_9 
REMARK    3  A    between atoms: N_9  and  C_10 
ROOT
ATOM      1  C   UNL d   1      21.960 -18.560  -0.585  0.00  0.00     0.270 C 
ATOM      2  O   UNL d   1      22.454 -18.888  -1.666  0.00  0.00    -0.266 OA
ATOM      3  N   UNL d   1      22.481 -17.522   0.193  0.00  0.00    -0.265 N 
ATOM      4  H   UNL d   1      21.979 -17.120   0.974  0.00  0.00     0.190 HD
ENDROOT
BRANCH   3   5
ATOM      5  N   UNL d   1      23.438 -16.683  -0.385  0.00  0.00    -0.298 N 
ATOM      6  H   UNL d   1      23.106 -15.949  -1.014  0.00  0.00     0.187 HD
BRANCH   5   7
ATOM      7  C   UNL d   1      24.797 -17.035  -0.355  0.00  0.00     0.048 A 
ATOM      8  C   UNL d   1      25.320 -18.035   0.474  0.00  0.00     0.031 A 
ATOM      9  C   UNL d   1      26.695 -18.308   0.500  0.00  0.00     0.003 A 
ATOM     10  C   UNL d   1      27.579 -17.558  -0.273  0.00  0.00     0.007 A 
ATOM     11  C   UNL d   1      27.094 -16.537  -1.093  0.00  0.00    -0.060 A 
ATOM     12  C   UNL d   1      28.047 -15.699  -1.897  0.00  0.00     0.048 C 
ATOM     13  C   UNL d   1      25.707 -16.295  -1.134  0.00  0.00     0.037 A 
ENDBRANCH   5   7
ENDBRANCH   3   5
BRANCH   1  14
ATOM     14  C   UNL d   1      20.758 -19.304  -0.054  0.00  0.00     0.033 A 
ATOM     15  C   UNL d   1      19.715 -19.654  -0.933  0.00  0.00     0.017 A 
ATOM     16  C   UNL d   1      18.599 -20.383  -0.485  0.00  0.00     0.007 A 
ATOM     17  C   UNL d   1      18.499 -20.775   0.853  0.00  0.00    -0.062 A 
ATOM     18  C   UNL d   1      17.331 -21.575   1.355  0.00  0.00     0.048 C 
ATOM     19  C   UNL d   1      19.523 -20.414   1.733  0.00  0.00     0.007 A 
ATOM     20  C   UNL d   1      20.636 -19.687   1.287  0.00  0.00     0.017 A 
ENDBRANCH   1  14
TORSDOF 3
ENDMDL
MODEL 3
REMARK VINA RESULT:    -7.499      1.282      7.167
REMARK INTER + INTRA:          -8.907
REMARK INTER:                  -8.394
REMARK INTRA:                  -0.514
REMARK CONF_INDEPENDENT:        0.895
REMARK UNBOUND:                -0.514
REMARK  3 active torsions:
REMARK  status: ('A' for Active; 'I' for Inactive)
REMARK    1  A    between atoms: C_5  and  C_6 
REMARK       I    between atoms: C_6  and  N_8 
REMARK    2  A    between atoms: N_8  and  N_9 
REMARK    3  A    between atoms: N_9  and  C_10 
ROOT
ATOM      1  C   UNL d   1      22.124 -18.261  -0.930  0.00  0.00     0.270 C 
ATOM      2  O   UNL d   1      22.769 -18.812  -1.826  0.00  0.00    -0.266 OA
ATOM      3  N   UNL d   1      22.431 -16.979  -0.465  0.00  0.00    -0.265 N 
ATOM      4  H   UNL d   1      21.803 -16.446   0.121  0.00  0.00     0.190 HD
ENDROOT
BRANCH   3   5
ATOM      5  N   UNL d   1      23.342 -16.214  -1.200  0.00  0.00    -0.298 N 
ATOM      6  H   UNL d   1      22.997 -15.742  -2.037  0.00  0.00     0.187 HD
BRANCH   5   7
ATOM      7  C   UNL d   1      24.721 -16.350  -0.976  0.00  0.00     0.048 A 
ATOM      8  C   UNL d   1      25.681 -15.470  -1.491  0.00  0.00     0.031 A 
ATOM      9  C   UNL d   1      27.050 -15.686  -1.278  0.00  0.00     0.003 A 
ATOM     10  C   UNL d   1      27.488 -16.807  -0.577  0.00  0.00     0.007 A 
ATOM     11  C   UNL d   1      26.559 -17.718  -0.069  0.00  0.00    -0.060 A 
ATOM     12  C   UNL d   1      27.027 -18.950   0.652  0.00  0.00     0.048 C 
ATOM     13  C   UNL d   1      25.185 -17.473  -0.263  0.00  0.00     0.037 A 
ENDBRANCH   5   7
ENDBRANCH   3   5
BRANCH   1  14
ATOM     14  C   UNL d   1      20.965 -18.986  -0.288  0.00  0.00     0.033 A 
ATOM     15  C   UNL d   1      19.860 -19.362  -1.074  0.00  0.00     0.017 A 
ATOM     16  C   UNL d   1      18.781 -20.075  -0.520  0.00  0.00     0.007 A 
ATOM     17  C   UNL d   1      18.783 -20.423   0.833  0.00  0.00    -0.062 A 
ATOM     18  C   UNL d   1      17.656 -21.205   1.447  0.00  0.00     0.048 C 
ATOM     19  C   UNL d   1      19.870 -20.035   1.622  0.00  0.00     0.007 A 
ATOM     20  C   UNL d   1      20.946 -19.325   1.071  0.00  0.00     0.017 A 
ENDBRANCH   1  14
TORSDOF 3
ENDMDL
MODEL 4
REMARK VINA RESULT:    -7.418      0.557      1.976
REMARK INTER + INTRA:          -8.958
REMARK INTER:                  -8.313
REMARK INTRA:                  -0.645
REMARK CONF_INDEPENDENT:        0.895
REMARK UNBOUND:                -0.645
REMARK  3 active torsions:
REMARK  status: ('A' for Active; 'I' for Inactive)
REMARK    1  A    between atoms: C_5  and  C_6 
REMARK       I    between atoms: C_6  and  N_8 
REMARK    2  A    between atoms: N_8  and  N_9 
REMARK    3  A    between atoms: N_9  and  C_10 
ROOT
ATOM      1  C   UNL d   1      23.199 -17.326  -0.598  0.00  0.00     0.270 C 
ATOM      2  O   UNL d   1      22.552 -16.312  -0.872  0.00  0.00    -0.266 OA
ATOM      3  N   UNL d   1      22.588 -18.548  -0.302  0.00  0.00    -0.265 N 
ATOM      4  H   UNL d   1      23.099 -19.419  -0.267  0.00  0.00     0.190 HD
ENDROOT
BRANCH   3   5
ATOM      5  N   UNL d   1      21.220 -18.678  -0.559  0.00  0.00    -0.298 N 
ATOM      6  H   UNL d   1      20.822 -18.106  -1.304  0.00  0.00     0.187 HD
BRANCH   5   7
ATOM      7  C   UNL d   1      20.385 -19.323   0.368  0.00  0.00     0.048 A 
ATOM      8  C   UNL d   1      20.642 -19.365   1.744  0.00  0.00     0.031 A 
ATOM      9  C   UNL d   1      19.800 -20.069   2.617  0.00  0.00     0.003 A 
ATOM     10  C   UNL d   1      18.706 -20.778   2.125  0.00  0.00     0.007 A 
ATOM     11  C   UNL d   1      18.435 -20.778   0.755  0.00  0.00    -0.060 A 
ATOM     12  C   UNL d   1      17.281 -21.574   0.215  0.00  0.00     0.048 C 
ATOM     13  C   UNL d   1      19.270 -20.040  -0.107  0.00  0.00     0.037 A 
ENDBRANCH   5   7
ENDBRANCH   3   5
BRANCH   1  14
ATOM     14  C   UNL d   1      24.707 -17.263  -0.558  0.00  0.00     0.033 A 
ATOM     15  C   UNL d   1      25.377 -16.231  -1.242  0.00  0.00     0.017 A 
ATOM     16  C   UNL d   1      26.778 -16.115  -1.194  0.00  0.00     0.007 A 
ATOM     17  C   UNL d   1      27.540 -17.032  -0.464  0.00  0.00    -0.062 A 
ATOM     18  C   UNL d   1      29.035 -16.919  -0.375  0.00  0.00     0.048 C 
ATOM     19  C   UNL d   1      26.880 -18.069   0.201  0.00  0.00     0.007 A 
ATOM     20  C   UNL d   1      25.484 -18.186   0.154  0.00  0.00     0.017 A 
ENDBRANCH   1  14
TORSDOF 3
ENDMDL
MODEL 5
REMARK VINA RESULT:    -7.178      1.560      7.305
REMARK INTER + INTRA:          -8.522
REMARK INTER:                  -8.073
REMARK INTRA:                  -0.449
REMARK CONF_INDEPENDENT:        0.895
REMARK UNBOUND:                -0.449
REMARK  3 active torsions:
REMARK  status: ('A' for Active; 'I' for Inactive)
REMARK    1  A    between atoms: C_5  and  C_6 
REMARK       I    between atoms: C_6  and  N_8 
REMARK    2  A    between atoms: N_8  and  N_9 
REMARK    3  A    between atoms: N_9  and  C_10 
ROOT
ATOM      1  C   UNL d   1      22.523 -18.192   0.172  0.00  0.00     0.270 C 
ATOM      2  O   UNL d   1      22.512 -16.958   0.172  0.00  0.00    -0.266 OA
ATOM      3  N   UNL d   1      23.701 -18.931   0.039  0.00  0.00    -0.265 N 
ATOM      4  H   UNL d   1      23.747 -19.923   0.230  0.00  0.00     0.190 HD
ENDROOT
BRANCH   3   5
ATOM      5  N   UNL d   1      24.919 -18.254   0.151  0.00  0.00    -0.298 N 
ATOM      6  H   UNL d   1      25.494 -18.445   0.972  0.00  0.00     0.187 HD
BRANCH   5   7
ATOM      7  C   UNL d   1      25.182 -17.137  -0.660  0.00  0.00     0.048 A 
ATOM      8  C   UNL d   1      24.820 -17.056  -2.009  0.00  0.00     0.031 A 
ATOM      9  C   UNL d   1      25.156 -15.936  -2.784  0.00  0.00     0.003 A 
ATOM     10  C   UNL d   1      25.895 -14.892  -2.232  0.00  0.00     0.007 A 
ATOM     11  C   UNL d   1      26.293 -14.950  -0.895  0.00  0.00    -0.060 A 
ATOM     12  C   UNL d   1      27.125 -13.846  -0.307  0.00  0.00     0.048 C 
ATOM     13  C   UNL d   1      25.921 -16.067  -0.120  0.00  0.00     0.037 A 
ENDBRANCH   5   7
ENDBRANCH   3   5
BRANCH   1  14
ATOM     14  C   UNL d   1      21.224 -18.951   0.302  0.00  0.00     0.033 A 
ATOM     15  C   UNL d   1      20.519 -19.325  -0.858  0.00  0.00     0.017 A 
ATOM     16  C   UNL d   1      19.328 -20.069  -0.778  0.00  0.00     0.007 A 
ATOM     17  C   UNL d   1      18.814 -20.452   0.464  0.00  0.00    -0.062 A 
ATOM     18  C   UNL d   1      17.557 -21.267   0.580  0.00  0.00     0.048 C 
ATOM     19  C   UNL d   1      19.500 -20.066   1.619  0.00  0.00     0.007 A 
ATOM     20  C   UNL d   1      20.688 -19.325   1.541  0.00  0.00     0.017 A 
ENDBRANCH   1  14
TORSDOF 3
ENDMDL
MODEL 6
REMARK VINA RESULT:    -7.138      1.746      2.673
REMARK INTER + INTRA:          -8.786
REMARK INTER:                  -8.033
REMARK INTRA:                  -0.754
REMARK CONF_INDEPENDENT:        0.895
REMARK UNBOUND:                -0.754
REMARK  3 active torsions:
REMARK  status: ('A' for Active; 'I' for Inactive)
REMARK    1  A    between atoms: C_5  and  C_6 
REMARK       I    between atoms: C_6  and  N_8 
REMARK    2  A    between atoms: N_8  and  N_9 
REMARK    3  A    between atoms: N_9  and  C_10 
ROOT
ATOM      1  C   UNL d   1      24.723 -17.642  -0.466  0.00  0.00     0.270 C 
ATOM      2  O   UNL d   1      25.412 -18.265   0.346  0.00  0.00    -0.266 OA
ATOM      3  N   UNL d   1      23.344 -17.841  -0.587  0.00  0.00    -0.265 N 
ATOM      4  H   UNL d   1      22.745 -17.210  -1.102  0.00  0.00     0.190 HD
ENDROOT
BRANCH   3   5
ATOM      5  N   UNL d   1      22.699 -18.589   0.401  0.00  0.00    -0.298 N 
ATOM      6  H   UNL d   1      23.261 -18.925   1.184  0.00  0.00     0.187 HD
BRANCH   5   7
ATOM      7  C   UNL d   1      21.419 -19.118   0.164  0.00  0.00     0.048 A 
ATOM      8  C   UNL d   1      20.820 -19.158  -1.100  0.00  0.00     0.031 A 
ATOM      9  C   UNL d   1      19.517 -19.651  -1.269  0.00  0.00     0.003 A 
ATOM     10  C   UNL d   1      18.775 -20.076  -0.169  0.00  0.00     0.007 A 
ATOM     11  C   UNL d   1      19.334 -20.028   1.110  0.00  0.00    -0.060 A 
ATOM     12  C   UNL d   1      18.524 -20.448   2.303  0.00  0.00     0.048 C 
ATOM     13  C   UNL d   1      20.655 -19.562   1.260  0.00  0.00     0.037 A 
ENDBRANCH   5   7
ENDBRANCH   3   5
BRANCH   1  14
ATOM     14  C   UNL d   1      25.374 -16.635  -1.384  0.00  0.00     0.033 A 
ATOM     15  C   UNL d   1      24.581 -15.661  -2.020  0.00  0.00     0.017 A 
ATOM     16  C   UNL d   1      25.157 -14.682  -2.849  0.00  0.00     0.007 A 
ATOM     17  C   UNL d   1      26.538 -14.657  -3.063  0.00  0.00    -0.062 A 
ATOM     18  C   UNL d   1      27.183 -13.608  -3.923  0.00  0.00     0.048 C 
ATOM     19  C   UNL d   1      27.327 -15.634  -2.449  0.00  0.00     0.007 A 
ATOM     20  C   UNL d   1      26.754 -16.611  -1.622  0.00  0.00     0.017 A 
ENDBRANCH   1  14
TORSDOF 3
ENDMDL
MODEL 7
REMARK VINA RESULT:    -6.570      2.372      7.846
REMARK INTER + INTRA:          -8.223
REMARK INTER:                  -7.465
REMARK INTRA:                  -0.758
REMARK CONF_INDEPENDENT:        0.895
REMARK UNBOUND:                -0.758
REMARK  3 active torsions:
REMARK  status: ('A' for Active; 'I' for Inactive)
REMARK    1  A    between atoms: C_5  and  C_6 
REMARK       I    between atoms: C_6  and  N_8 
REMARK    2  A    between atoms: N_8  and  N_9 
REMARK    3  A    between atoms: N_9  and  C_10 
ROOT
ATOM      1  C   UNL d   1      23.400 -18.011  -0.192  0.00  0.00     0.270 C 
ATOM      2  O   UNL d   1      24.256 -18.302   0.646  0.00  0.00    -0.266 OA
ATOM      3  N   UNL d   1      23.637 -17.090  -1.217  0.00  0.00    -0.265 N 
ATOM      4  H   UNL d   1      23.021 -16.989  -2.013  0.00  0.00     0.190 HD
ENDROOT
BRANCH   3   5
ATOM      5  N   UNL d   1      24.953 -16.674  -1.436  0.00  0.00    -0.298 N 
ATOM      6  H   UNL d   1      25.655 -16.941  -0.744  0.00  0.00     0.187 HD
BRANCH   5   7
ATOM      7  C   UNL d   1      25.231 -15.678  -2.386  0.00  0.00     0.048 A 
ATOM      8  C   UNL d   1      24.310 -14.696  -2.771  0.00  0.00     0.031 A 
ATOM      9  C   UNL d   1      24.624 -13.757  -3.763  0.00  0.00     0.003 A 
ATOM     10  C   UNL d   1      25.853 -13.806  -4.418  0.00  0.00     0.007 A 
ATOM     11  C   UNL d   1      26.786 -14.787  -4.076  0.00  0.00    -0.060 A 
ATOM     12  C   UNL d   1      28.096 -14.869  -4.807  0.00  0.00     0.048 C 
ATOM     13  C   UNL d   1      26.470 -15.704  -3.054  0.00  0.00     0.037 A 
ENDBRANCH   5   7
ENDBRANCH   3   5
BRANCH   1  14
ATOM     14  C   UNL d   1      22.032 -18.647  -0.117  0.00  0.00     0.033 A 
ATOM     15  C   UNL d   1      21.353 -18.974  -1.306  0.00  0.00     0.017 A 
ATOM     16  C   UNL d   1      20.097 -19.605  -1.277  0.00  0.00     0.007 A 
ATOM     17  C   UNL d   1      19.490 -19.920  -0.057  0.00  0.00    -0.062 A 
ATOM     18  C   UNL d   1      18.160 -20.615   0.005  0.00  0.00     0.048 C 
ATOM     19  C   UNL d   1      20.152 -19.579   1.126  0.00  0.00     0.007 A 
ATOM     20  C   UNL d   1      21.405 -18.950   1.098  0.00  0.00     0.017 A 
ENDBRANCH   1  14
TORSDOF 3
ENDMDL
MODEL 8
REMARK VINA RESULT:    -6.544      4.199      6.223
REMARK INTER + INTRA:          -7.936
REMARK INTER:                  -7.438
REMARK INTRA:                  -0.498
REMARK CONF_INDEPENDENT:        0.895
REMARK UNBOUND:                -0.498
REMARK  3 active torsions:
REMARK  status: ('A' for Active; 'I' for Inactive)
REMARK    1  A    between atoms: C_5  and  C_6 
REMARK       I    between atoms: C_6  and  N_8 
REMARK    2  A    between atoms: N_8  and  N_9 
REMARK    3  A    between atoms: N_9  and  C_10 
ROOT
ATOM      1  C   UNL d   1      26.232 -14.896  -4.217  0.00  0.00     0.270 C 
ATOM      2  O   UNL d   1      25.168 -14.722  -4.816  0.00  0.00    -0.266 OA
ATOM      3  N   UNL d   1      26.303 -14.981  -2.824  0.00  0.00    -0.265 N 
ATOM      4  H   UNL d   1      27.126 -15.313  -2.338  0.00  0.00     0.190 HD
ENDROOT
BRANCH   3   5
ATOM      5  N   UNL d   1      25.108 -15.111  -2.111  0.00  0.00    -0.298 N 
ATOM      6  H   UNL d   1      24.517 -14.283  -2.021  0.00  0.00     0.187 HD
BRANCH   5   7
ATOM      7  C   UNL d   1      24.890 -16.234  -1.296  0.00  0.00     0.048 A 
ATOM      8  C   UNL d   1      25.905 -16.882  -0.582  0.00  0.00     0.031 A 
ATOM      9  C   UNL d   1      25.637 -18.031   0.176  0.00  0.00     0.003 A 
ATOM     10  C   UNL d   1      24.356 -18.578   0.201  0.00  0.00     0.007 A 
ATOM     11  C   UNL d   1      23.325 -17.971  -0.518  0.00  0.00    -0.060 A 
ATOM     12  C   UNL d   1      21.952 -18.579  -0.526  0.00  0.00     0.048 C 
ATOM     13  C   UNL d   1      23.600 -16.798  -1.249  0.00  0.00     0.037 A 
ENDBRANCH   5   7
ENDBRANCH   3   5
BRANCH   1  14
ATOM     14  C   UNL d   1      27.520 -15.008  -4.997  0.00  0.00     0.033 A 
ATOM     15  C   UNL d   1      28.506 -15.923  -4.582  0.00  0.00     0.017 A 
ATOM     16  C   UNL d   1      29.700 -16.086  -5.307  0.00  0.00     0.007 A 
ATOM     17  C   UNL d   1      29.936 -15.334  -6.461  0.00  0.00    -0.062 A 
ATOM     18  C   UNL d   1      31.192 -15.503  -7.269  0.00  0.00     0.048 C 
ATOM     19  C   UNL d   1      28.969 -14.410  -6.867  0.00  0.00     0.007 A 
ATOM     20  C   UNL d   1      27.778 -14.247  -6.145  0.00  0.00     0.017 A 
ENDBRANCH   1  14
TORSDOF 3
ENDMDL
MODEL 9
REMARK VINA RESULT:    -6.359      3.895      7.705
REMARK INTER + INTRA:          -7.726
REMARK INTER:                  -7.253
REMARK INTRA:                  -0.473
REMARK CONF_INDEPENDENT:        0.895
REMARK UNBOUND:                -0.473
REMARK  3 active torsions:
REMARK  status: ('A' for Active; 'I' for Inactive)
REMARK    1  A    between atoms: C_5  and  C_6 
REMARK       I    between atoms: C_6  and  N_8 
REMARK    2  A    between atoms: N_8  and  N_9 
REMARK    3  A    between atoms: N_9  and  C_10 
ROOT
ATOM      1  C   UNL d   1      25.898 -16.426  -0.337  0.00  0.00     0.270 C 
ATOM      2  O   UNL d   1      26.176 -15.471  -1.067  0.00  0.00    -0.266 OA
ATOM      3  N   UNL d   1      26.767 -16.887   0.656  0.00  0.00    -0.265 N 
ATOM      4  H   UNL d   1      26.477 -17.532   1.379  0.00  0.00     0.190 HD
ENDROOT
BRANCH   3   5
ATOM      5  N   UNL d   1      27.871 -16.094   0.984  0.00  0.00    -0.298 N 
ATOM      6  H   UNL d   1      28.792 -16.535   0.971  0.00  0.00     0.187 HD
BRANCH   5   7
ATOM      7  C   UNL d   1      27.685 -14.849   1.607  0.00  0.00     0.048 A 
ATOM      8  C   UNL d   1      27.490 -13.653   0.907  0.00  0.00     0.031 A 
ATOM      9  C   UNL d   1      27.362 -12.431   1.582  0.00  0.00     0.003 A 
ATOM     10  C   UNL d   1      27.468 -12.376   2.970  0.00  0.00     0.007 A 
ATOM     11  C   UNL d   1      27.687 -13.547   3.699  0.00  0.00    -0.060 A 
ATOM     12  C   UNL d   1      27.841 -13.487   5.192  0.00  0.00     0.048 C 
ATOM     13  C   UNL d   1      27.780 -14.772   3.011  0.00  0.00     0.037 A 
ENDBRANCH   5   7
ENDBRANCH   3   5
BRANCH   1  14
ATOM     14  C   UNL d   1      24.584 -17.148  -0.516  0.00  0.00     0.033 A 
ATOM     15  C   UNL d   1      24.541 -18.550  -0.399  0.00  0.00     0.017 A 
ATOM     16  C   UNL d   1      23.329 -19.254  -0.517  0.00  0.00     0.007 A 
ATOM     17  C   UNL d   1      22.134 -18.570  -0.759  0.00  0.00    -0.062 A 
ATOM     18  C   UNL d   1      20.821 -19.293  -0.867  0.00  0.00     0.048 C 
ATOM     19  C   UNL d   1      22.175 -17.180  -0.895  0.00  0.00     0.007 A 
ATOM     20  C   UNL d   1      23.383 -16.477  -0.777  0.00  0.00     0.017 A 
ENDBRANCH   1  14
TORSDOF 3
ENDMDL
