MODEL 1
REMARK VINA RESULT:    -9.996      0.000      0.000
REMARK INTER + INTRA:         -12.969
REMARK INTER:                 -12.084
REMARK INTRA:                  -0.885
REMARK CONF_INDEPENDENT:        2.088
REMARK UNBOUND:                -0.885
REMARK  7 active torsions:
REMARK  status: ('A' for Active; 'I' for Inactive)
REMARK    1  A    between atoms: C_8  and  N_9 
REMARK       I    between atoms: N_9  and  C_10 
REMARK    2  A    between atoms: C_10  and  C_12 
REMARK    3  A    between atoms: C_12  and  N_13 
REMARK    4  A    between atoms: N_13  and  C_14 
REMARK    5  A    between atoms: C_17  and  C_18 
REMARK       I    between atoms: C_18  and  N_20 
REMARK    6  A    between atoms: N_20  and  C_21 
REMARK    7  A    between atoms: C_21  and  C_22 
ROOT
ATOM      1  C   UNL d   1      26.364 -17.103   0.050  0.00  0.00     0.028 A 
ATOM      2  C   UNL d   1      25.777 -18.358   0.254  0.00  0.00     0.030 A 
ATOM      3  C   UNL d   1      24.436 -18.583  -0.078  0.00  0.00     0.019 A 
ATOM      4  C   UNL d   1      23.650 -17.543  -0.594  0.00  0.00     0.032 A 
ATOM      5  C   UNL d   1      24.261 -16.313  -0.859  0.00  0.00     0.019 A 
ATOM      6  C   UNL d   1      25.602 -16.104  -0.537  0.00  0.00     0.030 A 
ENDROOT
BRANCH   1   7
ATOM      7  N   UNL d   1      27.644 -16.886   0.477  0.00  0.00    -0.381 N 
ATOM      8  H   UNL d   1      28.229 -17.727   0.591  0.00  0.00     0.160 HD
BRANCH   7   9
ATOM      9  C   UNL d   1      28.448 -15.662   0.265  0.00  0.00     0.223 C 
BRANCH   9  10
ATOM     10  C   UNL d   1      28.046 -14.713   1.389  0.00  0.00     0.239 C 
ATOM     11  N   UNL d   1      28.816 -14.611   2.539  0.00  0.00    -0.325 N 
ATOM     12  H   UNL d   1      29.636 -15.208   2.593  0.00  0.00     0.169 HD
ATOM     13  O   UNL d   1      26.997 -14.111   1.137  0.00  0.00    -0.271 OA
BRANCH  11  14
ATOM     14  C   UNL d   1      28.584 -13.765   3.692  0.00  0.00     0.042 A 
ATOM     15  C   UNL d   1      28.986 -14.246   4.961  0.00  0.00     0.053 A 
ATOM     16  C   UNL d   1      28.773 -13.485   6.132  0.00  0.00     0.036 A 
ATOM     17  C   UNL d   1      28.164 -12.239   6.080  0.00  0.00     0.024 A 
ATOM     18 CL   UNL d   1      29.266 -14.075   7.674  0.00  0.00    -0.084 Cl
ATOM     19  C   UNL d   1      27.780 -11.746   4.852  0.00  0.00     0.011 A 
ATOM     20  C   UNL d   1      27.984 -12.482   3.670  0.00  0.00    -0.035 A 
ATOM     21  C   UNL d   1      27.500 -11.762   2.455  0.00  0.00     0.050 C 
ENDBRANCH  11  14
ENDBRANCH   9  10
ENDBRANCH   7   9
ENDBRANCH   1   7
BRANCH   4  22
ATOM     22  C   UNL d   1      22.182 -17.776  -0.796  0.00  0.00     0.251 C 
ATOM     23  O   UNL d   1      21.416 -16.824  -0.905  0.00  0.00    -0.268 OA
ATOM     24  N   UNL d   1      21.749 -19.084  -0.883  0.00  0.00    -0.351 N 
ATOM     25  H   UNL d   1      22.403 -19.847  -0.869  0.00  0.00     0.163 HD
BRANCH  24  26
ATOM     26  C   UNL d   1      20.354 -19.409  -1.126  0.00  0.00     0.187 C 
BRANCH  26  27
ATOM     27  C   UNL d   1      19.733 -19.944   0.120  0.00  0.00     0.070 A 
ATOM     28  C   UNL d   1      19.944 -19.700   1.464  0.00  0.00     0.036 A 
ATOM     29  C   UNL d   1      18.976 -20.447   2.174  0.00  0.00     0.027 A 
ATOM     30  C   UNL d   1      18.236 -21.112   1.225  0.00  0.00     0.142 A 
ATOM     31  O   UNL d   1      18.691 -20.820  -0.024  0.00  0.00    -0.325 OA
ENDBRANCH  26  27
ENDBRANCH  24  26
ENDBRANCH   4  22
TORSDOF 7
ENDMDL
MODEL 2
REMARK VINA RESULT:    -9.427      1.580      2.273
REMARK INTER + INTRA:         -13.628
REMARK INTER:                 -11.515
REMARK INTRA:                  -2.114
REMARK CONF_INDEPENDENT:        2.088
REMARK UNBOUND:                -2.114
REMARK  7 active torsions:
REMARK  status: ('A' for Active; 'I' for Inactive)
REMARK    1  A    between atoms: C_8  and  N_9 
REMARK       I    between atoms: N_9  and  C_10 
REMARK    2  A    between atoms: C_10  and  C_12 
REMARK    3  A    between atoms: C_12  and  N_13 
REMARK    4  A    between atoms: N_13  and  C_14 
REMARK    5  A    between atoms: C_17  and  C_18 
REMARK       I    between atoms: C_18  and  N_20 
REMARK    6  A    between atoms: N_20  and  C_21 
REMARK    7  A    between atoms: C_21  and  C_22 
ROOT
ATOM      1  C   UNL d   1      26.183 -16.312  -0.385  0.00  0.00     0.028 A 
ATOM      2  C   UNL d   1      25.194 -15.790  -1.228  0.00  0.00     0.030 A 
ATOM      3  C   UNL d   1      24.016 -16.504  -1.478  0.00  0.00     0.019 A 
ATOM      4  C   UNL d   1      23.821 -17.770  -0.908  0.00  0.00     0.032 A 
ATOM      5  C   UNL d   1      24.782 -18.255  -0.015  0.00  0.00     0.019 A 
ATOM      6  C   UNL d   1      25.946 -17.529   0.237  0.00  0.00     0.030 A 
ENDROOT
BRANCH   1   7
ATOM      7  N   UNL d   1      27.364 -15.639  -0.241  0.00  0.00    -0.381 N 
ATOM      8  H   UNL d   1      27.423 -14.727  -0.718  0.00  0.00     0.160 HD
BRANCH   7   9
ATOM      9  C   UNL d   1      28.307 -15.747   0.894  0.00  0.00     0.223 C 
BRANCH   9  10
ATOM     10  C   UNL d   1      27.996 -14.558   1.795  0.00  0.00     0.239 C 
ATOM     11  N   UNL d   1      28.522 -14.484   3.077  0.00  0.00    -0.325 N 
ATOM     12  H   UNL d   1      29.099 -15.263   3.378  0.00  0.00     0.169 HD
ATOM     13  O   UNL d   1      27.244 -13.744   1.248  0.00  0.00    -0.271 OA
BRANCH  11  14
ATOM     14  C   UNL d   1      28.334 -13.432   4.056  0.00  0.00     0.042 A 
ATOM     15  C   UNL d   1      27.948 -12.152   3.591  0.00  0.00     0.053 A 
ATOM     16  C   UNL d   1      27.767 -11.074   4.486  0.00  0.00     0.036 A 
ATOM     17  C   UNL d   1      27.959 -11.231   5.850  0.00  0.00     0.024 A 
ATOM     18 CL   UNL d   1      27.295  -9.518   3.914  0.00  0.00    -0.084 Cl
ATOM     19  C   UNL d   1      28.320 -12.473   6.325  0.00  0.00     0.011 A 
ATOM     20  C   UNL d   1      28.503 -13.565   5.456  0.00  0.00    -0.035 A 
ATOM     21  C   UNL d   1      28.885 -14.814   6.178  0.00  0.00     0.050 C 
ENDBRANCH  11  14
ENDBRANCH   9  10
ENDBRANCH   7   9
ENDBRANCH   1   7
BRANCH   4  22
ATOM     22  C   UNL d   1      22.620 -18.570  -1.316  0.00  0.00     0.251 C 
ATOM     23  O   UNL d   1      22.683 -19.331  -2.277  0.00  0.00    -0.268 OA
ATOM     24  N   UNL d   1      21.475 -18.438  -0.556  0.00  0.00    -0.351 N 
ATOM     25  H   UNL d   1      21.468 -17.870   0.272  0.00  0.00     0.163 HD
BRANCH  24  26
ATOM     26  C   UNL d   1      20.278 -19.208  -0.844  0.00  0.00     0.187 C 
BRANCH  26  27
ATOM     27  C   UNL d   1      19.707 -19.753   0.421  0.00  0.00     0.070 A 
ATOM     28  C   UNL d   1      18.667 -20.622   0.693  0.00  0.00     0.036 A 
ATOM     29  C   UNL d   1      18.665 -20.834   2.091  0.00  0.00     0.027 A 
ATOM     30  C   UNL d   1      19.695 -20.075   2.593  0.00  0.00     0.142 A 
ATOM     31  O   UNL d   1      20.330 -19.410   1.590  0.00  0.00    -0.325 OA
ENDBRANCH  26  27
ENDBRANCH  24  26
ENDBRANCH   4  22
TORSDOF 7
ENDMDL
MODEL 3
REMARK VINA RESULT:    -9.359      1.218      1.377
REMARK INTER + INTRA:         -13.504
REMARK INTER:                 -11.448
REMARK INTRA:                  -2.056
REMARK CONF_INDEPENDENT:        2.088
REMARK UNBOUND:                -2.056
REMARK  7 active torsions:
REMARK  status: ('A' for Active; 'I' for Inactive)
REMARK    1  A    between atoms: C_8  and  N_9 
REMARK       I    between atoms: N_9  and  C_10 
REMARK    2  A    between atoms: C_10  and  C_12 
REMARK    3  A    between atoms: C_12  and  N_13 
REMARK    4  A    between atoms: N_13  and  C_14 
REMARK    5  A    between atoms: C_17  and  C_18 
REMARK       I    between atoms: C_18  and  N_20 
REMARK    6  A    between atoms: N_20  and  C_21 
REMARK    7  A    between atoms: C_21  and  C_22 
ROOT
ATOM      1  C   UNL d   1      26.029 -15.995  -0.203  0.00  0.00     0.028 A 
ATOM      2  C   UNL d   1      25.923 -17.308   0.272  0.00  0.00     0.030 A 
ATOM      3  C   UNL d   1      24.909 -18.157  -0.189  0.00  0.00     0.019 A 
ATOM      4  C   UNL d   1      23.964 -17.693  -1.116  0.00  0.00     0.032 A 
ATOM      5  C   UNL d   1      24.117 -16.404  -1.636  0.00  0.00     0.019 A 
ATOM      6  C   UNL d   1      25.139 -15.572  -1.179  0.00  0.00     0.030 A 
ENDROOT
BRANCH   1   7
ATOM      7  N   UNL d   1      26.965 -15.160   0.339  0.00  0.00    -0.381 N 
ATOM      8  H   UNL d   1      26.720 -14.159   0.354  0.00  0.00     0.160 HD
BRANCH   7   9
ATOM      9  C   UNL d   1      27.971 -15.513   1.365  0.00  0.00     0.223 C 
BRANCH   9  10
ATOM     10  C   UNL d   1      27.780 -14.499   2.487  0.00  0.00     0.239 C 
ATOM     11  N   UNL d   1      28.599 -14.519   3.607  0.00  0.00    -0.325 N 
ATOM     12  H   UNL d   1      29.307 -15.246   3.641  0.00  0.00     0.169 HD
ATOM     13  O   UNL d   1      26.841 -13.728   2.263  0.00  0.00    -0.271 OA
BRANCH  11  14
ATOM     14  C   UNL d   1      28.560 -13.633   4.754  0.00  0.00     0.042 A 
ATOM     15  C   UNL d   1      28.838 -14.183   6.028  0.00  0.00     0.053 A 
ATOM     16  C   UNL d   1      28.798 -13.385   7.192  0.00  0.00     0.036 A 
ATOM     17  C   UNL d   1      28.486 -12.035   7.129  0.00  0.00     0.024 A 
ATOM     18 CL   UNL d   1      29.140 -14.059   8.741  0.00  0.00    -0.084 Cl
ATOM     19  C   UNL d   1      28.227 -11.477   5.896  0.00  0.00     0.011 A 
ATOM     20  C   UNL d   1      28.264 -12.248   4.720  0.00  0.00    -0.035 A 
ATOM     21  C   UNL d   1      27.960 -11.447   3.498  0.00  0.00     0.050 C 
ENDBRANCH  11  14
ENDBRANCH   9  10
ENDBRANCH   7   9
ENDBRANCH   1   7
BRANCH   4  22
ATOM     22  C   UNL d   1      22.807 -18.577  -1.472  0.00  0.00     0.251 C 
ATOM     23  O   UNL d   1      22.906 -19.382  -2.393  0.00  0.00    -0.268 OA
ATOM     24  N   UNL d   1      21.661 -18.469  -0.710  0.00  0.00    -0.351 N 
ATOM     25  H   UNL d   1      21.628 -17.859   0.088  0.00  0.00     0.163 HD
BRANCH  24  26
ATOM     26  C   UNL d   1      20.505 -19.316  -0.948  0.00  0.00     0.187 C 
BRANCH  26  27
ATOM     27  C   UNL d   1      19.916 -19.748   0.352  0.00  0.00     0.070 A 
ATOM     28  C   UNL d   1      18.830 -20.537   0.683  0.00  0.00     0.036 A 
ATOM     29  C   UNL d   1      18.828 -20.662   2.091  0.00  0.00     0.027 A 
ATOM     30  C   UNL d   1      19.905 -19.936   2.540  0.00  0.00     0.142 A 
ATOM     31  O   UNL d   1      20.568 -19.372   1.494  0.00  0.00    -0.325 OA
ENDBRANCH  26  27
ENDBRANCH  24  26
ENDBRANCH   4  22
TORSDOF 7
ENDMDL
MODEL 4
REMARK VINA RESULT:    -8.953      4.519      6.065
REMARK INTER + INTRA:         -12.930
REMARK INTER:                 -11.041
REMARK INTRA:                  -1.889
REMARK CONF_INDEPENDENT:        2.088
REMARK UNBOUND:                -1.889
REMARK  7 active torsions:
REMARK  status: ('A' for Active; 'I' for Inactive)
REMARK    1  A    between atoms: C_8  and  N_9 
REMARK       I    between atoms: N_9  and  C_10 
REMARK    2  A    between atoms: C_10  and  C_12 
REMARK    3  A    between atoms: C_12  and  N_13 
REMARK    4  A    between atoms: N_13  and  C_14 
REMARK    5  A    between atoms: C_17  and  C_18 
REMARK       I    between atoms: C_18  and  N_20 
REMARK    6  A    between atoms: N_20  and  C_21 
REMARK    7  A    between atoms: C_21  and  C_22 
ROOT
ATOM      1  C   UNL d   1      26.651 -16.805   0.098  0.00  0.00     0.028 A 
ATOM      2  C   UNL d   1      25.787 -16.092  -0.742  0.00  0.00     0.030 A 
ATOM      3  C   UNL d   1      24.547 -16.625  -1.113  0.00  0.00     0.019 A 
ATOM      4  C   UNL d   1      24.163 -17.899  -0.670  0.00  0.00     0.032 A 
ATOM      5  C   UNL d   1      25.001 -18.575   0.223  0.00  0.00     0.019 A 
ATOM      6  C   UNL d   1      26.228 -18.028   0.597  0.00  0.00     0.030 A 
ENDROOT
BRANCH   1   7
ATOM      7  N   UNL d   1      27.895 -16.303   0.360  0.00  0.00    -0.381 N 
ATOM      8  H   UNL d   1      27.990 -15.771   1.238  0.00  0.00     0.160 HD
BRANCH   7   9
ATOM      9  C   UNL d   1      29.185 -16.854  -0.110  0.00  0.00     0.223 C 
BRANCH   9  10
ATOM     10  C   UNL d   1      29.180 -16.663  -1.623  0.00  0.00     0.239 C 
ATOM     11  N   UNL d   1      28.356 -15.717  -2.214  0.00  0.00    -0.325 N 
ATOM     12  H   UNL d   1      27.756 -15.183  -1.593  0.00  0.00     0.169 HD
ATOM     13  O   UNL d   1      29.955 -17.440  -2.192  0.00  0.00    -0.271 OA
BRANCH  11  14
ATOM     14  C   UNL d   1      28.230 -15.403  -3.624  0.00  0.00     0.042 A 
ATOM     15  C   UNL d   1      29.282 -15.791  -4.488  0.00  0.00     0.053 A 
ATOM     16  C   UNL d   1      29.238 -15.501  -5.869  0.00  0.00     0.036 A 
ATOM     17  C   UNL d   1      28.163 -14.826  -6.429  0.00  0.00     0.024 A 
ATOM     18 CL   UNL d   1      30.521 -15.978  -6.916  0.00  0.00    -0.084 Cl
ATOM     19  C   UNL d   1      27.121 -14.453  -5.607  0.00  0.00     0.011 A 
ATOM     20  C   UNL d   1      27.138 -14.733  -4.228  0.00  0.00    -0.035 A 
ATOM     21  C   UNL d   1      25.912 -14.249  -3.529  0.00  0.00     0.050 C 
ENDBRANCH  11  14
ENDBRANCH   9  10
ENDBRANCH   7   9
ENDBRANCH   1   7
BRANCH   4  22
ATOM     22  C   UNL d   1      22.899 -18.502  -1.207  0.00  0.00     0.251 C 
ATOM     23  O   UNL d   1      22.918 -19.144  -2.253  0.00  0.00    -0.268 OA
ATOM     24  N   UNL d   1      21.746 -18.332  -0.469  0.00  0.00    -0.351 N 
ATOM     25  H   UNL d   1      21.767 -17.871   0.424  0.00  0.00     0.163 HD
BRANCH  24  26
ATOM     26  C   UNL d   1      20.484 -18.920  -0.883  0.00  0.00     0.187 C 
BRANCH  26  27
ATOM     27  C   UNL d   1      19.821 -19.575   0.282  0.00  0.00     0.070 A 
ATOM     28  C   UNL d   1      18.775 -20.472   0.395  0.00  0.00     0.036 A 
ATOM     29  C   UNL d   1      18.663 -20.801   1.765  0.00  0.00     0.027 A 
ATOM     30  C   UNL d   1      19.638 -20.079   2.411  0.00  0.00     0.142 A 
ATOM     31  O   UNL d   1      20.342 -19.326   1.522  0.00  0.00    -0.325 OA
ENDBRANCH  26  27
ENDBRANCH  24  26
ENDBRANCH   4  22
TORSDOF 7
ENDMDL
MODEL 5
REMARK VINA RESULT:    -8.770      4.144      5.347
REMARK INTER + INTRA:         -12.637
REMARK INTER:                 -10.858
REMARK INTRA:                  -1.779
REMARK CONF_INDEPENDENT:        2.088
REMARK UNBOUND:                -1.779
REMARK  7 active torsions:
REMARK  status: ('A' for Active; 'I' for Inactive)
REMARK    1  A    between atoms: C_8  and  N_9 
REMARK       I    between atoms: N_9  and  C_10 
REMARK    2  A    between atoms: C_10  and  C_12 
REMARK    3  A    between atoms: C_12  and  N_13 
REMARK    4  A    between atoms: N_13  and  C_14 
REMARK    5  A    between atoms: C_17  and  C_18 
REMARK       I    between atoms: C_18  and  N_20 
REMARK    6  A    between atoms: N_20  and  C_21 
REMARK    7  A    between atoms: C_21  and  C_22 
ROOT
ATOM      1  C   UNL d   1      26.626 -16.725   0.195  0.00  0.00     0.028 A 
ATOM      2  C   UNL d   1      25.701 -15.982  -0.549  0.00  0.00     0.030 A 
ATOM      3  C   UNL d   1      24.473 -16.538  -0.925  0.00  0.00     0.019 A 
ATOM      4  C   UNL d   1      24.161 -17.862  -0.585  0.00  0.00     0.032 A 
ATOM      5  C   UNL d   1      25.060 -18.574   0.216  0.00  0.00     0.019 A 
ATOM      6  C   UNL d   1      26.275 -18.005   0.596  0.00  0.00     0.030 A 
ENDROOT
BRANCH   1   7
ATOM      7  N   UNL d   1      27.856 -16.191   0.460  0.00  0.00    -0.381 N 
ATOM      8  H   UNL d   1      28.174 -16.257   1.438  0.00  0.00     0.160 HD
BRANCH   7   9
ATOM      9  C   UNL d   1      28.979 -16.050  -0.493  0.00  0.00     0.223 C 
BRANCH   9  10
ATOM     10  C   UNL d   1      28.389 -15.358  -1.716  0.00  0.00     0.239 C 
ATOM     11  N   UNL d   1      27.626 -14.207  -1.579  0.00  0.00    -0.325 N 
ATOM     12  H   UNL d   1      27.473 -13.871  -0.634  0.00  0.00     0.169 HD
ATOM     13  O   UNL d   1      28.663 -15.951  -2.765  0.00  0.00    -0.271 OA
BRANCH  11  14
ATOM     14  C   UNL d   1      26.999 -13.425  -2.627  0.00  0.00     0.042 A 
ATOM     15  C   UNL d   1      27.173 -12.021  -2.603  0.00  0.00     0.053 A 
ATOM     16  C   UNL d   1      26.575 -11.194  -3.579  0.00  0.00     0.036 A 
ATOM     17  C   UNL d   1      25.796 -11.727  -4.595  0.00  0.00     0.024 A 
ATOM     18 CL   UNL d   1      26.793  -9.485  -3.547  0.00  0.00    -0.084 Cl
ATOM     19  C   UNL d   1      25.626 -13.094  -4.645  0.00  0.00     0.011 A 
ATOM     20  C   UNL d   1      26.215 -13.941  -3.688  0.00  0.00    -0.035 A 
ATOM     21  C   UNL d   1      25.909 -15.381  -3.931  0.00  0.00     0.050 C 
ENDBRANCH  11  14
ENDBRANCH   9  10
ENDBRANCH   7   9
ENDBRANCH   1   7
BRANCH   4  22
ATOM     22  C   UNL d   1      22.906 -18.474  -1.132  0.00  0.00     0.251 C 
ATOM     23  O   UNL d   1      22.930 -19.084  -2.196  0.00  0.00    -0.268 OA
ATOM     24  N   UNL d   1      21.754 -18.348  -0.382  0.00  0.00    -0.351 N 
ATOM     25  H   UNL d   1      21.772 -17.912   0.523  0.00  0.00     0.163 HD
BRANCH  24  26
ATOM     26  C   UNL d   1      20.501 -18.948  -0.805  0.00  0.00     0.187 C 
BRANCH  26  27
ATOM     27  C   UNL d   1      19.834 -19.605   0.355  0.00  0.00     0.070 A 
ATOM     28  C   UNL d   1      18.780 -20.494   0.463  0.00  0.00     0.036 A 
ATOM     29  C   UNL d   1      18.667 -20.832   1.831  0.00  0.00     0.027 A 
ATOM     30  C   UNL d   1      19.650 -20.125   2.481  0.00  0.00     0.142 A 
ATOM     31  O   UNL d   1      20.359 -19.372   1.596  0.00  0.00    -0.325 OA
ENDBRANCH  26  27
ENDBRANCH  24  26
ENDBRANCH   4  22
TORSDOF 7
ENDMDL
MODEL 6
REMARK VINA RESULT:    -8.757      4.303      6.374
REMARK INTER + INTRA:         -12.628
REMARK INTER:                 -10.845
REMARK INTRA:                  -1.782
REMARK CONF_INDEPENDENT:        2.088
REMARK UNBOUND:                -1.782
REMARK  7 active torsions:
REMARK  status: ('A' for Active; 'I' for Inactive)
REMARK    1  A    between atoms: C_8  and  N_9 
REMARK       I    between atoms: N_9  and  C_10 
REMARK    2  A    between atoms: C_10  and  C_12 
REMARK    3  A    between atoms: C_12  and  N_13 
REMARK    4  A    between atoms: N_13  and  C_14 
REMARK    5  A    between atoms: C_17  and  C_18 
REMARK       I    between atoms: C_18  and  N_20 
REMARK    6  A    between atoms: N_20  and  C_21 
REMARK    7  A    between atoms: C_21  and  C_22 
ROOT
ATOM      1  C   UNL d   1      26.575 -16.664   0.214  0.00  0.00     0.028 A 
ATOM      2  C   UNL d   1      25.601 -15.923  -0.466  0.00  0.00     0.030 A 
ATOM      3  C   UNL d   1      24.386 -16.509  -0.840  0.00  0.00     0.019 A 
ATOM      4  C   UNL d   1      24.137 -17.861  -0.562  0.00  0.00     0.032 A 
ATOM      5  C   UNL d   1      25.086 -18.575   0.177  0.00  0.00     0.019 A 
ATOM      6  C   UNL d   1      26.287 -17.977   0.556  0.00  0.00     0.030 A 
ENDROOT
BRANCH   1   7
ATOM      7  N   UNL d   1      27.789 -16.093   0.476  0.00  0.00    -0.381 N 
ATOM      8  H   UNL d   1      28.393 -16.604   1.137  0.00  0.00     0.160 HD
BRANCH   7   9
ATOM      9  C   UNL d   1      28.558 -15.206  -0.425  0.00  0.00     0.223 C 
BRANCH   9  10
ATOM     10  C   UNL d   1      28.939 -16.072  -1.620  0.00  0.00     0.239 C 
ATOM     11  N   UNL d   1      29.241 -15.495  -2.846  0.00  0.00    -0.325 N 
ATOM     12  H   UNL d   1      29.176 -14.484  -2.901  0.00  0.00     0.169 HD
ATOM     13  O   UNL d   1      28.919 -17.277  -1.347  0.00  0.00    -0.271 OA
BRANCH  11  14
ATOM     14  C   UNL d   1      29.624 -16.164  -4.074  0.00  0.00     0.042 A 
ATOM     15  C   UNL d   1      30.045 -17.512  -3.992  0.00  0.00     0.053 A 
ATOM     16  C   UNL d   1      30.453 -18.221  -5.144  0.00  0.00     0.036 A 
ATOM     17  C   UNL d   1      30.454 -17.622  -6.395  0.00  0.00     0.024 A 
ATOM     18 CL   UNL d   1      30.963 -19.864  -5.039  0.00  0.00    -0.084 Cl
ATOM     19  C   UNL d   1      30.032 -16.314  -6.498  0.00  0.00     0.011 A 
ATOM     20  C   UNL d   1      29.617 -15.586  -5.367  0.00  0.00    -0.035 A 
ATOM     21  C   UNL d   1      29.196 -14.195  -5.703  0.00  0.00     0.050 C 
ENDBRANCH  11  14
ENDBRANCH   9  10
ENDBRANCH   7   9
ENDBRANCH   1   7
BRANCH   4  22
ATOM     22  C   UNL d   1      22.893 -18.495  -1.109  0.00  0.00     0.251 C 
ATOM     23  O   UNL d   1      22.940 -19.155  -2.142  0.00  0.00    -0.268 OA
ATOM     24  N   UNL d   1      21.725 -18.332  -0.392  0.00  0.00    -0.351 N 
ATOM     25  H   UNL d   1      21.723 -17.854   0.492  0.00  0.00     0.163 HD
BRANCH  24  26
ATOM     26  C   UNL d   1      20.480 -18.949  -0.816  0.00  0.00     0.187 C 
BRANCH  26  27
ATOM     27  C   UNL d   1      19.813 -19.600   0.348  0.00  0.00     0.070 A 
ATOM     28  C   UNL d   1      18.777 -20.509   0.459  0.00  0.00     0.036 A 
ATOM     29  C   UNL d   1      18.655 -20.826   1.832  0.00  0.00     0.027 A 
ATOM     30  C   UNL d   1      19.614 -20.085   2.481  0.00  0.00     0.142 A 
ATOM     31  O   UNL d   1      20.317 -19.333   1.591  0.00  0.00    -0.325 OA
ENDBRANCH  26  27
ENDBRANCH  24  26
ENDBRANCH   4  22
TORSDOF 7
ENDMDL
MODEL 7
REMARK VINA RESULT:    -8.192      4.917      7.007
REMARK INTER + INTRA:         -11.871
REMARK INTER:                 -10.280
REMARK INTRA:                  -1.591
REMARK CONF_INDEPENDENT:        2.088
REMARK UNBOUND:                -1.591
REMARK  7 active torsions:
REMARK  status: ('A' for Active; 'I' for Inactive)
REMARK    1  A    between atoms: C_8  and  N_9 
REMARK       I    between atoms: N_9  and  C_10 
REMARK    2  A    between atoms: C_10  and  C_12 
REMARK    3  A    between atoms: C_12  and  N_13 
REMARK    4  A    between atoms: N_13  and  C_14 
REMARK    5  A    between atoms: C_17  and  C_18 
REMARK       I    between atoms: C_18  and  N_20 
REMARK    6  A    between atoms: N_20  and  C_21 
REMARK    7  A    between atoms: C_21  and  C_22 
ROOT
ATOM      1  C   UNL d   1      26.888 -17.298  -0.352  0.00  0.00     0.028 A 
ATOM      2  C   UNL d   1      26.144 -18.250   0.354  0.00  0.00     0.030 A 
ATOM      3  C   UNL d   1      24.767 -18.386   0.139  0.00  0.00     0.019 A 
ATOM      4  C   UNL d   1      24.106 -17.546  -0.768  0.00  0.00     0.032 A 
ATOM      5  C   UNL d   1      24.867 -16.644  -1.518  0.00  0.00     0.019 A 
ATOM      6  C   UNL d   1      26.241 -16.527  -1.306  0.00  0.00     0.030 A 
ENDROOT
BRANCH   1   7
ATOM      7  N   UNL d   1      28.209 -17.121  -0.048  0.00  0.00    -0.381 N 
ATOM      8  H   UNL d   1      28.617 -17.809   0.602  0.00  0.00     0.160 HD
BRANCH   7   9
ATOM      9  C   UNL d   1      29.230 -16.471  -0.900  0.00  0.00     0.223 C 
BRANCH   9  10
ATOM     10  C   UNL d   1      29.946 -17.611  -1.616  0.00  0.00     0.239 C 
ATOM     11  N   UNL d   1      30.388 -17.460  -2.923  0.00  0.00    -0.325 N 
ATOM     12  H   UNL d   1      30.192 -16.570  -3.370  0.00  0.00     0.169 HD
ATOM     13  O   UNL d   1      30.047 -18.617  -0.905  0.00  0.00    -0.271 OA
BRANCH  11  14
ATOM     14  C   UNL d   1      31.084 -18.431  -3.744  0.00  0.00     0.042 A 
ATOM     15  C   UNL d   1      30.670 -18.583  -5.088  0.00  0.00     0.053 A 
ATOM     16  C   UNL d   1      31.289 -19.523  -5.941  0.00  0.00     0.036 A 
ATOM     17  C   UNL d   1      32.324 -20.330  -5.493  0.00  0.00     0.024 A 
ATOM     18 CL   UNL d   1      30.781 -19.703  -7.579  0.00  0.00    -0.084 Cl
ATOM     19  C   UNL d   1      32.753 -20.186  -4.191  0.00  0.00     0.011 A 
ATOM     20  C   UNL d   1      32.156 -19.254  -3.321  0.00  0.00    -0.035 A 
ATOM     21  C   UNL d   1      32.776 -19.259  -1.964  0.00  0.00     0.050 C 
ENDBRANCH  11  14
ENDBRANCH   9  10
ENDBRANCH   7   9
ENDBRANCH   1   7
BRANCH   4  22
ATOM     22  C   UNL d   1      22.611 -17.615  -0.861  0.00  0.00     0.251 C 
ATOM     23  O   UNL d   1      21.939 -16.592  -0.775  0.00  0.00    -0.268 OA
ATOM     24  N   UNL d   1      22.040 -18.854  -1.077  0.00  0.00    -0.351 N 
ATOM     25  H   UNL d   1      22.612 -19.667  -1.223  0.00  0.00     0.163 HD
BRANCH  24  26
ATOM     26  C   UNL d   1      20.605 -19.014  -1.230  0.00  0.00     0.187 C 
BRANCH  26  27
ATOM     27  C   UNL d   1      20.036 -19.675  -0.020  0.00  0.00     0.070 A 
ATOM     28  C   UNL d   1      20.282 -19.545   1.334  0.00  0.00     0.036 A 
ATOM     29  C   UNL d   1      19.355 -20.379   2.001  0.00  0.00     0.027 A 
ATOM     30  C   UNL d   1      18.604 -20.977   1.018  0.00  0.00     0.142 A 
ATOM     31  O   UNL d   1      19.013 -20.563  -0.213  0.00  0.00    -0.325 OA
ENDBRANCH  26  27
ENDBRANCH  24  26
ENDBRANCH   4  22
TORSDOF 7
ENDMDL
MODEL 8
REMARK VINA RESULT:    -7.913      6.633      9.929
REMARK INTER + INTRA:         -11.999
REMARK INTER:                 -10.001
REMARK INTRA:                  -1.998
REMARK CONF_INDEPENDENT:        2.088
REMARK UNBOUND:                -1.998
REMARK  7 active torsions:
REMARK  status: ('A' for Active; 'I' for Inactive)
REMARK    1  A    between atoms: C_8  and  N_9 
REMARK       I    between atoms: N_9  and  C_10 
REMARK    2  A    between atoms: C_10  and  C_12 
REMARK    3  A    between atoms: C_12  and  N_13 
REMARK    4  A    between atoms: N_13  and  C_14 
REMARK    5  A    between atoms: C_17  and  C_18 
REMARK       I    between atoms: C_18  and  N_20 
REMARK    6  A    between atoms: N_20  and  C_21 
REMARK    7  A    between atoms: C_21  and  C_22 
ROOT
ATOM      1  C   UNL d   1      26.697 -13.275  -5.271  0.00  0.00     0.028 A 
ATOM      2  C   UNL d   1      27.520 -12.508  -6.105  0.00  0.00     0.030 A 
ATOM      3  C   UNL d   1      28.635 -13.077  -6.732  0.00  0.00     0.019 A 
ATOM      4  C   UNL d   1      28.961 -14.423  -6.510  0.00  0.00     0.032 A 
ATOM      5  C   UNL d   1      28.096 -15.199  -5.731  0.00  0.00     0.019 A 
ATOM      6  C   UNL d   1      26.981 -14.625  -5.123  0.00  0.00     0.030 A 
ENDROOT
BRANCH   1   7
ATOM      7  N   UNL d   1      25.677 -12.668  -4.595  0.00  0.00    -0.381 N 
ATOM      8  H   UNL d   1      24.789 -12.572  -5.110  0.00  0.00     0.160 HD
BRANCH   7   9
ATOM      9  C   UNL d   1      25.487 -12.639  -3.127  0.00  0.00     0.223 C 
BRANCH   9  10
ATOM     10  C   UNL d   1      24.999 -14.034  -2.754  0.00  0.00     0.239 C 
ATOM     11  N   UNL d   1      25.530 -14.701  -1.659  0.00  0.00    -0.325 N 
ATOM     12  H   UNL d   1      26.261 -14.220  -1.143  0.00  0.00     0.169 HD
ATOM     13  O   UNL d   1      24.135 -14.450  -3.534  0.00  0.00    -0.271 OA
BRANCH  11  14
ATOM     14  C   UNL d   1      25.182 -16.018  -1.164  0.00  0.00     0.042 A 
ATOM     15  C   UNL d   1      23.830 -16.427  -1.257  0.00  0.00     0.053 A 
ATOM     16  C   UNL d   1      23.414 -17.688  -0.777  0.00  0.00     0.036 A 
ATOM     17  C   UNL d   1      24.313 -18.571  -0.198  0.00  0.00     0.024 A 
ATOM     18 CL   UNL d   1      21.766 -18.181  -0.894  0.00  0.00    -0.084 Cl
ATOM     19  C   UNL d   1      25.637 -18.198  -0.113  0.00  0.00     0.011 A 
ATOM     20  C   UNL d   1      26.080 -16.949  -0.587  0.00  0.00    -0.035 A 
ATOM     21  C   UNL d   1      27.547 -16.752  -0.402  0.00  0.00     0.050 C 
ENDBRANCH  11  14
ENDBRANCH   9  10
ENDBRANCH   7   9
ENDBRANCH   1   7
BRANCH   4  22
ATOM     22  C   UNL d   1      30.243 -14.959  -7.074  0.00  0.00     0.251 C 
ATOM     23  O   UNL d   1      31.138 -14.190  -7.411  0.00  0.00    -0.268 OA
ATOM     24  N   UNL d   1      30.379 -16.330  -7.164  0.00  0.00    -0.351 N 
ATOM     25  H   UNL d   1      29.665 -16.943  -6.810  0.00  0.00     0.163 HD
BRANCH  24  26
ATOM     26  C   UNL d   1      31.601 -16.943  -7.651  0.00  0.00     0.187 C 
BRANCH  26  27
ATOM     27  C   UNL d   1      31.512 -18.427  -7.524  0.00  0.00     0.070 A 
ATOM     28  C   UNL d   1      32.303 -19.465  -7.979  0.00  0.00     0.036 A 
ATOM     29  C   UNL d   1      31.752 -20.659  -7.458  0.00  0.00     0.027 A 
ATOM     30  C   UNL d   1      30.651 -20.282  -6.725  0.00  0.00     0.142 A 
ATOM     31  O   UNL d   1      30.492 -18.931  -6.764  0.00  0.00    -0.325 OA
ENDBRANCH  26  27
ENDBRANCH  24  26
ENDBRANCH   4  22
TORSDOF 7
ENDMDL
