MODEL 1
REMARK VINA RESULT:    -7.164      0.000      0.000
REMARK INTER + INTRA:         -10.951
REMARK INTER:                 -10.147
REMARK INTRA:                  -0.804
REMARK CONF_INDEPENDENT:        2.983
REMARK UNBOUND:                -0.804
REMARK  10 active torsions:
REMARK  status: ('A' for Active; 'I' for Inactive)
REMARK       I    between atoms: C_2  and  N_3 
REMARK       I    between atoms: C_2  and  N_14 
REMARK    1  A    between atoms: N_3  and  C_4 
REMARK    2  A    between atoms: C_4  and  C_5 
REMARK    3  A    between atoms: C_5  and  C_6 
REMARK    4  A    between atoms: C_6  and  O_7 
REMARK    5  A    between atoms: O_7  and  C_8 
REMARK    6  A    between atoms: C_9  and  C_8 
REMARK    7  A    between atoms: N_14  and  N_15 
REMARK    8  A    between atoms: N_15  and  C_16 
REMARK    9  A    between atoms: C_19  and  O_20 
REMARK   10  A    between atoms: O_20  and  C_21 
ROOT
ATOM      1  O   UNL d   1      25.970 -18.485   0.888  0.00  0.00    -0.246 OA
ATOM      2  C   UNL d   1      26.190 -17.534   0.132  0.00  0.00     0.330 C 
ATOM      3  N   UNL d   1      25.185 -16.833  -0.480  0.00  0.00    -0.342 N 
ATOM      4  N   UNL d   1      27.491 -17.173  -0.172  0.00  0.00    -0.269 N 
ATOM      5  H   UNL d   1      25.415 -16.051  -1.065  0.00  0.00     0.164 HD
ATOM      6  H   UNL d   1      28.170 -17.602   0.452  0.00  0.00     0.185 HD
ENDROOT
BRANCH   4   7
ATOM      7  N   UNL d   1      27.825 -15.873  -0.600  0.00  0.00    -0.202 NA
ATOM      8  H   UNL d   1      27.342 -15.133  -0.093  0.00  0.00     0.153 HD
BRANCH   7   9
ATOM      9  C   UNL d   1      27.759 -15.613  -1.998  0.00  0.00     0.028 A 
ATOM     10  C   UNL d   1      28.784 -16.155  -2.788  0.00  0.00     0.028 A 
ATOM     11  C   UNL d   1      28.835 -15.956  -4.176  0.00  0.00     0.039 A 
ATOM     12  C   UNL d   1      27.828 -15.247  -4.829  0.00  0.00     0.078 A 
ATOM     13  C   UNL d   1      26.817 -14.676  -4.056  0.00  0.00     0.039 A 
ATOM     14  C   UNL d   1      26.784 -14.853  -2.654  0.00  0.00     0.028 A 
BRANCH  12  15
ATOM     15  O   UNL d   1      27.934 -15.201  -6.192  0.00  0.00    -0.255 OA
BRANCH  15  16
ATOM     16  C   UNL d   1      28.962 -14.388  -6.743  0.00  0.00     0.530 C 
ATOM     17  F   UNL d   1      30.088 -15.099  -6.969  0.00  0.00    -0.144 F 
ATOM     18  F   UNL d   1      28.552 -13.815  -7.894  0.00  0.00    -0.144 F 
ATOM     19  F   UNL d   1      29.264 -13.401  -5.869  0.00  0.00    -0.144 F 
ENDBRANCH  15  16
ENDBRANCH  12  15
ENDBRANCH   7   9
ENDBRANCH   4   7
BRANCH   3  20
ATOM     20  C   UNL d   1      23.791 -17.215  -0.318  0.00  0.00     0.126 C 
BRANCH  20  21
ATOM     21  C   UNL d   1      23.539 -18.703  -0.531  0.00  0.00     0.046 C 
BRANCH  21  22
ATOM     22  C   UNL d   1      22.241 -18.916  -1.309  0.00  0.00     0.169 C 
BRANCH  22  23
ATOM     23  O   UNL d   1      21.247 -18.079  -0.749  0.00  0.00    -0.389 OA
BRANCH  23  24
ATOM     24  C   UNL d   1      19.916 -18.594  -0.890  0.00  0.00     0.199 C 
BRANCH  24  25
ATOM     25  C   UNL d   1      19.863 -20.046  -0.372  0.00  0.00     0.145 C 
ATOM     26  C   UNL d   1      20.234 -20.131   1.105  0.00  0.00     0.036 C 
ATOM     27  C   UNL d   1      18.882 -20.068   1.780  0.00  0.00     0.029 C 
ATOM     28  C   UNL d   1      18.012 -20.845   0.823  0.00  0.00     0.168 C 
ATOM     29  O   UNL d   1      18.526 -20.586  -0.491  0.00  0.00    -0.384 OA
ENDBRANCH  24  25
ENDBRANCH  23  24
ENDBRANCH  22  23
ENDBRANCH  21  22
ENDBRANCH  20  21
ENDBRANCH   3  20
TORSDOF 10
ENDMDL
MODEL 2
REMARK VINA RESULT:    -7.042      4.392      7.782
REMARK INTER + INTRA:         -11.496
REMARK INTER:                 -10.025
REMARK INTRA:                  -1.471
REMARK CONF_INDEPENDENT:        2.983
REMARK UNBOUND:                -1.471
REMARK  10 active torsions:
REMARK  status: ('A' for Active; 'I' for Inactive)
REMARK       I    between atoms: C_2  and  N_3 
REMARK       I    between atoms: C_2  and  N_14 
REMARK    1  A    between atoms: N_3  and  C_4 
REMARK    2  A    between atoms: C_4  and  C_5 
REMARK    3  A    between atoms: C_5  and  C_6 
REMARK    4  A    between atoms: C_6  and  O_7 
REMARK    5  A    between atoms: O_7  and  C_8 
REMARK    6  A    between atoms: C_9  and  C_8 
REMARK    7  A    between atoms: N_14  and  N_15 
REMARK    8  A    between atoms: N_15  and  C_16 
REMARK    9  A    between atoms: C_19  and  O_20 
REMARK   10  A    between atoms: O_20  and  C_21 
ROOT
ATOM      1  O   UNL d   1      30.596 -18.336  -1.841  0.00  0.00    -0.246 OA
ATOM      2  C   UNL d   1      29.923 -17.362  -1.488  0.00  0.00     0.330 C 
ATOM      3  N   UNL d   1      29.362 -16.492  -2.386  0.00  0.00    -0.342 N 
ATOM      4  N   UNL d   1      29.759 -17.079  -0.144  0.00  0.00    -0.269 N 
ATOM      5  H   UNL d   1      28.802 -15.731  -2.049  0.00  0.00     0.164 HD
ATOM      6  H   UNL d   1      30.035 -17.855   0.454  0.00  0.00     0.185 HD
ENDROOT
BRANCH   4   7
ATOM      7  N   UNL d   1      28.667 -16.329   0.334  0.00  0.00    -0.202 NA
ATOM      8  H   UNL d   1      28.694 -16.150   1.337  0.00  0.00     0.153 HD
BRANCH   7   9
ATOM      9  C   UNL d   1      27.364 -16.772  -0.034  0.00  0.00     0.028 A 
ATOM     10  C   UNL d   1      26.588 -15.879  -0.788  0.00  0.00     0.028 A 
ATOM     11  C   UNL d   1      25.283 -16.196  -1.200  0.00  0.00     0.039 A 
ATOM     12  C   UNL d   1      24.731 -17.443  -0.911  0.00  0.00     0.078 A 
ATOM     13  C   UNL d   1      25.478 -18.330  -0.136  0.00  0.00     0.039 A 
ATOM     14  C   UNL d   1      26.780 -17.998   0.302  0.00  0.00     0.028 A 
BRANCH  12  15
ATOM     15  O   UNL d   1      23.493 -17.672  -1.445  0.00  0.00    -0.255 OA
BRANCH  15  16
ATOM     16  C   UNL d   1      22.566 -18.411  -0.660  0.00  0.00     0.530 C 
ATOM     17  F   UNL d   1      22.490 -17.930   0.600  0.00  0.00    -0.144 F 
ATOM     18  F   UNL d   1      21.340 -18.391  -1.224  0.00  0.00    -0.144 F 
ATOM     19  F   UNL d   1      22.972 -19.699  -0.588  0.00  0.00    -0.144 F 
ENDBRANCH  15  16
ENDBRANCH  12  15
ENDBRANCH   7   9
ENDBRANCH   4   7
BRANCH   3  20
ATOM     20  C   UNL d   1      29.580 -16.637  -3.816  0.00  0.00     0.126 C 
BRANCH  20  21
ATOM     21  C   UNL d   1      29.753 -15.309  -4.542  0.00  0.00     0.046 C 
BRANCH  21  22
ATOM     22  C   UNL d   1      29.379 -15.457  -6.017  0.00  0.00     0.169 C 
BRANCH  22  23
ATOM     23  O   UNL d   1      27.970 -15.559  -6.107  0.00  0.00    -0.389 OA
BRANCH  23  24
ATOM     24  C   UNL d   1      27.278 -14.392  -5.642  0.00  0.00     0.199 C 
BRANCH  24  25
ATOM     25  C   UNL d   1      26.477 -14.737  -4.369  0.00  0.00     0.145 C 
ATOM     26  C   UNL d   1      26.690 -13.698  -3.272  0.00  0.00     0.036 C 
ATOM     27  C   UNL d   1      25.526 -12.756  -3.491  0.00  0.00     0.029 C 
ATOM     28  C   UNL d   1      24.426 -13.702  -3.905  0.00  0.00     0.168 C 
ATOM     29  O   UNL d   1      25.057 -14.757  -4.644  0.00  0.00    -0.384 OA
ENDBRANCH  24  25
ENDBRANCH  23  24
ENDBRANCH  22  23
ENDBRANCH  21  22
ENDBRANCH  20  21
ENDBRANCH   3  20
TORSDOF 10
ENDMDL
MODEL 3
REMARK VINA RESULT:    -6.930      6.887      8.552
REMARK INTER + INTRA:         -10.673
REMARK INTER:                  -9.913
REMARK INTRA:                  -0.759
REMARK CONF_INDEPENDENT:        2.983
REMARK UNBOUND:                -0.759
REMARK  10 active torsions:
REMARK  status: ('A' for Active; 'I' for Inactive)
REMARK       I    between atoms: C_2  and  N_3 
REMARK       I    between atoms: C_2  and  N_14 
REMARK    1  A    between atoms: N_3  and  C_4 
REMARK    2  A    between atoms: C_4  and  C_5 
REMARK    3  A    between atoms: C_5  and  C_6 
REMARK    4  A    between atoms: C_6  and  O_7 
REMARK    5  A    between atoms: O_7  and  C_8 
REMARK    6  A    between atoms: C_9  and  C_8 
REMARK    7  A    between atoms: N_14  and  N_15 
REMARK    8  A    between atoms: N_15  and  C_16 
REMARK    9  A    between atoms: C_19  and  O_20 
REMARK   10  A    between atoms: O_20  and  C_21 
ROOT
ATOM      1  O   UNL d   1      26.455 -14.420   0.023  0.00  0.00    -0.246 OA
ATOM      2  C   UNL d   1      27.142 -14.942   0.907  0.00  0.00     0.330 C 
ATOM      3  N   UNL d   1      27.542 -16.251   0.851  0.00  0.00    -0.342 N 
ATOM      4  N   UNL d   1      27.492 -14.220   2.035  0.00  0.00    -0.269 N 
ATOM      5  H   UNL d   1      28.122 -16.621   1.581  0.00  0.00     0.164 HD
ATOM      6  H   UNL d   1      27.328 -13.222   1.925  0.00  0.00     0.185 HD
ENDROOT
BRANCH   4   7
ATOM      7  N   UNL d   1      28.619 -14.548   2.813  0.00  0.00    -0.202 NA
ATOM      8  H   UNL d   1      28.900 -15.525   2.745  0.00  0.00     0.153 HD
BRANCH   7   9
ATOM      9  C   UNL d   1      28.600 -14.154   4.181  0.00  0.00     0.028 A 
ATOM     10  C   UNL d   1      28.187 -12.841   4.451  0.00  0.00     0.028 A 
ATOM     11  C   UNL d   1      28.140 -12.332   5.759  0.00  0.00     0.039 A 
ATOM     12  C   UNL d   1      28.458 -13.143   6.848  0.00  0.00     0.078 A 
ATOM     13  C   UNL d   1      28.900 -14.441   6.595  0.00  0.00     0.039 A 
ATOM     14  C   UNL d   1      28.975 -14.942   5.275  0.00  0.00     0.028 A 
BRANCH  12  15
ATOM     15  O   UNL d   1      28.283 -12.567   8.076  0.00  0.00    -0.255 OA
BRANCH  15  16
ATOM     16  C   UNL d   1      29.170 -11.518   8.441  0.00  0.00     0.530 C 
ATOM     17  F   UNL d   1      30.236 -11.460   7.614  0.00  0.00    -0.144 F 
ATOM     18  F   UNL d   1      28.530 -10.329   8.433  0.00  0.00    -0.144 F 
ATOM     19  F   UNL d   1      29.627 -11.737   9.694  0.00  0.00    -0.144 F 
ENDBRANCH  15  16
ENDBRANCH  12  15
ENDBRANCH   7   9
ENDBRANCH   4   7
BRANCH   3  20
ATOM     20  C   UNL d   1      27.123 -17.123  -0.235  0.00  0.00     0.126 C 
BRANCH  20  21
ATOM     21  C   UNL d   1      25.710 -17.668  -0.065  0.00  0.00     0.046 C 
BRANCH  21  22
ATOM     22  C   UNL d   1      24.823 -17.213  -1.224  0.00  0.00     0.169 C 
BRANCH  22  23
ATOM     23  O   UNL d   1      23.902 -16.258  -0.727  0.00  0.00    -0.389 OA
BRANCH  23  24
ATOM     24  C   UNL d   1      22.729 -16.841  -0.143  0.00  0.00     0.199 C 
BRANCH  24  25
ATOM     25  C   UNL d   1      22.194 -17.961  -1.058  0.00  0.00     0.145 C 
ATOM     26  C   UNL d   1      22.402 -19.340  -0.440  0.00  0.00     0.036 C 
ATOM     27  C   UNL d   1      21.084 -19.578   0.263  0.00  0.00     0.029 C 
ATOM     28  C   UNL d   1      20.098 -18.940  -0.684  0.00  0.00     0.168 C 
ATOM     29  O   UNL d   1      20.771 -17.817  -1.270  0.00  0.00    -0.384 OA
ENDBRANCH  24  25
ENDBRANCH  23  24
ENDBRANCH  22  23
ENDBRANCH  21  22
ENDBRANCH  20  21
ENDBRANCH   3  20
TORSDOF 10
ENDMDL
MODEL 4
REMARK VINA RESULT:    -6.429      4.534      8.370
REMARK INTER + INTRA:         -10.921
REMARK INTER:                  -9.412
REMARK INTRA:                  -1.509
REMARK CONF_INDEPENDENT:        2.983
REMARK UNBOUND:                -1.509
REMARK  10 active torsions:
REMARK  status: ('A' for Active; 'I' for Inactive)
REMARK       I    between atoms: C_2  and  N_3 
REMARK       I    between atoms: C_2  and  N_14 
REMARK    1  A    between atoms: N_3  and  C_4 
REMARK    2  A    between atoms: C_4  and  C_5 
REMARK    3  A    between atoms: C_5  and  C_6 
REMARK    4  A    between atoms: C_6  and  O_7 
REMARK    5  A    between atoms: O_7  and  C_8 
REMARK    6  A    between atoms: C_9  and  C_8 
REMARK    7  A    between atoms: N_14  and  N_15 
REMARK    8  A    between atoms: N_15  and  C_16 
REMARK    9  A    between atoms: C_19  and  O_20 
REMARK   10  A    between atoms: O_20  and  C_21 
ROOT
ATOM      1  O   UNL d   1      28.437 -14.640  -0.917  0.00  0.00    -0.246 OA
ATOM      2  C   UNL d   1      27.774 -15.667  -1.093  0.00  0.00     0.330 C 
ATOM      3  N   UNL d   1      27.940 -16.470  -2.191  0.00  0.00    -0.342 N 
ATOM      4  N   UNL d   1      26.782 -16.019  -0.196  0.00  0.00    -0.269 N 
ATOM      5  H   UNL d   1      27.396 -17.308  -2.275  0.00  0.00     0.164 HD
ATOM      6  H   UNL d   1      26.841 -15.495   0.674  0.00  0.00     0.185 HD
ENDROOT
BRANCH   4   7
ATOM      7  N   UNL d   1      26.340 -17.348  -0.052  0.00  0.00    -0.202 NA
ATOM      8  H   UNL d   1      26.881 -18.025  -0.589  0.00  0.00     0.153 HD
BRANCH   7   9
ATOM      9  C   UNL d   1      24.950 -17.594  -0.242  0.00  0.00     0.028 A 
ATOM     10  C   UNL d   1      24.147 -16.478  -0.521  0.00  0.00     0.028 A 
ATOM     11  C   UNL d   1      22.761 -16.591  -0.713  0.00  0.00     0.039 A 
ATOM     12  C   UNL d   1      22.140 -17.839  -0.682  0.00  0.00     0.078 A 
ATOM     13  C   UNL d   1      22.918 -18.955  -0.375  0.00  0.00     0.039 A 
ATOM     14  C   UNL d   1      24.308 -18.834  -0.153  0.00  0.00     0.028 A 
BRANCH  12  15
ATOM     15  O   UNL d   1      20.804 -17.835  -0.979  0.00  0.00    -0.255 OA
BRANCH  15  16
ATOM     16  C   UNL d   1      20.071 -19.024  -0.716  0.00  0.00     0.530 C 
ATOM     17  F   UNL d   1      20.557 -20.071  -1.416  0.00  0.00    -0.144 F 
ATOM     18  F   UNL d   1      20.090 -19.315   0.602  0.00  0.00    -0.144 F 
ATOM     19  F   UNL d   1      18.782 -18.842  -1.084  0.00  0.00    -0.144 F 
ENDBRANCH  15  16
ENDBRANCH  12  15
ENDBRANCH   7   9
ENDBRANCH   4   7
BRANCH   3  20
ATOM     20  C   UNL d   1      28.874 -16.119  -3.250  0.00  0.00     0.126 C 
BRANCH  20  21
ATOM     21  C   UNL d   1      28.491 -14.850  -4.002  0.00  0.00     0.046 C 
BRANCH  21  22
ATOM     22  C   UNL d   1      28.321 -15.147  -5.492  0.00  0.00     0.169 C 
BRANCH  22  23
ATOM     23  O   UNL d   1      26.936 -15.221  -5.773  0.00  0.00    -0.389 OA
BRANCH  23  24
ATOM     24  C   UNL d   1      26.132 -15.533  -4.627  0.00  0.00     0.199 C 
BRANCH  24  25
ATOM     25  C   UNL d   1      25.161 -14.369  -4.341  0.00  0.00     0.145 C 
ATOM     26  C   UNL d   1      25.088 -14.051  -2.851  0.00  0.00     0.036 C 
ATOM     27  C   UNL d   1      26.114 -12.948  -2.707  0.00  0.00     0.029 C 
ATOM     28  C   UNL d   1      25.946 -12.187  -3.999  0.00  0.00     0.168 C 
ATOM     29  O   UNL d   1      25.603 -13.158  -4.998  0.00  0.00    -0.384 OA
ENDBRANCH  24  25
ENDBRANCH  23  24
ENDBRANCH  22  23
ENDBRANCH  21  22
ENDBRANCH  20  21
ENDBRANCH   3  20
TORSDOF 10
ENDMDL
MODEL 5
REMARK VINA RESULT:    -5.730      4.649      8.146
REMARK INTER + INTRA:         -12.301
REMARK INTER:                  -8.713
REMARK INTRA:                  -3.588
REMARK CONF_INDEPENDENT:        2.983
REMARK UNBOUND:                -3.588
REMARK  10 active torsions:
REMARK  status: ('A' for Active; 'I' for Inactive)
REMARK       I    between atoms: C_2  and  N_3 
REMARK       I    between atoms: C_2  and  N_14 
REMARK    1  A    between atoms: N_3  and  C_4 
REMARK    2  A    between atoms: C_4  and  C_5 
REMARK    3  A    between atoms: C_5  and  C_6 
REMARK    4  A    between atoms: C_6  and  O_7 
REMARK    5  A    between atoms: O_7  and  C_8 
REMARK    6  A    between atoms: C_9  and  C_8 
REMARK    7  A    between atoms: N_14  and  N_15 
REMARK    8  A    between atoms: N_15  and  C_16 
REMARK    9  A    between atoms: C_19  and  O_20 
REMARK   10  A    between atoms: O_20  and  C_21 
ROOT
ATOM      1  O   UNL d   1      28.062 -14.894   1.587  0.00  0.00    -0.246 OA
ATOM      2  C   UNL d   1      27.255 -15.286   0.739  0.00  0.00     0.330 C 
ATOM      3  N   UNL d   1      26.625 -14.431  -0.127  0.00  0.00    -0.342 N 
ATOM      4  N   UNL d   1      26.910 -16.625   0.671  0.00  0.00    -0.269 N 
ATOM      5  H   UNL d   1      25.997 -14.802  -0.816  0.00  0.00     0.164 HD
ATOM      6  H   UNL d   1      27.543 -17.217   1.203  0.00  0.00     0.185 HD
ENDROOT
BRANCH   4   7
ATOM      7  N   UNL d   1      26.411 -17.209  -0.509  0.00  0.00    -0.202 NA
ATOM      8  H   UNL d   1      26.694 -16.729  -1.362  0.00  0.00     0.153 HD
BRANCH   7   9
ATOM      9  C   UNL d   1      25.013 -17.480  -0.559  0.00  0.00     0.028 A 
ATOM     10  C   UNL d   1      24.170 -16.385  -0.800  0.00  0.00     0.028 A 
ATOM     11  C   UNL d   1      22.774 -16.523  -0.857  0.00  0.00     0.039 A 
ATOM     12  C   UNL d   1      22.178 -17.777  -0.725  0.00  0.00     0.078 A 
ATOM     13  C   UNL d   1      23.000 -18.871  -0.454  0.00  0.00     0.039 A 
ATOM     14  C   UNL d   1      24.403 -18.724  -0.367  0.00  0.00     0.028 A 
BRANCH  12  15
ATOM     15  O   UNL d   1      20.821 -17.801  -0.895  0.00  0.00    -0.255 OA
BRANCH  15  16
ATOM     16  C   UNL d   1      20.183 -19.071  -0.898  0.00  0.00     0.530 C 
ATOM     17  F   UNL d   1      20.633 -19.854   0.106  0.00  0.00    -0.144 F 
ATOM     18  F   UNL d   1      18.844 -18.933  -0.796  0.00  0.00    -0.144 F 
ATOM     19  F   UNL d   1      20.450 -19.700  -2.065  0.00  0.00    -0.144 F 
ENDBRANCH  15  16
ENDBRANCH  12  15
ENDBRANCH   7   9
ENDBRANCH   4   7
BRANCH   3  20
ATOM     20  C   UNL d   1      26.830 -12.993  -0.052  0.00  0.00     0.126 C 
BRANCH  20  21
ATOM     21  C   UNL d   1      27.570 -12.422  -1.256  0.00  0.00     0.046 C 
BRANCH  21  22
ATOM     22  C   UNL d   1      26.661 -12.417  -2.484  0.00  0.00     0.169 C 
BRANCH  22  23
ATOM     23  O   UNL d   1      25.533 -13.224  -2.203  0.00  0.00    -0.389 OA
BRANCH  23  24
ATOM     24  C   UNL d   1      24.919 -13.782  -3.373  0.00  0.00     0.199 C 
BRANCH  24  25
ATOM     25  C   UNL d   1      25.531 -15.166  -3.671  0.00  0.00     0.145 C 
ATOM     26  C   UNL d   1      26.208 -15.200  -5.037  0.00  0.00     0.036 C 
ATOM     27  C   UNL d   1      27.645 -14.876  -4.692  0.00  0.00     0.029 C 
ATOM     28  C   UNL d   1      27.818 -15.576  -3.366  0.00  0.00     0.168 C 
ATOM     29  O   UNL d   1      26.551 -15.497  -2.700  0.00  0.00    -0.384 OA
ENDBRANCH  24  25
ENDBRANCH  23  24
ENDBRANCH  22  23
ENDBRANCH  21  22
ENDBRANCH  20  21
ENDBRANCH   3  20
TORSDOF 10
ENDMDL
MODEL 6
REMARK VINA RESULT:    -5.312      4.093      8.309
REMARK INTER + INTRA:         -11.428
REMARK INTER:                  -8.295
REMARK INTRA:                  -3.133
REMARK CONF_INDEPENDENT:        2.983
REMARK UNBOUND:                -3.133
REMARK  10 active torsions:
REMARK  status: ('A' for Active; 'I' for Inactive)
REMARK       I    between atoms: C_2  and  N_3 
REMARK       I    between atoms: C_2  and  N_14 
REMARK    1  A    between atoms: N_3  and  C_4 
REMARK    2  A    between atoms: C_4  and  C_5 
REMARK    3  A    between atoms: C_5  and  C_6 
REMARK    4  A    between atoms: C_6  and  O_7 
REMARK    5  A    between atoms: O_7  and  C_8 
REMARK    6  A    between atoms: C_9  and  C_8 
REMARK    7  A    between atoms: N_14  and  N_15 
REMARK    8  A    between atoms: N_15  and  C_16 
REMARK    9  A    between atoms: C_19  and  O_20 
REMARK   10  A    between atoms: O_20  and  C_21 
ROOT
ATOM      1  O   UNL d   1      30.410 -17.991  -3.648  0.00  0.00    -0.246 OA
ATOM      2  C   UNL d   1      29.652 -17.035  -3.457  0.00  0.00     0.330 C 
ATOM      3  N   UNL d   1      29.379 -16.107  -4.427  0.00  0.00    -0.342 N 
ATOM      4  N   UNL d   1      29.083 -16.835  -2.211  0.00  0.00    -0.269 N 
ATOM      5  H   UNL d   1      28.735 -15.364  -4.231  0.00  0.00     0.164 HD
ATOM      6  H   UNL d   1      29.174 -17.648  -1.607  0.00  0.00     0.185 HD
ENDROOT
BRANCH   4   7
ATOM      7  N   UNL d   1      27.890 -16.108  -2.042  0.00  0.00    -0.202 NA
ATOM      8  H   UNL d   1      28.026 -15.167  -1.676  0.00  0.00     0.153 HD
BRANCH   7   9
ATOM      9  C   UNL d   1      26.836 -16.747  -1.329  0.00  0.00     0.028 A 
ATOM     10  C   UNL d   1      25.530 -16.482  -1.768  0.00  0.00     0.028 A 
ATOM     11  C   UNL d   1      24.407 -17.042  -1.138  0.00  0.00     0.039 A 
ATOM     12  C   UNL d   1      24.560 -17.930  -0.074  0.00  0.00     0.078 A 
ATOM     13  C   UNL d   1      25.850 -18.181   0.394  0.00  0.00     0.039 A 
ATOM     14  C   UNL d   1      26.977 -17.592  -0.223  0.00  0.00     0.028 A 
BRANCH  12  15
ATOM     15  O   UNL d   1      23.402 -18.485   0.396  0.00  0.00    -0.255 OA
BRANCH  15  16
ATOM     16  C   UNL d   1      22.384 -18.780  -0.553  0.00  0.00     0.530 C 
ATOM     17  F   UNL d   1      21.681 -17.677  -0.885  0.00  0.00    -0.144 F 
ATOM     18  F   UNL d   1      22.916 -19.328  -1.666  0.00  0.00    -0.144 F 
ATOM     19  F   UNL d   1      21.524 -19.675  -0.017  0.00  0.00    -0.144 F 
ENDBRANCH  15  16
ENDBRANCH  12  15
ENDBRANCH   7   9
ENDBRANCH   4   7
BRANCH   3  20
ATOM     20  C   UNL d   1      30.023 -16.165  -5.730  0.00  0.00     0.126 C 
BRANCH  20  21
ATOM     21  C   UNL d   1      29.946 -14.856  -6.505  0.00  0.00     0.046 C 
BRANCH  21  22
ATOM     22  C   UNL d   1      28.495 -14.385  -6.607  0.00  0.00     0.169 C 
BRANCH  22  23
ATOM     23  O   UNL d   1      27.660 -15.412  -6.106  0.00  0.00    -0.389 OA
BRANCH  23  24
ATOM     24  C   UNL d   1      26.625 -14.938  -5.234  0.00  0.00     0.199 C 
BRANCH  24  25
ATOM     25  C   UNL d   1      27.047 -13.592  -4.610  0.00  0.00     0.145 C 
ATOM     26  C   UNL d   1      25.843 -12.700  -4.328  0.00  0.00     0.036 C 
ATOM     27  C   UNL d   1      25.531 -13.028  -2.884  0.00  0.00     0.029 C 
ATOM     28  C   UNL d   1      26.908 -13.226  -2.299  0.00  0.00     0.168 C 
ATOM     29  O   UNL d   1      27.710 -13.800  -3.341  0.00  0.00    -0.384 OA
ENDBRANCH  24  25
ENDBRANCH  23  24
ENDBRANCH  22  23
ENDBRANCH  21  22
ENDBRANCH  20  21
ENDBRANCH   3  20
TORSDOF 10
ENDMDL
MODEL 7
REMARK VINA RESULT:    -5.080      4.354      8.248
REMARK INTER + INTRA:         -11.828
REMARK INTER:                  -8.063
REMARK INTRA:                  -3.766
REMARK CONF_INDEPENDENT:        2.983
REMARK UNBOUND:                -3.766
REMARK  10 active torsions:
REMARK  status: ('A' for Active; 'I' for Inactive)
REMARK       I    between atoms: C_2  and  N_3 
REMARK       I    between atoms: C_2  and  N_14 
REMARK    1  A    between atoms: N_3  and  C_4 
REMARK    2  A    between atoms: C_4  and  C_5 
REMARK    3  A    between atoms: C_5  and  C_6 
REMARK    4  A    between atoms: C_6  and  O_7 
REMARK    5  A    between atoms: O_7  and  C_8 
REMARK    6  A    between atoms: C_9  and  C_8 
REMARK    7  A    between atoms: N_14  and  N_15 
REMARK    8  A    between atoms: N_15  and  C_16 
REMARK    9  A    between atoms: C_19  and  O_20 
REMARK   10  A    between atoms: O_20  and  C_21 
ROOT
ATOM      1  O   UNL d   1      27.091 -12.117  -0.267  0.00  0.00    -0.246 OA
ATOM      2  C   UNL d   1      26.901 -13.229  -0.770  0.00  0.00     0.330 C 
ATOM      3  N   UNL d   1      26.566 -13.393  -2.089  0.00  0.00    -0.342 N 
ATOM      4  N   UNL d   1      26.968 -14.369   0.012  0.00  0.00    -0.269 N 
ATOM      5  H   UNL d   1      26.449 -14.319  -2.456  0.00  0.00     0.164 HD
ATOM      6  H   UNL d   1      27.399 -14.194   0.917  0.00  0.00     0.185 HD
ENDROOT
BRANCH   4   7
ATOM      7  N   UNL d   1      27.243 -15.637  -0.535  0.00  0.00    -0.202 NA
ATOM      8  H   UNL d   1      27.709 -15.606  -1.440  0.00  0.00     0.153 HD
BRANCH   7   9
ATOM      9  C   UNL d   1      26.167 -16.568  -0.587  0.00  0.00     0.028 A 
ATOM     10  C   UNL d   1      25.147 -16.299  -1.513  0.00  0.00     0.028 A 
ATOM     11  C   UNL d   1      24.028 -17.136  -1.648  0.00  0.00     0.039 A 
ATOM     12  C   UNL d   1      23.919 -18.302  -0.892  0.00  0.00     0.078 A 
ATOM     13  C   UNL d   1      24.907 -18.568   0.055  0.00  0.00     0.039 A 
ATOM     14  C   UNL d   1      26.018 -17.708   0.210  0.00  0.00     0.028 A 
BRANCH  12  15
ATOM     15  O   UNL d   1      22.834 -19.085  -1.179  0.00  0.00    -0.255 OA
BRANCH  15  16
ATOM     16  C   UNL d   1      21.575 -18.676  -0.661  0.00  0.00     0.530 C 
ATOM     17  F   UNL d   1      21.484 -18.912   0.666  0.00  0.00    -0.144 F 
ATOM     18  F   UNL d   1      21.364 -17.364  -0.900  0.00  0.00    -0.144 F 
ATOM     19  F   UNL d   1      20.594 -19.375  -1.274  0.00  0.00    -0.144 F 
ENDBRANCH  15  16
ENDBRANCH  12  15
ENDBRANCH   7   9
ENDBRANCH   4   7
BRANCH   3  20
ATOM     20  C   UNL d   1      26.354 -12.249  -2.962  0.00  0.00     0.126 C 
BRANCH  20  21
ATOM     21  C   UNL d   1      25.510 -12.569  -4.189  0.00  0.00     0.046 C 
BRANCH  21  22
ATOM     22  C   UNL d   1      24.602 -13.767  -3.911  0.00  0.00     0.169 C 
BRANCH  22  23
ATOM     23  O   UNL d   1      25.335 -14.948  -4.178  0.00  0.00    -0.389 OA
BRANCH  23  24
ATOM     24  C   UNL d   1      26.258 -14.819  -5.267  0.00  0.00     0.199 C 
BRANCH  24  25
ATOM     25  C   UNL d   1      27.562 -15.575  -4.936  0.00  0.00     0.145 C 
ATOM     26  C   UNL d   1      28.772 -14.928  -5.602  0.00  0.00     0.036 C 
ATOM     27  C   UNL d   1      29.282 -14.006  -4.517  0.00  0.00     0.029 C 
ATOM     28  C   UNL d   1      29.019 -14.810  -3.267  0.00  0.00     0.168 C 
ATOM     29  O   UNL d   1      27.819 -15.556  -3.512  0.00  0.00    -0.384 OA
ENDBRANCH  24  25
ENDBRANCH  23  24
ENDBRANCH  22  23
ENDBRANCH  21  22
ENDBRANCH  20  21
ENDBRANCH   3  20
TORSDOF 10
ENDMDL
MODEL 8
REMARK VINA RESULT:    -4.895      4.603      8.204
REMARK INTER + INTRA:         -10.577
REMARK INTER:                  -7.878
REMARK INTRA:                  -2.699
REMARK CONF_INDEPENDENT:        2.983
REMARK UNBOUND:                -2.699
REMARK  10 active torsions:
REMARK  status: ('A' for Active; 'I' for Inactive)
REMARK       I    between atoms: C_2  and  N_3 
REMARK       I    between atoms: C_2  and  N_14 
REMARK    1  A    between atoms: N_3  and  C_4 
REMARK    2  A    between atoms: C_4  and  C_5 
REMARK    3  A    between atoms: C_5  and  C_6 
REMARK    4  A    between atoms: C_6  and  O_7 
REMARK    5  A    between atoms: O_7  and  C_8 
REMARK    6  A    between atoms: C_9  and  C_8 
REMARK    7  A    between atoms: N_14  and  N_15 
REMARK    8  A    between atoms: N_15  and  C_16 
REMARK    9  A    between atoms: C_19  and  O_20 
REMARK   10  A    between atoms: O_20  and  C_21 
ROOT
ATOM      1  O   UNL d   1      27.157 -15.540  -5.331  0.00  0.00    -0.246 OA
ATOM      2  C   UNL d   1      27.149 -15.200  -4.144  0.00  0.00     0.330 C 
ATOM      3  N   UNL d   1      26.391 -14.156  -3.683  0.00  0.00    -0.342 N 
ATOM      4  N   UNL d   1      27.965 -15.843  -3.229  0.00  0.00    -0.269 N 
ATOM      5  H   UNL d   1      26.398 -13.936  -2.704  0.00  0.00     0.164 HD
ATOM      6  H   UNL d   1      28.348 -16.712  -3.593  0.00  0.00     0.185 HD
ENDROOT
BRANCH   4   7
ATOM      7  N   UNL d   1      27.675 -15.859  -1.851  0.00  0.00    -0.202 NA
ATOM      8  H   UNL d   1      28.437 -16.209  -1.272  0.00  0.00     0.153 HD
BRANCH   7   9
ATOM      9  C   UNL d   1      26.454 -16.473  -1.452  0.00  0.00     0.028 A 
ATOM     10  C   UNL d   1      26.544 -17.472  -0.472  0.00  0.00     0.028 A 
ATOM     11  C   UNL d   1      25.411 -18.159  -0.006  0.00  0.00     0.039 A 
ATOM     12  C   UNL d   1      24.140 -17.830  -0.474  0.00  0.00     0.078 A 
ATOM     13  C   UNL d   1      24.035 -16.861  -1.471  0.00  0.00     0.039 A 
ATOM     14  C   UNL d   1      25.180 -16.191  -1.959  0.00  0.00     0.028 A 
BRANCH  12  15
ATOM     15  O   UNL d   1      23.106 -18.500   0.122  0.00  0.00    -0.255 OA
BRANCH  15  16
ATOM     16  C   UNL d   1      21.964 -18.785  -0.675  0.00  0.00     0.530 C 
ATOM     17  F   UNL d   1      21.224 -17.677  -0.895  0.00  0.00    -0.144 F 
ATOM     18  F   UNL d   1      22.330 -19.324  -1.858  0.00  0.00    -0.144 F 
ATOM     19  F   UNL d   1      21.185 -19.683  -0.031  0.00  0.00    -0.144 F 
ENDBRANCH  15  16
ENDBRANCH  12  15
ENDBRANCH   7   9
ENDBRANCH   4   7
BRANCH   3  20
ATOM     20  C   UNL d   1      25.594 -13.344  -4.589  0.00  0.00     0.126 C 
BRANCH  20  21
ATOM     21  C   UNL d   1      26.182 -11.961  -4.841  0.00  0.00     0.046 C 
BRANCH  21  22
ATOM     22  C   UNL d   1      25.979 -11.066  -3.618  0.00  0.00     0.169 C 
BRANCH  22  23
ATOM     23  O   UNL d   1      26.284 -11.824  -2.462  0.00  0.00    -0.389 OA
BRANCH  23  24
ATOM     24  C   UNL d   1      27.216 -11.180  -1.582  0.00  0.00     0.199 C 
BRANCH  24  25
ATOM     25  C   UNL d   1      27.905 -12.236  -0.693  0.00  0.00     0.145 C 
ATOM     26  C   UNL d   1      27.911 -11.818   0.774  0.00  0.00     0.036 C 
ATOM     27  C   UNL d   1      26.666 -12.493   1.306  0.00  0.00     0.029 C 
ATOM     28  C   UNL d   1      26.655 -13.791   0.537  0.00  0.00     0.168 C 
ATOM     29  O   UNL d   1      27.202 -13.499  -0.756  0.00  0.00    -0.384 OA
ENDBRANCH  24  25
ENDBRANCH  23  24
ENDBRANCH  22  23
ENDBRANCH  21  22
ENDBRANCH  20  21
ENDBRANCH   3  20
TORSDOF 10
ENDMDL
MODEL 9
REMARK VINA RESULT:    -4.485      5.236      8.560
REMARK INTER + INTRA:         -10.631
REMARK INTER:                  -7.468
REMARK INTRA:                  -3.163
REMARK CONF_INDEPENDENT:        2.983
REMARK UNBOUND:                -3.163
REMARK  10 active torsions:
REMARK  status: ('A' for Active; 'I' for Inactive)
REMARK       I    between atoms: C_2  and  N_3 
REMARK       I    between atoms: C_2  and  N_14 
REMARK    1  A    between atoms: N_3  and  C_4 
REMARK    2  A    between atoms: C_4  and  C_5 
REMARK    3  A    between atoms: C_5  and  C_6 
REMARK    4  A    between atoms: C_6  and  O_7 
REMARK    5  A    between atoms: O_7  and  C_8 
REMARK    6  A    between atoms: C_9  and  C_8 
REMARK    7  A    between atoms: N_14  and  N_15 
REMARK    8  A    between atoms: N_15  and  C_16 
REMARK    9  A    between atoms: C_19  and  O_20 
REMARK   10  A    between atoms: O_20  and  C_21 
ROOT
ATOM      1  O   UNL d   1      30.815 -16.190  -1.653  0.00  0.00    -0.246 OA
ATOM      2  C   UNL d   1      30.078 -16.233  -0.663  0.00  0.00     0.330 C 
ATOM      3  N   UNL d   1      30.425 -15.671   0.538  0.00  0.00    -0.342 N 
ATOM      4  N   UNL d   1      28.874 -16.913  -0.719  0.00  0.00    -0.269 N 
ATOM      5  H   UNL d   1      29.780 -15.710   1.305  0.00  0.00     0.164 HD
ATOM      6  H   UNL d   1      28.598 -17.137  -1.672  0.00  0.00     0.185 HD
ENDROOT
BRANCH   4   7
ATOM      7  N   UNL d   1      27.805 -16.615   0.147  0.00  0.00    -0.202 NA
ATOM      8  H   UNL d   1      28.012 -16.775   1.132  0.00  0.00     0.153 HD
BRANCH   7   9
ATOM      9  C   UNL d   1      26.536 -17.178  -0.169  0.00  0.00     0.028 A 
ATOM     10  C   UNL d   1      25.956 -16.778  -1.382  0.00  0.00     0.028 A 
ATOM     11  C   UNL d   1      24.702 -17.254  -1.797  0.00  0.00     0.039 A 
ATOM     12  C   UNL d   1      24.009 -18.190  -1.031  0.00  0.00     0.078 A 
ATOM     13  C   UNL d   1      24.557 -18.575   0.192  0.00  0.00     0.039 A 
ATOM     14  C   UNL d   1      25.806 -18.072   0.622  0.00  0.00     0.028 A 
BRANCH  12  15
ATOM     15  O   UNL d   1      22.846 -18.651  -1.583  0.00  0.00    -0.255 OA
BRANCH  15  16
ATOM     16  C   UNL d   1      21.635 -18.365  -0.895  0.00  0.00     0.530 C 
ATOM     17  F   UNL d   1      21.668 -18.816   0.377  0.00  0.00    -0.144 F 
ATOM     18  F   UNL d   1      21.389 -17.037  -0.895  0.00  0.00    -0.144 F 
ATOM     19  F   UNL d   1      20.609 -18.979  -1.527  0.00  0.00    -0.144 F 
ENDBRANCH  15  16
ENDBRANCH  12  15
ENDBRANCH   7   9
ENDBRANCH   4   7
BRANCH   3  20
ATOM     20  C   UNL d   1      31.722 -15.040   0.729  0.00  0.00     0.126 C 
BRANCH  20  21
ATOM     21  C   UNL d   1      32.453 -15.522   1.976  0.00  0.00     0.046 C 
BRANCH  21  22
ATOM     22  C   UNL d   1      31.818 -14.920   3.230  0.00  0.00     0.169 C 
BRANCH  22  23
ATOM     23  O   UNL d   1      30.528 -14.449   2.889  0.00  0.00    -0.389 OA
BRANCH  23  24
ATOM     24  C   UNL d   1      29.636 -14.353   4.009  0.00  0.00     0.199 C 
BRANCH  24  25
ATOM     25  C   UNL d   1      28.208 -14.736   3.569  0.00  0.00     0.145 C 
ATOM     26  C   UNL d   1      27.192 -13.671   3.969  0.00  0.00     0.036 C 
ATOM     27  C   UNL d   1      27.116 -12.815   2.724  0.00  0.00     0.029 C 
ATOM     28  C   UNL d   1      27.253 -13.840   1.625  0.00  0.00     0.168 C 
ATOM     29  O   UNL d   1      28.128 -14.858   2.130  0.00  0.00    -0.384 OA
ENDBRANCH  24  25
ENDBRANCH  23  24
ENDBRANCH  22  23
ENDBRANCH  21  22
ENDBRANCH  20  21
ENDBRANCH   3  20
TORSDOF 10
ENDMDL
