MODEL 1
REMARK VINA RESULT:    -9.380      0.000      0.000
REMARK INTER + INTRA:         -14.663
REMARK INTER:                 -12.662
REMARK INTRA:                  -2.001
REMARK CONF_INDEPENDENT:        3.281
REMARK UNBOUND:                -2.001
REMARK  11 active torsions:
REMARK  status: ('A' for Active; 'I' for Inactive)
REMARK    1  A    between atoms: C_2  and  C_3 
REMARK    2  A    between atoms: C_3  and  C_4 
REMARK    3  A    between atoms: C_4  and  O_5 
REMARK    4  A    between atoms: O_5  and  C_6 
REMARK    5  A    between atoms: C_11  and  C_12 
REMARK       I    between atoms: C_12  and  N_14 
REMARK    6  A    between atoms: N_14  and  C_15 
REMARK    7  A    between atoms: C_15  and  N_17 
REMARK    8  A    between atoms: N_17  and  N_18 
REMARK       I    between atoms: N_18  and  C_19 
REMARK    9  A    between atoms: C_19  and  C_21 
REMARK   10  A    between atoms: C_24  and  N_25 
REMARK       I    between atoms: N_25  and  C_26 
REMARK   11  A    between atoms: C_26  and  C_28 
ROOT
ATOM      1  N   UNL d   1      27.375 -14.232  -0.384  0.00  0.00    -0.273 N 
ATOM      2  H   UNL d   1      27.251 -13.282  -0.725  0.00  0.00     0.189 HD
ENDROOT
BRANCH   1   3
ATOM      3  C   UNL d   1      28.535 -14.743   0.242  0.00  0.00     0.193 C 
ATOM      4  S   UNL d   1      29.835 -15.239  -0.711  0.00  0.00    -0.039 SA
BRANCH   3   5
ATOM      5  N   UNL d   1      28.510 -14.801   1.663  0.00  0.00    -0.298 N 
ATOM      6  C   UNL d   1      27.639 -14.067   2.520  0.00  0.00     0.260 C 
ATOM      7  O   UNL d   1      26.549 -13.633   2.147  0.00  0.00    -0.267 OA
ATOM      8  H   UNL d   1      29.283 -15.254   2.129  0.00  0.00     0.171 HD
BRANCH   6   9
ATOM      9  C   UNL d   1      27.966 -13.787   3.974  0.00  0.00     0.065 A 
ATOM     10  C   UNL d   1      28.454 -14.891   4.730  0.00  0.00     0.020 A 
ATOM     11  C   UNL d   1      28.859 -14.779   6.067  0.00  0.00     0.001 A 
ATOM     12  C   UNL d   1      28.788 -13.546   6.694  0.00  0.00     0.003 A 
ATOM     13  C   UNL d   1      28.226 -12.466   6.006  0.00  0.00     0.038 A 
ATOM     14  C   UNL d   1      27.801 -12.581   4.658  0.00  0.00     0.084 A 
BRANCH  14  15
ATOM     15  O   UNL d   1      27.377 -11.418   4.088  0.00  0.00    -0.350 OA
BRANCH  15  16
ATOM     16  C   UNL d   1      28.155 -10.918   2.997  0.00  0.00     0.175 C 
BRANCH  16  17
ATOM     17  C   UNL d   1      27.157 -10.766   1.855  0.00  0.00     0.026 C 
BRANCH  17  18
ATOM     18  C   UNL d   1      27.252  -9.395   1.211  0.00  0.00    -0.002 C 
ATOM     19  C   UNL d   1      25.992  -8.603   1.492  0.00  0.00     0.005 C 
ENDBRANCH  17  18
ENDBRANCH  16  17
ENDBRANCH  15  16
ENDBRANCH  14  15
ENDBRANCH   6   9
ENDBRANCH   3   5
ENDBRANCH   1   3
BRANCH   1  20
ATOM     20  N   UNL d   1      26.126 -14.979  -0.272  0.00  0.00    -0.264 N 
ATOM     21  C   UNL d   1      25.621 -15.788  -1.281  0.00  0.00     0.270 C 
ATOM     22  O   UNL d   1      26.010 -15.790  -2.453  0.00  0.00    -0.266 OA
ATOM     23  H   UNL d   1      25.799 -15.084   0.690  0.00  0.00     0.190 HD
BRANCH  21  24
ATOM     24  C   UNL d   1      24.544 -16.747  -0.908  0.00  0.00     0.033 A 
ATOM     25  C   UNL d   1      24.817 -18.091  -0.587  0.00  0.00     0.019 A 
ATOM     26  C   UNL d   1      23.775 -18.984  -0.229  0.00  0.00     0.030 A 
ATOM     27  C   UNL d   1      22.454 -18.523  -0.145  0.00  0.00     0.034 A 
ATOM     28  C   UNL d   1      22.214 -17.204  -0.551  0.00  0.00     0.030 A 
ATOM     29  C   UNL d   1      23.227 -16.324  -0.926  0.00  0.00     0.019 A 
BRANCH  27  30
ATOM     30  N   UNL d   1      21.405 -19.353   0.368  0.00  0.00    -0.327 N 
ATOM     31  C   UNL d   1      20.366 -19.851  -0.417  0.00  0.00     0.221 C 
ATOM     32  O   UNL d   1      20.259 -19.676  -1.630  0.00  0.00    -0.273 OA
ATOM     33  H   UNL d   1      21.371 -19.499   1.372  0.00  0.00     0.169 HD
BRANCH  31  34
ATOM     34  C   UNL d   1      19.286 -20.657   0.281  0.00  0.00     0.098 C 
ATOM     35  C   UNL d   1      18.973 -19.982   1.625  0.00  0.00     0.014 C 
ENDBRANCH  31  34
ENDBRANCH  27  30
ENDBRANCH  21  24
ENDBRANCH   1  20
TORSDOF 11
ENDMDL
MODEL 2
REMARK VINA RESULT:    -9.161      4.184      6.384
REMARK INTER + INTRA:         -15.532
REMARK INTER:                 -12.442
REMARK INTRA:                  -3.089
REMARK CONF_INDEPENDENT:        3.281
REMARK UNBOUND:                -3.089
REMARK  11 active torsions:
REMARK  status: ('A' for Active; 'I' for Inactive)
REMARK    1  A    between atoms: C_2  and  C_3 
REMARK    2  A    between atoms: C_3  and  C_4 
REMARK    3  A    between atoms: C_4  and  O_5 
REMARK    4  A    between atoms: O_5  and  C_6 
REMARK    5  A    between atoms: C_11  and  C_12 
REMARK       I    between atoms: C_12  and  N_14 
REMARK    6  A    between atoms: N_14  and  C_15 
REMARK    7  A    between atoms: C_15  and  N_17 
REMARK    8  A    between atoms: N_17  and  N_18 
REMARK       I    between atoms: N_18  and  C_19 
REMARK    9  A    between atoms: C_19  and  C_21 
REMARK   10  A    between atoms: C_24  and  N_25 
REMARK       I    between atoms: N_25  and  C_26 
REMARK   11  A    between atoms: C_26  and  C_28 
ROOT
ATOM      1  N   UNL d   1      28.775 -16.689   0.110  0.00  0.00    -0.273 N 
ATOM      2  H   UNL d   1      29.237 -16.355   0.952  0.00  0.00     0.189 HD
ENDROOT
BRANCH   1   3
ATOM      3  C   UNL d   1      29.419 -17.193  -1.044  0.00  0.00     0.193 C 
ATOM      4  S   UNL d   1      30.678 -18.301  -0.867  0.00  0.00    -0.039 SA
BRANCH   3   5
ATOM      5  N   UNL d   1      28.941 -16.709  -2.293  0.00  0.00    -0.298 N 
ATOM      6  C   UNL d   1      29.576 -16.873  -3.558  0.00  0.00     0.260 C 
ATOM      7  O   UNL d   1      30.365 -17.788  -3.793  0.00  0.00    -0.267 OA
ATOM      8  H   UNL d   1      28.186 -16.038  -2.280  0.00  0.00     0.171 HD
BRANCH   6   9
ATOM      9  C   UNL d   1      29.308 -15.954  -4.734  0.00  0.00     0.065 A 
ATOM     10  C   UNL d   1      30.277 -15.972  -5.777  0.00  0.00     0.020 A 
ATOM     11  C   UNL d   1      30.141 -15.227  -6.957  0.00  0.00     0.001 A 
ATOM     12  C   UNL d   1      29.020 -14.433  -7.129  0.00  0.00     0.003 A 
ATOM     13  C   UNL d   1      28.098 -14.323  -6.083  0.00  0.00     0.038 A 
ATOM     14  C   UNL d   1      28.242 -15.064  -4.883  0.00  0.00     0.084 A 
BRANCH  14  15
ATOM     15  O   UNL d   1      27.210 -14.937  -4.002  0.00  0.00    -0.350 OA
BRANCH  15  16
ATOM     16  C   UNL d   1      25.905 -15.259  -4.491  0.00  0.00     0.175 C 
BRANCH  16  17
ATOM     17  C   UNL d   1      25.056 -14.041  -4.142  0.00  0.00     0.026 C 
BRANCH  17  18
ATOM     18  C   UNL d   1      25.917 -12.815  -3.896  0.00  0.00    -0.002 C 
ATOM     19  C   UNL d   1      26.206 -12.674  -2.416  0.00  0.00     0.005 C 
ENDBRANCH  17  18
ENDBRANCH  16  17
ENDBRANCH  15  16
ENDBRANCH  14  15
ENDBRANCH   6   9
ENDBRANCH   3   5
ENDBRANCH   1   3
BRANCH   1  20
ATOM     20  N   UNL d   1      27.348 -16.941   0.288  0.00  0.00    -0.264 N 
ATOM     21  C   UNL d   1      26.375 -16.513  -0.606  0.00  0.00     0.270 C 
ATOM     22  O   UNL d   1      26.549 -15.684  -1.504  0.00  0.00    -0.266 OA
ATOM     23  H   UNL d   1      27.146 -17.683   0.960  0.00  0.00     0.190 HD
BRANCH  21  24
ATOM     24  C   UNL d   1      25.025 -17.131  -0.486  0.00  0.00     0.033 A 
ATOM     25  C   UNL d   1      24.850 -18.511  -0.265  0.00  0.00     0.019 A 
ATOM     26  C   UNL d   1      23.554 -19.075  -0.149  0.00  0.00     0.030 A 
ATOM     27  C   UNL d   1      22.422 -18.250  -0.207  0.00  0.00     0.034 A 
ATOM     28  C   UNL d   1      22.635 -16.899  -0.510  0.00  0.00     0.030 A 
ATOM     29  C   UNL d   1      23.904 -16.338  -0.648  0.00  0.00     0.019 A 
BRANCH  27  30
ATOM     30  N   UNL d   1      21.112 -18.760   0.068  0.00  0.00    -0.327 N 
ATOM     31  C   UNL d   1      20.336 -19.431  -0.876  0.00  0.00     0.221 C 
ATOM     32  O   UNL d   1      20.701 -19.700  -2.020  0.00  0.00    -0.273 OA
ATOM     33  H   UNL d   1      20.698 -18.530   0.965  0.00  0.00     0.169 HD
BRANCH  31  34
ATOM     34  C   UNL d   1      18.937 -19.850  -0.461  0.00  0.00     0.098 C 
ATOM     35  C   UNL d   1      19.025 -20.537   0.910  0.00  0.00     0.014 C 
ENDBRANCH  31  34
ENDBRANCH  27  30
ENDBRANCH  21  24
ENDBRANCH   1  20
TORSDOF 11
ENDMDL
MODEL 3
REMARK VINA RESULT:    -8.863      5.121      7.584
REMARK INTER + INTRA:         -14.805
REMARK INTER:                 -12.145
REMARK INTRA:                  -2.660
REMARK CONF_INDEPENDENT:        3.281
REMARK UNBOUND:                -2.660
REMARK  11 active torsions:
REMARK  status: ('A' for Active; 'I' for Inactive)
REMARK    1  A    between atoms: C_2  and  C_3 
REMARK    2  A    between atoms: C_3  and  C_4 
REMARK    3  A    between atoms: C_4  and  O_5 
REMARK    4  A    between atoms: O_5  and  C_6 
REMARK    5  A    between atoms: C_11  and  C_12 
REMARK       I    between atoms: C_12  and  N_14 
REMARK    6  A    between atoms: N_14  and  C_15 
REMARK    7  A    between atoms: C_15  and  N_17 
REMARK    8  A    between atoms: N_17  and  N_18 
REMARK       I    between atoms: N_18  and  C_19 
REMARK    9  A    between atoms: C_19  and  C_21 
REMARK   10  A    between atoms: C_24  and  N_25 
REMARK       I    between atoms: N_25  and  C_26 
REMARK   11  A    between atoms: C_26  and  C_28 
ROOT
ATOM      1  N   UNL d   1      26.843 -15.246  -3.498  0.00  0.00    -0.273 N 
ATOM      2  H   UNL d   1      27.835 -15.472  -3.511  0.00  0.00     0.189 HD
ENDROOT
BRANCH   1   3
ATOM      3  C   UNL d   1      26.194 -14.312  -4.338  0.00  0.00     0.193 C 
ATOM      4  S   UNL d   1      24.698 -13.687  -3.873  0.00  0.00    -0.039 SA
BRANCH   3   5
ATOM      5  N   UNL d   1      26.873 -13.968  -5.539  0.00  0.00    -0.298 N 
ATOM      6  C   UNL d   1      28.126 -14.488  -5.977  0.00  0.00     0.260 C 
ATOM      7  O   UNL d   1      28.560 -15.578  -5.606  0.00  0.00    -0.267 OA
ATOM      8  H   UNL d   1      26.547 -13.158  -6.048  0.00  0.00     0.171 HD
BRANCH   6   9
ATOM      9  C   UNL d   1      29.015 -13.758  -6.964  0.00  0.00     0.065 A 
ATOM     10  C   UNL d   1      30.355 -14.229  -7.068  0.00  0.00     0.020 A 
ATOM     11  C   UNL d   1      31.281 -13.700  -7.978  0.00  0.00     0.001 A 
ATOM     12  C   UNL d   1      30.889 -12.674  -8.821  0.00  0.00     0.003 A 
ATOM     13  C   UNL d   1      29.609 -12.129  -8.677  0.00  0.00     0.038 A 
ATOM     14  C   UNL d   1      28.676 -12.652  -7.747  0.00  0.00     0.084 A 
BRANCH  14  15
ATOM     15  O   UNL d   1      27.435 -12.090  -7.798  0.00  0.00    -0.350 OA
BRANCH  15  16
ATOM     16  C   UNL d   1      27.360 -10.679  -7.577  0.00  0.00     0.175 C 
BRANCH  16  17
ATOM     17  C   UNL d   1      26.081 -10.487  -6.770  0.00  0.00     0.026 C 
BRANCH  17  18
ATOM     18  C   UNL d   1      26.287 -10.840  -5.308  0.00  0.00    -0.002 C 
ATOM     19  C   UNL d   1      25.531  -9.866  -4.429  0.00  0.00     0.005 C 
ENDBRANCH  17  18
ENDBRANCH  16  17
ENDBRANCH  15  16
ENDBRANCH  14  15
ENDBRANCH   6   9
ENDBRANCH   3   5
ENDBRANCH   1   3
BRANCH   1  20
ATOM     20  N   UNL d   1      26.035 -16.215  -2.763  0.00  0.00    -0.264 N 
ATOM     21  C   UNL d   1      25.545 -15.993  -1.483  0.00  0.00     0.270 C 
ATOM     22  O   UNL d   1      25.917 -15.091  -0.725  0.00  0.00    -0.266 OA
ATOM     23  H   UNL d   1      25.627 -16.939  -3.356  0.00  0.00     0.190 HD
BRANCH  21  24
ATOM     24  C   UNL d   1      24.464 -16.899  -1.003  0.00  0.00     0.033 A 
ATOM     25  C   UNL d   1      24.722 -18.226  -0.606  0.00  0.00     0.019 A 
ATOM     26  C   UNL d   1      23.677 -19.068  -0.148  0.00  0.00     0.030 A 
ATOM     27  C   UNL d   1      22.371 -18.571  -0.039  0.00  0.00     0.034 A 
ATOM     28  C   UNL d   1      22.143 -17.275  -0.521  0.00  0.00     0.030 A 
ATOM     29  C   UNL d   1      23.158 -16.446  -0.994  0.00  0.00     0.019 A 
BRANCH  27  30
ATOM     30  N   UNL d   1      21.327 -19.339   0.570  0.00  0.00    -0.327 N 
ATOM     31  C   UNL d   1      20.227 -19.831  -0.131  0.00  0.00     0.221 C 
ATOM     32  O   UNL d   1      20.053 -19.702  -1.342  0.00  0.00    -0.273 OA
ATOM     33  H   UNL d   1      21.349 -19.443   1.579  0.00  0.00     0.169 HD
BRANCH  31  34
ATOM     34  C   UNL d   1      19.163 -20.567   0.664  0.00  0.00     0.098 C 
ATOM     35  C   UNL d   1      19.215 -20.069   2.116  0.00  0.00     0.014 C 
ENDBRANCH  31  34
ENDBRANCH  27  30
ENDBRANCH  21  24
ENDBRANCH   1  20
TORSDOF 11
ENDMDL
MODEL 4
REMARK VINA RESULT:    -8.713      4.504      6.752
REMARK INTER + INTRA:         -14.126
REMARK INTER:                 -11.994
REMARK INTRA:                  -2.132
REMARK CONF_INDEPENDENT:        3.281
REMARK UNBOUND:                -2.132
REMARK  11 active torsions:
REMARK  status: ('A' for Active; 'I' for Inactive)
REMARK    1  A    between atoms: C_2  and  C_3 
REMARK    2  A    between atoms: C_3  and  C_4 
REMARK    3  A    between atoms: C_4  and  O_5 
REMARK    4  A    between atoms: O_5  and  C_6 
REMARK    5  A    between atoms: C_11  and  C_12 
REMARK       I    between atoms: C_12  and  N_14 
REMARK    6  A    between atoms: N_14  and  C_15 
REMARK    7  A    between atoms: C_15  and  N_17 
REMARK    8  A    between atoms: N_17  and  N_18 
REMARK       I    between atoms: N_18  and  C_19 
REMARK    9  A    between atoms: C_19  and  C_21 
REMARK   10  A    between atoms: C_24  and  N_25 
REMARK       I    between atoms: N_25  and  C_26 
REMARK   11  A    between atoms: C_26  and  C_28 
ROOT
ATOM      1  N   UNL d   1      26.360 -13.563  -2.508  0.00  0.00    -0.273 N 
ATOM      2  H   UNL d   1      26.974 -13.347  -1.726  0.00  0.00     0.189 HD
ENDROOT
BRANCH   1   3
ATOM      3  C   UNL d   1      26.608 -13.258  -3.866  0.00  0.00     0.193 C 
ATOM      4  S   UNL d   1      25.534 -12.255  -4.694  0.00  0.00    -0.039 SA
BRANCH   3   5
ATOM      5  N   UNL d   1      27.772 -13.840  -4.439  0.00  0.00    -0.298 N 
ATOM      6  C   UNL d   1      27.835 -15.076  -5.146  0.00  0.00     0.260 C 
ATOM      7  O   UNL d   1      26.859 -15.573  -5.707  0.00  0.00    -0.267 OA
ATOM      8  H   UNL d   1      28.668 -13.451  -4.180  0.00  0.00     0.171 HD
BRANCH   6   9
ATOM      9  C   UNL d   1      29.119 -15.869  -5.294  0.00  0.00     0.065 A 
ATOM     10  C   UNL d   1      29.706 -15.874  -6.591  0.00  0.00     0.020 A 
ATOM     11  C   UNL d   1      30.924 -16.508  -6.875  0.00  0.00     0.001 A 
ATOM     12  C   UNL d   1      31.598 -17.162  -5.857  0.00  0.00     0.003 A 
ATOM     13  C   UNL d   1      31.001 -17.253  -4.596  0.00  0.00     0.038 A 
ATOM     14  C   UNL d   1      29.762 -16.626  -4.311  0.00  0.00     0.084 A 
BRANCH  14  15
ATOM     15  O   UNL d   1      29.360 -16.709  -3.012  0.00  0.00    -0.350 OA
BRANCH  15  16
ATOM     16  C   UNL d   1      29.536 -15.539  -2.210  0.00  0.00     0.175 C 
BRANCH  16  17
ATOM     17  C   UNL d   1      29.575 -16.061  -0.777  0.00  0.00     0.026 C 
BRANCH  17  18
ATOM     18  C   UNL d   1      29.004 -17.464  -0.680  0.00  0.00    -0.002 C 
ATOM     19  C   UNL d   1      27.786 -17.465   0.221  0.00  0.00     0.005 C 
ENDBRANCH  17  18
ENDBRANCH  16  17
ENDBRANCH  15  16
ENDBRANCH  14  15
ENDBRANCH   6   9
ENDBRANCH   3   5
ENDBRANCH   1   3
BRANCH   1  20
ATOM     20  N   UNL d   1      25.323 -14.537  -2.181  0.00  0.00    -0.264 N 
ATOM     21  C   UNL d   1      25.565 -15.897  -2.036  0.00  0.00     0.270 C 
ATOM     22  O   UNL d   1      26.594 -16.479  -2.392  0.00  0.00    -0.266 OA
ATOM     23  H   UNL d   1      24.475 -14.117  -1.799  0.00  0.00     0.190 HD
BRANCH  21  24
ATOM     24  C   UNL d   1      24.507 -16.707  -1.370  0.00  0.00     0.033 A 
ATOM     25  C   UNL d   1      23.202 -16.215  -1.169  0.00  0.00     0.019 A 
ATOM     26  C   UNL d   1      22.210 -17.007  -0.537  0.00  0.00     0.030 A 
ATOM     27  C   UNL d   1      22.507 -18.318  -0.142  0.00  0.00     0.034 A 
ATOM     28  C   UNL d   1      23.835 -18.740  -0.283  0.00  0.00     0.030 A 
ATOM     29  C   UNL d   1      24.823 -17.962  -0.884  0.00  0.00     0.019 A 
BRANCH  27  30
ATOM     30  N   UNL d   1      21.489 -19.199   0.350  0.00  0.00    -0.327 N 
ATOM     31  C   UNL d   1      20.461 -19.703  -0.445  0.00  0.00     0.221 C 
ATOM     32  O   UNL d   1      20.338 -19.490  -1.651  0.00  0.00    -0.273 OA
ATOM     33  H   UNL d   1      21.467 -19.380   1.347  0.00  0.00     0.169 HD
BRANCH  31  34
ATOM     34  C   UNL d   1      19.412 -20.567   0.232  0.00  0.00     0.098 C 
ATOM     35  C   UNL d   1      18.946 -19.850   1.508  0.00  0.00     0.014 C 
ENDBRANCH  31  34
ENDBRANCH  27  30
ENDBRANCH  21  24
ENDBRANCH   1  20
TORSDOF 11
ENDMDL
MODEL 5
REMARK VINA RESULT:    -8.671      5.034      7.338
REMARK INTER + INTRA:         -14.515
REMARK INTER:                 -11.953
REMARK INTRA:                  -2.562
REMARK CONF_INDEPENDENT:        3.281
REMARK UNBOUND:                -2.562
REMARK  11 active torsions:
REMARK  status: ('A' for Active; 'I' for Inactive)
REMARK    1  A    between atoms: C_2  and  C_3 
REMARK    2  A    between atoms: C_3  and  C_4 
REMARK    3  A    between atoms: C_4  and  O_5 
REMARK    4  A    between atoms: O_5  and  C_6 
REMARK    5  A    between atoms: C_11  and  C_12 
REMARK       I    between atoms: C_12  and  N_14 
REMARK    6  A    between atoms: N_14  and  C_15 
REMARK    7  A    between atoms: C_15  and  N_17 
REMARK    8  A    between atoms: N_17  and  N_18 
REMARK       I    between atoms: N_18  and  C_19 
REMARK    9  A    between atoms: C_19  and  C_21 
REMARK   10  A    between atoms: C_24  and  N_25 
REMARK       I    between atoms: N_25  and  C_26 
REMARK   11  A    between atoms: C_26  and  C_28 
ROOT
ATOM      1  N   UNL d   1      26.116 -14.102  -2.970  0.00  0.00    -0.273 N 
ATOM      2  H   UNL d   1      26.595 -13.607  -2.222  0.00  0.00     0.189 HD
ENDROOT
BRANCH   1   3
ATOM      3  C   UNL d   1      26.313 -13.903  -4.356  0.00  0.00     0.193 C 
ATOM      4  S   UNL d   1      26.552 -15.240  -5.355  0.00  0.00    -0.039 SA
BRANCH   3   5
ATOM      5  N   UNL d   1      26.295 -12.554  -4.806  0.00  0.00    -0.298 N 
ATOM      6  C   UNL d   1      26.175 -11.394  -3.986  0.00  0.00     0.260 C 
ATOM      7  O   UNL d   1      26.494 -11.384  -2.798  0.00  0.00    -0.267 OA
ATOM      8  H   UNL d   1      26.174 -12.389  -5.796  0.00  0.00     0.171 HD
BRANCH   6   9
ATOM      9  C   UNL d   1      25.674 -10.064  -4.517  0.00  0.00     0.065 A 
ATOM     10  C   UNL d   1      25.550  -9.016  -3.562  0.00  0.00     0.020 A 
ATOM     11  C   UNL d   1      25.161  -7.713  -3.907  0.00  0.00     0.001 A 
ATOM     12  C   UNL d   1      24.883  -7.419  -5.231  0.00  0.00     0.003 A 
ATOM     13  C   UNL d   1      24.907  -8.451  -6.175  0.00  0.00     0.038 A 
ATOM     14  C   UNL d   1      25.284  -9.772  -5.826  0.00  0.00     0.084 A 
BRANCH  14  15
ATOM     15  O   UNL d   1      25.367 -10.642  -6.872  0.00  0.00    -0.350 OA
BRANCH  15  16
ATOM     16  C   UNL d   1      26.675 -10.912  -7.381  0.00  0.00     0.175 C 
BRANCH  16  17
ATOM     17  C   UNL d   1      26.996  -9.710  -8.263  0.00  0.00     0.026 C 
BRANCH  17  18
ATOM     18  C   UNL d   1      27.005 -10.087  -9.734  0.00  0.00    -0.002 C 
ATOM     19  C   UNL d   1      26.294 -11.409  -9.934  0.00  0.00     0.005 C 
ENDBRANCH  17  18
ENDBRANCH  16  17
ENDBRANCH  15  16
ENDBRANCH  14  15
ENDBRANCH   6   9
ENDBRANCH   3   5
ENDBRANCH   1   3
BRANCH   1  20
ATOM     20  N   UNL d   1      25.428 -15.309  -2.522  0.00  0.00    -0.264 N 
ATOM     21  C   UNL d   1      25.341 -15.695  -1.191  0.00  0.00     0.270 C 
ATOM     22  O   UNL d   1      26.015 -15.226  -0.269  0.00  0.00    -0.266 OA
ATOM     23  H   UNL d   1      24.786 -15.695  -3.217  0.00  0.00     0.190 HD
BRANCH  21  24
ATOM     24  C   UNL d   1      24.330 -16.736  -0.850  0.00  0.00     0.033 A 
ATOM     25  C   UNL d   1      24.693 -18.067  -0.567  0.00  0.00     0.019 A 
ATOM     26  C   UNL d   1      23.714 -19.039  -0.240  0.00  0.00     0.030 A 
ATOM     27  C   UNL d   1      22.364 -18.671  -0.150  0.00  0.00     0.034 A 
ATOM     28  C   UNL d   1      22.036 -17.361  -0.520  0.00  0.00     0.030 A 
ATOM     29  C   UNL d   1      22.988 -16.403  -0.863  0.00  0.00     0.019 A 
BRANCH  27  30
ATOM     30  N   UNL d   1      21.372 -19.585   0.334  0.00  0.00    -0.327 N 
ATOM     31  C   UNL d   1      20.286 -20.013  -0.428  0.00  0.00     0.221 C 
ATOM     32  O   UNL d   1      20.084 -19.697  -1.600  0.00  0.00    -0.273 OA
ATOM     33  H   UNL d   1      21.417 -19.851   1.312  0.00  0.00     0.169 HD
BRANCH  31  34
ATOM     34  C   UNL d   1      19.277 -20.926   0.244  0.00  0.00     0.098 C 
ATOM     35  C   UNL d   1      18.821 -20.262   1.552  0.00  0.00     0.014 C 
ENDBRANCH  31  34
ENDBRANCH  27  30
ENDBRANCH  21  24
ENDBRANCH   1  20
TORSDOF 11
ENDMDL
MODEL 6
REMARK VINA RESULT:    -8.513      4.294      6.671
REMARK INTER + INTRA:         -14.573
REMARK INTER:                 -11.795
REMARK INTRA:                  -2.778
REMARK CONF_INDEPENDENT:        3.281
REMARK UNBOUND:                -2.778
REMARK  11 active torsions:
REMARK  status: ('A' for Active; 'I' for Inactive)
REMARK    1  A    between atoms: C_2  and  C_3 
REMARK    2  A    between atoms: C_3  and  C_4 
REMARK    3  A    between atoms: C_4  and  O_5 
REMARK    4  A    between atoms: O_5  and  C_6 
REMARK    5  A    between atoms: C_11  and  C_12 
REMARK       I    between atoms: C_12  and  N_14 
REMARK    6  A    between atoms: N_14  and  C_15 
REMARK    7  A    between atoms: C_15  and  N_17 
REMARK    8  A    between atoms: N_17  and  N_18 
REMARK       I    between atoms: N_18  and  C_19 
REMARK    9  A    between atoms: C_19  and  C_21 
REMARK   10  A    between atoms: C_24  and  N_25 
REMARK       I    between atoms: N_25  and  C_26 
REMARK   11  A    between atoms: C_26  and  C_28 
ROOT
ATOM      1  N   UNL d   1      28.354 -16.068   0.213  0.00  0.00    -0.273 N 
ATOM      2  H   UNL d   1      28.897 -16.490   0.962  0.00  0.00     0.189 HD
ENDROOT
BRANCH   1   3
ATOM      3  C   UNL d   1      28.878 -15.500  -0.972  0.00  0.00     0.193 C 
ATOM      4  S   UNL d   1      29.247 -13.855  -1.003  0.00  0.00    -0.039 SA
BRANCH   3   5
ATOM      5  N   UNL d   1      29.054 -16.386  -2.070  0.00  0.00    -0.298 N 
ATOM      6  C   UNL d   1      30.203 -17.188  -2.329  0.00  0.00     0.260 C 
ATOM      7  O   UNL d   1      30.986 -17.534  -1.445  0.00  0.00    -0.267 OA
ATOM      8  H   UNL d   1      28.399 -16.321  -2.837  0.00  0.00     0.171 HD
BRANCH   6   9
ATOM      9  C   UNL d   1      30.542 -17.710  -3.712  0.00  0.00     0.065 A 
ATOM     10  C   UNL d   1      31.532 -18.731  -3.771  0.00  0.00     0.020 A 
ATOM     11  C   UNL d   1      31.909 -19.360  -4.966  0.00  0.00     0.001 A 
ATOM     12  C   UNL d   1      31.299 -18.981  -6.151  0.00  0.00     0.003 A 
ATOM     13  C   UNL d   1      30.391 -17.917  -6.136  0.00  0.00     0.038 A 
ATOM     14  C   UNL d   1      30.020 -17.270  -4.931  0.00  0.00     0.084 A 
BRANCH  14  15
ATOM     15  O   UNL d   1      29.044 -16.327  -5.061  0.00  0.00    -0.350 OA
BRANCH  15  16
ATOM     16  C   UNL d   1      29.386 -15.148  -5.794  0.00  0.00     0.175 C 
BRANCH  16  17
ATOM     17  C   UNL d   1      28.045 -14.577  -6.242  0.00  0.00     0.026 C 
BRANCH  17  18
ATOM     18  C   UNL d   1      26.911 -15.055  -5.353  0.00  0.00    -0.002 C 
ATOM     19  C   UNL d   1      26.860 -14.225  -4.087  0.00  0.00     0.005 C 
ENDBRANCH  17  18
ENDBRANCH  16  17
ENDBRANCH  15  16
ENDBRANCH  14  15
ENDBRANCH   6   9
ENDBRANCH   3   5
ENDBRANCH   1   3
BRANCH   1  20
ATOM     20  N   UNL d   1      26.931 -16.387   0.273  0.00  0.00    -0.264 N 
ATOM     21  C   UNL d   1      26.127 -16.525  -0.851  0.00  0.00     0.270 C 
ATOM     22  O   UNL d   1      26.432 -16.167  -1.993  0.00  0.00    -0.266 OA
ATOM     23  H   UNL d   1      26.637 -16.771   1.172  0.00  0.00     0.190 HD
BRANCH  21  24
ATOM     24  C   UNL d   1      24.805 -17.185  -0.663  0.00  0.00     0.033 A 
ATOM     25  C   UNL d   1      24.682 -18.577  -0.484  0.00  0.00     0.019 A 
ATOM     26  C   UNL d   1      23.412 -19.181  -0.301  0.00  0.00     0.030 A 
ATOM     27  C   UNL d   1      22.258 -18.388  -0.250  0.00  0.00     0.034 A 
ATOM     28  C   UNL d   1      22.414 -17.021  -0.514  0.00  0.00     0.030 A 
ATOM     29  C   UNL d   1      23.654 -16.419  -0.717  0.00  0.00     0.019 A 
BRANCH  27  30
ATOM     30  N   UNL d   1      20.983 -18.944   0.094  0.00  0.00    -0.327 N 
ATOM     31  C   UNL d   1      20.132 -19.544  -0.833  0.00  0.00     0.221 C 
ATOM     32  O   UNL d   1      20.394 -19.702  -2.025  0.00  0.00    -0.273 OA
ATOM     33  H   UNL d   1      20.650 -18.804   1.042  0.00  0.00     0.169 HD
BRANCH  31  34
ATOM     34  C   UNL d   1      18.781 -20.024  -0.334  0.00  0.00     0.098 C 
ATOM     35  C   UNL d   1      18.950 -20.527   1.108  0.00  0.00     0.014 C 
ENDBRANCH  31  34
ENDBRANCH  27  30
ENDBRANCH  21  24
ENDBRANCH   1  20
TORSDOF 11
ENDMDL
MODEL 7
REMARK VINA RESULT:    -8.033      3.352      5.959
REMARK INTER + INTRA:         -14.520
REMARK INTER:                 -11.314
REMARK INTRA:                  -3.206
REMARK CONF_INDEPENDENT:        3.281
REMARK UNBOUND:                -3.206
REMARK  11 active torsions:
REMARK  status: ('A' for Active; 'I' for Inactive)
REMARK    1  A    between atoms: C_2  and  C_3 
REMARK    2  A    between atoms: C_3  and  C_4 
REMARK    3  A    between atoms: C_4  and  O_5 
REMARK    4  A    between atoms: O_5  and  C_6 
REMARK    5  A    between atoms: C_11  and  C_12 
REMARK       I    between atoms: C_12  and  N_14 
REMARK    6  A    between atoms: N_14  and  C_15 
REMARK    7  A    between atoms: C_15  and  N_17 
REMARK    8  A    between atoms: N_17  and  N_18 
REMARK       I    between atoms: N_18  and  C_19 
REMARK    9  A    between atoms: C_19  and  C_21 
REMARK   10  A    between atoms: C_24  and  N_25 
REMARK       I    between atoms: N_25  and  C_26 
REMARK   11  A    between atoms: C_26  and  C_28 
ROOT
ATOM      1  N   UNL d   1      28.568 -16.634  -1.424  0.00  0.00    -0.273 N 
ATOM      2  H   UNL d   1      29.327 -16.779  -0.762  0.00  0.00     0.189 HD
ENDROOT
BRANCH   1   3
ATOM      3  C   UNL d   1      28.711 -16.386  -2.808  0.00  0.00     0.193 C 
ATOM      4  S   UNL d   1      29.819 -17.294  -3.698  0.00  0.00    -0.039 SA
BRANCH   3   5
ATOM      5  N   UNL d   1      27.889 -15.361  -3.352  0.00  0.00    -0.298 N 
ATOM      6  C   UNL d   1      27.917 -14.882  -4.694  0.00  0.00     0.260 C 
ATOM      7  O   UNL d   1      28.336 -15.558  -5.633  0.00  0.00    -0.267 OA
ATOM      8  H   UNL d   1      27.362 -14.788  -2.707  0.00  0.00     0.171 HD
BRANCH   6   9
ATOM      9  C   UNL d   1      27.404 -13.509  -5.084  0.00  0.00     0.065 A 
ATOM     10  C   UNL d   1      27.779 -13.044  -6.377  0.00  0.00     0.020 A 
ATOM     11  C   UNL d   1      27.334 -11.825  -6.907  0.00  0.00     0.001 A 
ATOM     12  C   UNL d   1      26.491 -11.027  -6.152  0.00  0.00     0.003 A 
ATOM     13  C   UNL d   1      26.181 -11.414  -4.844  0.00  0.00     0.038 A 
ATOM     14  C   UNL d   1      26.643 -12.639  -4.300  0.00  0.00     0.084 A 
BRANCH  14  15
ATOM     15  O   UNL d   1      26.169 -12.931  -3.056  0.00  0.00    -0.350 OA
BRANCH  15  16
ATOM     16  C   UNL d   1      26.656 -12.125  -1.979  0.00  0.00     0.175 C 
BRANCH  16  17
ATOM     17  C   UNL d   1      28.016 -12.725  -1.640  0.00  0.00     0.026 C 
BRANCH  17  18
ATOM     18  C   UNL d   1      28.075 -13.190  -0.196  0.00  0.00    -0.002 C 
ATOM     19  C   UNL d   1      26.716 -13.032   0.454  0.00  0.00     0.005 C 
ENDBRANCH  17  18
ENDBRANCH  16  17
ENDBRANCH  15  16
ENDBRANCH  14  15
ENDBRANCH   6   9
ENDBRANCH   3   5
ENDBRANCH   1   3
BRANCH   1  20
ATOM     20  N   UNL d   1      27.263 -17.042  -0.912  0.00  0.00    -0.264 N 
ATOM     21  C   UNL d   1      26.099 -16.310  -1.107  0.00  0.00     0.270 C 
ATOM     22  O   UNL d   1      26.050 -15.142  -1.506  0.00  0.00    -0.266 OA
ATOM     23  H   UNL d   1      27.218 -18.026  -0.646  0.00  0.00     0.190 HD
BRANCH  21  24
ATOM     24  C   UNL d   1      24.808 -17.004  -0.840  0.00  0.00     0.033 A 
ATOM     25  C   UNL d   1      24.753 -18.351  -0.432  0.00  0.00     0.019 A 
ATOM     26  C   UNL d   1      23.512 -18.989  -0.179  0.00  0.00     0.030 A 
ATOM     27  C   UNL d   1      22.317 -18.267  -0.289  0.00  0.00     0.034 A 
ATOM     28  C   UNL d   1      22.408 -16.957  -0.777  0.00  0.00     0.030 A 
ATOM     29  C   UNL d   1      23.621 -16.326  -1.050  0.00  0.00     0.019 A 
BRANCH  27  30
ATOM     30  N   UNL d   1      21.063 -18.830   0.114  0.00  0.00    -0.327 N 
ATOM     31  C   UNL d   1      20.201 -19.490  -0.761  0.00  0.00     0.221 C 
ATOM     32  O   UNL d   1      20.435 -19.699  -1.950  0.00  0.00    -0.273 OA
ATOM     33  H   UNL d   1      20.751 -18.651   1.063  0.00  0.00     0.169 HD
BRANCH  31  34
ATOM     34  C   UNL d   1      18.873 -19.972  -0.204  0.00  0.00     0.098 C 
ATOM     35  C   UNL d   1      19.139 -21.191   0.691  0.00  0.00     0.014 C 
ENDBRANCH  31  34
ENDBRANCH  27  30
ENDBRANCH  21  24
ENDBRANCH   1  20
TORSDOF 11
ENDMDL
MODEL 8
REMARK VINA RESULT:    -8.033      4.256      6.457
REMARK INTER + INTRA:         -14.433
REMARK INTER:                 -11.314
REMARK INTRA:                  -3.119
REMARK CONF_INDEPENDENT:        3.281
REMARK UNBOUND:                -3.119
REMARK  11 active torsions:
REMARK  status: ('A' for Active; 'I' for Inactive)
REMARK    1  A    between atoms: C_2  and  C_3 
REMARK    2  A    between atoms: C_3  and  C_4 
REMARK    3  A    between atoms: C_4  and  O_5 
REMARK    4  A    between atoms: O_5  and  C_6 
REMARK    5  A    between atoms: C_11  and  C_12 
REMARK       I    between atoms: C_12  and  N_14 
REMARK    6  A    between atoms: N_14  and  C_15 
REMARK    7  A    between atoms: C_15  and  N_17 
REMARK    8  A    between atoms: N_17  and  N_18 
REMARK       I    between atoms: N_18  and  C_19 
REMARK    9  A    between atoms: C_19  and  C_21 
REMARK   10  A    between atoms: C_24  and  N_25 
REMARK       I    between atoms: N_25  and  C_26 
REMARK   11  A    between atoms: C_26  and  C_28 
ROOT
ATOM      1  N   UNL d   1      29.926 -16.959  -0.142  0.00  0.00    -0.273 N 
ATOM      2  H   UNL d   1      30.311 -17.828   0.220  0.00  0.00     0.189 HD
ENDROOT
BRANCH   1   3
ATOM      3  C   UNL d   1      30.600 -16.038  -0.978  0.00  0.00     0.193 C 
ATOM      4  S   UNL d   1      32.227 -15.702  -0.688  0.00  0.00    -0.039 SA
BRANCH   3   5
ATOM      5  N   UNL d   1      29.830 -15.454  -2.021  0.00  0.00    -0.298 N 
ATOM      6  C   UNL d   1      28.988 -14.309  -1.905  0.00  0.00     0.260 C 
ATOM      7  O   UNL d   1      29.145 -13.452  -1.036  0.00  0.00    -0.267 OA
ATOM      8  H   UNL d   1      29.714 -15.983  -2.873  0.00  0.00     0.171 HD
BRANCH   6   9
ATOM      9  C   UNL d   1      27.847 -14.033  -2.865  0.00  0.00     0.065 A 
ATOM     10  C   UNL d   1      26.948 -12.995  -2.487  0.00  0.00     0.020 A 
ATOM     11  C   UNL d   1      25.881 -12.579  -3.296  0.00  0.00     0.001 A 
ATOM     12  C   UNL d   1      25.680 -13.195  -4.520  0.00  0.00     0.003 A 
ATOM     13  C   UNL d   1      26.490 -14.278  -4.875  0.00  0.00     0.038 A 
ATOM     14  C   UNL d   1      27.560 -14.711  -4.052  0.00  0.00     0.084 A 
BRANCH  14  15
ATOM     15  O   UNL d   1      28.327 -15.706  -4.581  0.00  0.00    -0.350 OA
BRANCH  15  16
ATOM     16  C   UNL d   1      29.560 -15.311  -5.186  0.00  0.00     0.175 C 
BRANCH  16  17
ATOM     17  C   UNL d   1      29.847 -16.401  -6.213  0.00  0.00     0.026 C 
BRANCH  17  18
ATOM     18  C   UNL d   1      30.925 -17.354  -5.727  0.00  0.00    -0.002 C 
ATOM     19  C   UNL d   1      30.937 -18.602  -6.586  0.00  0.00     0.005 C 
ENDBRANCH  17  18
ENDBRANCH  16  17
ENDBRANCH  15  16
ENDBRANCH  14  15
ENDBRANCH   6   9
ENDBRANCH   3   5
ENDBRANCH   1   3
BRANCH   1  20
ATOM     20  N   UNL d   1      28.474 -16.869  -0.022  0.00  0.00    -0.264 N 
ATOM     21  C   UNL d   1      27.602 -17.048  -1.088  0.00  0.00     0.270 C 
ATOM     22  O   UNL d   1      27.927 -17.059  -2.280  0.00  0.00    -0.266 OA
ATOM     23  H   UNL d   1      28.139 -16.942   0.940  0.00  0.00     0.190 HD
BRANCH  21  24
ATOM     24  C   UNL d   1      26.166 -17.275  -0.761  0.00  0.00     0.033 A 
ATOM     25  C   UNL d   1      25.130 -16.593  -1.428  0.00  0.00     0.019 A 
ATOM     26  C   UNL d   1      23.770 -16.829  -1.102  0.00  0.00     0.030 A 
ATOM     27  C   UNL d   1      23.437 -17.787  -0.135  0.00  0.00     0.034 A 
ATOM     28  C   UNL d   1      24.497 -18.381   0.563  0.00  0.00     0.030 A 
ATOM     29  C   UNL d   1      25.837 -18.140   0.266  0.00  0.00     0.019 A 
BRANCH  27  30
ATOM     30  N   UNL d   1      22.076 -18.167   0.104  0.00  0.00    -0.327 N 
ATOM     31  C   UNL d   1      21.311 -18.893  -0.808  0.00  0.00     0.221 C 
ATOM     32  O   UNL d   1      21.725 -19.324  -1.884  0.00  0.00    -0.273 OA
ATOM     33  H   UNL d   1      21.626 -17.801   0.936  0.00  0.00     0.169 HD
BRANCH  31  34
ATOM     34  C   UNL d   1      19.861 -19.160  -0.448  0.00  0.00     0.098 C 
ATOM     35  C   UNL d   1      19.813 -19.716   0.983  0.00  0.00     0.014 C 
ENDBRANCH  31  34
ENDBRANCH  27  30
ENDBRANCH  21  24
ENDBRANCH   1  20
TORSDOF 11
ENDMDL
MODEL 9
REMARK VINA RESULT:    -7.780      3.516      5.212
REMARK INTER + INTRA:         -14.137
REMARK INTER:                 -11.062
REMARK INTRA:                  -3.075
REMARK CONF_INDEPENDENT:        3.281
REMARK UNBOUND:                -3.075
REMARK  11 active torsions:
REMARK  status: ('A' for Active; 'I' for Inactive)
REMARK    1  A    between atoms: C_2  and  C_3 
REMARK    2  A    between atoms: C_3  and  C_4 
REMARK    3  A    between atoms: C_4  and  O_5 
REMARK    4  A    between atoms: O_5  and  C_6 
REMARK    5  A    between atoms: C_11  and  C_12 
REMARK       I    between atoms: C_12  and  N_14 
REMARK    6  A    between atoms: N_14  and  C_15 
REMARK    7  A    between atoms: C_15  and  N_17 
REMARK    8  A    between atoms: N_17  and  N_18 
REMARK       I    between atoms: N_18  and  C_19 
REMARK    9  A    between atoms: C_19  and  C_21 
REMARK   10  A    between atoms: C_24  and  N_25 
REMARK       I    between atoms: N_25  and  C_26 
REMARK   11  A    between atoms: C_26  and  C_28 
ROOT
ATOM      1  N   UNL d   1      28.339 -15.938   0.165  0.00  0.00    -0.273 N 
ATOM      2  H   UNL d   1      28.877 -16.077   1.017  0.00  0.00     0.189 HD
ENDROOT
BRANCH   1   3
ATOM      3  C   UNL d   1      28.873 -15.720  -1.126  0.00  0.00     0.193 C 
ATOM      4  S   UNL d   1      29.900 -16.877  -1.799  0.00  0.00    -0.039 SA
BRANCH   3   5
ATOM      5  N   UNL d   1      28.493 -14.510  -1.768  0.00  0.00    -0.298 N 
ATOM      6  C   UNL d   1      28.616 -13.196  -1.230  0.00  0.00     0.260 C 
ATOM      7  O   UNL d   1      29.432 -12.910  -0.354  0.00  0.00    -0.267 OA
ATOM      8  H   UNL d   1      27.921 -14.577  -2.599  0.00  0.00     0.171 HD
BRANCH   6   9
ATOM      9  C   UNL d   1      27.775 -12.031  -1.714  0.00  0.00     0.065 A 
ATOM     10  C   UNL d   1      27.882 -10.827  -0.962  0.00  0.00     0.020 A 
ATOM     11  C   UNL d   1      27.217  -9.644  -1.317  0.00  0.00     0.001 A 
ATOM     12  C   UNL d   1      26.418  -9.632  -2.449  0.00  0.00     0.003 A 
ATOM     13  C   UNL d   1      26.221 -10.825  -3.153  0.00  0.00     0.038 A 
ATOM     14  C   UNL d   1      26.880 -12.025  -2.786  0.00  0.00     0.084 A 
BRANCH  14  15
ATOM     15  O   UNL d   1      26.676 -13.075  -3.631  0.00  0.00    -0.350 OA
BRANCH  15  16
ATOM     16  C   UNL d   1      26.631 -12.774  -5.028  0.00  0.00     0.175 C 
BRANCH  16  17
ATOM     17  C   UNL d   1      27.521 -13.830  -5.674  0.00  0.00     0.026 C 
BRANCH  17  18
ATOM     18  C   UNL d   1      27.366 -15.180  -4.996  0.00  0.00    -0.002 C 
ATOM     19  C   UNL d   1      25.904 -15.576  -4.962  0.00  0.00     0.005 C 
ENDBRANCH  17  18
ENDBRANCH  16  17
ENDBRANCH  15  16
ENDBRANCH  14  15
ENDBRANCH   6   9
ENDBRANCH   3   5
ENDBRANCH   1   3
BRANCH   1  20
ATOM     20  N   UNL d   1      26.936 -16.318   0.293  0.00  0.00    -0.264 N 
ATOM     21  C   UNL d   1      26.024 -16.252  -0.752  0.00  0.00     0.270 C 
ATOM     22  O   UNL d   1      26.205 -15.655  -1.818  0.00  0.00    -0.266 OA
ATOM     23  H   UNL d   1      26.742 -16.890   1.116  0.00  0.00     0.190 HD
BRANCH  21  24
ATOM     24  C   UNL d   1      24.740 -16.988  -0.580  0.00  0.00     0.033 A 
ATOM     25  C   UNL d   1      24.700 -18.365  -0.283  0.00  0.00     0.019 A 
ATOM     26  C   UNL d   1      23.466 -19.042  -0.119  0.00  0.00     0.030 A 
ATOM     27  C   UNL d   1      22.260 -18.334  -0.204  0.00  0.00     0.034 A 
ATOM     28  C   UNL d   1      22.339 -16.987  -0.582  0.00  0.00     0.030 A 
ATOM     29  C   UNL d   1      23.546 -16.316  -0.768  0.00  0.00     0.019 A 
BRANCH  27  30
ATOM     30  N   UNL d   1      21.006 -18.950   0.116  0.00  0.00    -0.327 N 
ATOM     31  C   UNL d   1      20.193 -19.572  -0.830  0.00  0.00     0.221 C 
ATOM     32  O   UNL d   1      20.475 -19.701  -2.021  0.00  0.00    -0.273 OA
ATOM     33  H   UNL d   1      20.657 -18.838   1.062  0.00  0.00     0.169 HD
BRANCH  31  34
ATOM     34  C   UNL d   1      18.858 -20.117  -0.355  0.00  0.00     0.098 C 
ATOM     35  C   UNL d   1      19.026 -20.611   1.091  0.00  0.00     0.014 C 
ENDBRANCH  31  34
ENDBRANCH  27  30
ENDBRANCH  21  24
ENDBRANCH   1  20
TORSDOF 11
ENDMDL
