MODEL 1
REMARK VINA RESULT:   -10.028      0.000      0.000
REMARK INTER + INTRA:         -13.642
REMARK INTER:                 -12.414
REMARK INTRA:                  -1.228
REMARK CONF_INDEPENDENT:        2.386
REMARK UNBOUND:                -1.228
REMARK  8 active torsions:
REMARK  status: ('A' for Active; 'I' for Inactive)
REMARK    1  A    between atoms: C_3  and  C_4 
REMARK    2  A    between atoms: C_4  and  C_5 
REMARK       I    between atoms: C_5  and  N_7 
REMARK    3  A    between atoms: N_7  and  C_8 
REMARK    4  A    between atoms: C_9  and  C_8 
REMARK    5  A    between atoms: C_9  and  C_11 
REMARK    6  A    between atoms: C_9  and  O_10 
REMARK    7  A    between atoms: C_22  and  O_23 
REMARK    8  A    between atoms: C_25  and  O_26 
ROOT
ATOM      1  C   UNL d   1      27.653 -16.731  -1.261  0.00  0.00     0.050 C 
ATOM      2  C   UNL d   1      26.825 -15.959  -2.273  0.00  0.00    -0.034 A 
ATOM      3  C   UNL d   1      25.530 -15.589  -2.074  0.00  0.00     0.033 A 
ATOM      4  C   UNL d   1      24.809 -14.818  -3.148  0.00  0.00     0.295 A 
ATOM      5  O   UNL d   1      23.667 -14.389  -3.139  0.00  0.00    -0.259 OA
ATOM      6  O   UNL d   1      25.468 -14.530  -4.302  0.00  0.00    -0.274 OA
ATOM      7  C   UNL d   1      26.775 -14.897  -4.498  0.00  0.00     0.095 A 
ATOM      8  C   UNL d   1      27.252 -14.484  -5.736  0.00  0.00     0.075 A 
ATOM      9  C   UNL d   1      28.548 -14.797  -6.054  0.00  0.00     0.071 A 
ATOM     10  C   UNL d   1      29.337 -15.504  -5.154  0.00  0.00     0.074 A 
ATOM     11  C   UNL d   1      28.817 -15.901  -3.911  0.00  0.00     0.082 A 
ATOM     12  C   UNL d   1      27.502 -15.602  -3.546  0.00  0.00     0.038 A 
ENDROOT
BRANCH   3  13
ATOM     13  C   UNL d   1      24.821 -15.953  -0.780  0.00  0.00     0.148 C 
BRANCH  13  14
ATOM     14  C   UNL d   1      24.256 -17.368  -0.604  0.00  0.00     0.222 C 
ATOM     15  O   UNL d   1      24.686 -18.428  -1.024  0.00  0.00    -0.273 OA
ATOM     16  N   UNL d   1      23.084 -17.447   0.078  0.00  0.00    -0.358 N 
ATOM     17  H   UNL d   1      22.519 -16.625  -0.059  0.00  0.00     0.162 HD
BRANCH  16  18
ATOM     18  C   UNL d   1      22.449 -18.764   0.088  0.00  0.00     0.159 C 
BRANCH  18  19
ATOM     19  C   UNL d   1      21.150 -18.892  -0.717  0.00  0.00     0.169 C 
BRANCH  19  20
ATOM     20  C   UNL d   1      20.043 -19.563   0.081  0.00  0.00    -0.028 C 
ATOM     21  C   UNL d   1      20.169 -19.806   1.448  0.00  0.00     0.010 C 
ATOM     22  C   UNL d   1      19.193 -20.531   2.125  0.00  0.00     0.001 C 
ATOM     23  C   UNL d   1      18.113 -21.080   1.437  0.00  0.00     0.000 C 
ATOM     24  C   UNL d   1      17.964 -20.844   0.078  0.00  0.00     0.001 C 
ATOM     25  C   UNL d   1      18.869 -20.010  -0.565  0.00  0.00     0.010 C 
ENDBRANCH  19  20
BRANCH  19  26
ATOM     26  O   UNL d   1      20.761 -17.578  -1.143  0.00  0.00    -0.389 OA
ATOM     27  H   UNL d   1      19.793 -17.585  -1.262  0.00  0.00     0.210 HD
ENDBRANCH  19  26
ENDBRANCH  18  19
ENDBRANCH  16  18
ENDBRANCH  13  14
ENDBRANCH   3  13
BRANCH  11  28
ATOM     28  O   UNL d   1      29.627 -16.595  -3.056  0.00  0.00    -0.360 OA
ATOM     29  H   UNL d   1      29.182 -17.396  -2.743  0.00  0.00     0.217 HD
ENDBRANCH  11  28
BRANCH   9  30
ATOM     30  O   UNL d   1      29.081 -14.427  -7.249  0.00  0.00    -0.361 OA
ATOM     31  H   UNL d   1      28.968 -15.161  -7.879  0.00  0.00     0.217 HD
ENDBRANCH   9  30
TORSDOF 8
ENDMDL
MODEL 2
REMARK VINA RESULT:   -10.021      0.952      2.372
REMARK INTER + INTRA:         -13.625
REMARK INTER:                 -12.408
REMARK INTRA:                  -1.218
REMARK CONF_INDEPENDENT:        2.386
REMARK UNBOUND:                -1.218
REMARK  8 active torsions:
REMARK  status: ('A' for Active; 'I' for Inactive)
REMARK    1  A    between atoms: C_3  and  C_4 
REMARK    2  A    between atoms: C_4  and  C_5 
REMARK       I    between atoms: C_5  and  N_7 
REMARK    3  A    between atoms: N_7  and  C_8 
REMARK    4  A    between atoms: C_9  and  C_8 
REMARK    5  A    between atoms: C_9  and  C_11 
REMARK    6  A    between atoms: C_9  and  O_10 
REMARK    7  A    between atoms: C_22  and  O_23 
REMARK    8  A    between atoms: C_25  and  O_26 
ROOT
ATOM      1  C   UNL d   1      24.179 -15.207  -2.320  0.00  0.00     0.050 C 
ATOM      2  C   UNL d   1      25.636 -15.634  -2.281  0.00  0.00    -0.034 A 
ATOM      3  C   UNL d   1      26.188 -16.369  -1.277  0.00  0.00     0.033 A 
ATOM      4  C   UNL d   1      27.645 -16.740  -1.348  0.00  0.00     0.295 A 
ATOM      5  O   UNL d   1      28.300 -17.404  -0.561  0.00  0.00    -0.259 OA
ATOM      6  O   UNL d   1      28.379 -16.309  -2.407  0.00  0.00    -0.274 OA
ATOM      7  C   UNL d   1      27.821 -15.574  -3.422  0.00  0.00     0.095 A 
ATOM      8  C   UNL d   1      28.747 -15.259  -4.409  0.00  0.00     0.075 A 
ATOM      9  C   UNL d   1      28.311 -14.520  -5.478  0.00  0.00     0.071 A 
ATOM     10  C   UNL d   1      26.984 -14.110  -5.548  0.00  0.00     0.074 A 
ATOM     11  C   UNL d   1      26.079 -14.451  -4.530  0.00  0.00     0.082 A 
ATOM     12  C   UNL d   1      26.481 -15.204  -3.424  0.00  0.00     0.038 A 
ENDROOT
BRANCH   3  13
ATOM     13  C   UNL d   1      25.338 -16.810  -0.096  0.00  0.00     0.148 C 
BRANCH  13  14
ATOM     14  C   UNL d   1      24.484 -18.079  -0.214  0.00  0.00     0.222 C 
ATOM     15  O   UNL d   1      24.825 -19.246  -0.146  0.00  0.00    -0.273 OA
ATOM     16  N   UNL d   1      23.168 -17.873  -0.478  0.00  0.00    -0.358 N 
ATOM     17  H   UNL d   1      23.025 -17.042  -1.027  0.00  0.00     0.162 HD
BRANCH  16  18
ATOM     18  C   UNL d   1      22.390 -19.075  -0.774  0.00  0.00     0.159 C 
BRANCH  18  19
ATOM     19  C   UNL d   1      20.916 -18.852  -1.133  0.00  0.00     0.169 C 
BRANCH  19  20
ATOM     20  C   UNL d   1      19.975 -19.457  -0.103  0.00  0.00    -0.028 C 
ATOM     21  C   UNL d   1      20.282 -19.460   1.257  0.00  0.00     0.010 C 
ATOM     22  C   UNL d   1      19.461 -20.129   2.161  0.00  0.00     0.001 C 
ATOM     23  C   UNL d   1      18.362 -20.857   1.714  0.00  0.00     0.000 C 
ATOM     24  C   UNL d   1      18.033 -20.861   0.366  0.00  0.00     0.001 C 
ATOM     25  C   UNL d   1      18.777 -20.085  -0.512  0.00  0.00     0.010 C 
ENDBRANCH  19  20
BRANCH  19  26
ATOM     26  O   UNL d   1      20.701 -17.439  -1.268  0.00  0.00    -0.389 OA
ATOM     27  H   UNL d   1      20.094 -17.308  -2.020  0.00  0.00     0.210 HD
ENDBRANCH  19  26
ENDBRANCH  18  19
ENDBRANCH  16  18
ENDBRANCH  13  14
ENDBRANCH   3  13
BRANCH  11  28
ATOM     28  O   UNL d   1      24.784 -14.027  -4.639  0.00  0.00    -0.360 OA
ATOM     29  H   UNL d   1      24.629 -13.629  -5.509  0.00  0.00     0.217 HD
ENDBRANCH  11  28
BRANCH   9  30
ATOM     30  O   UNL d   1      29.163 -14.173  -6.479  0.00  0.00    -0.361 OA
ATOM     31  H   UNL d   1      29.533 -13.294  -6.281  0.00  0.00     0.217 HD
ENDBRANCH   9  30
TORSDOF 8
ENDMDL
MODEL 3
REMARK VINA RESULT:    -9.138      1.047      1.571
REMARK INTER + INTRA:         -12.704
REMARK INTER:                 -11.525
REMARK INTRA:                  -1.179
REMARK CONF_INDEPENDENT:        2.386
REMARK UNBOUND:                -1.179
REMARK  8 active torsions:
REMARK  status: ('A' for Active; 'I' for Inactive)
REMARK    1  A    between atoms: C_3  and  C_4 
REMARK    2  A    between atoms: C_4  and  C_5 
REMARK       I    between atoms: C_5  and  N_7 
REMARK    3  A    between atoms: N_7  and  C_8 
REMARK    4  A    between atoms: C_9  and  C_8 
REMARK    5  A    between atoms: C_9  and  C_11 
REMARK    6  A    between atoms: C_9  and  O_10 
REMARK    7  A    between atoms: C_22  and  O_23 
REMARK    8  A    between atoms: C_25  and  O_26 
ROOT
ATOM      1  C   UNL d   1      28.329 -16.398  -1.181  0.00  0.00     0.050 C 
ATOM      2  C   UNL d   1      27.739 -15.958  -2.509  0.00  0.00    -0.034 A 
ATOM      3  C   UNL d   1      26.444 -15.570  -2.676  0.00  0.00     0.033 A 
ATOM      4  C   UNL d   1      25.970 -15.148  -4.041  0.00  0.00     0.295 A 
ATOM      5  O   UNL d   1      24.864 -14.754  -4.374  0.00  0.00    -0.259 OA
ATOM      6  O   UNL d   1      26.846 -15.186  -5.079  0.00  0.00    -0.274 OA
ATOM      7  C   UNL d   1      28.152 -15.570  -4.909  0.00  0.00     0.095 A 
ATOM      8  C   UNL d   1      28.871 -15.515  -6.096  0.00  0.00     0.075 A 
ATOM      9  C   UNL d   1      30.192 -15.882  -6.058  0.00  0.00     0.071 A 
ATOM     10  C   UNL d   1      30.767 -16.291  -4.861  0.00  0.00     0.074 A 
ATOM     11  C   UNL d   1      30.007 -16.330  -3.681  0.00  0.00     0.082 A 
ATOM     12  C   UNL d   1      28.658 -15.964  -3.676  0.00  0.00     0.038 A 
ENDROOT
BRANCH   3  13
ATOM     13  C   UNL d   1      25.489 -15.566  -1.494  0.00  0.00     0.148 C 
BRANCH  13  14
ATOM     14  C   UNL d   1      24.825 -16.879  -1.058  0.00  0.00     0.222 C 
ATOM     15  O   UNL d   1      25.271 -18.012  -1.078  0.00  0.00    -0.273 OA
ATOM     16  N   UNL d   1      23.540 -16.769  -0.632  0.00  0.00    -0.358 N 
ATOM     17  H   UNL d   1      23.058 -16.018  -1.098  0.00  0.00     0.162 HD
BRANCH  16  18
ATOM     18  C   UNL d   1      22.846 -18.033  -0.393  0.00  0.00     0.159 C 
BRANCH  18  19
ATOM     19  C   UNL d   1      21.488 -18.197  -1.087  0.00  0.00     0.169 C 
BRANCH  19  20
ATOM     20  C   UNL d   1      20.548 -19.103  -0.307  0.00  0.00    -0.028 C 
ATOM     21  C   UNL d   1      19.433 -19.690  -0.903  0.00  0.00     0.010 C 
ATOM     22  C   UNL d   1      18.525 -20.412  -0.136  0.00  0.00     0.001 C 
ATOM     23  C   UNL d   1      18.680 -20.504   1.245  0.00  0.00     0.000 C 
ATOM     24  C   UNL d   1      19.786 -19.935   1.859  0.00  0.00     0.001 C 
ATOM     25  C   UNL d   1      20.757 -19.329   1.072  0.00  0.00     0.010 C 
ENDBRANCH  19  20
BRANCH  19  26
ATOM     26  O   UNL d   1      20.921 -16.891  -1.269  0.00  0.00    -0.389 OA
ATOM     27  H   UNL d   1      19.961 -16.966  -1.113  0.00  0.00     0.210 HD
ENDBRANCH  19  26
ENDBRANCH  18  19
ENDBRANCH  16  18
ENDBRANCH  13  14
ENDBRANCH   3  13
BRANCH  11  28
ATOM     28  O   UNL d   1      30.612 -16.739  -2.526  0.00  0.00    -0.360 OA
ATOM     29  H   UNL d   1      30.607 -16.026  -1.869  0.00  0.00     0.217 HD
ENDBRANCH  11  28
BRANCH   9  30
ATOM     30  O   UNL d   1      30.955 -15.855  -7.183  0.00  0.00    -0.361 OA
ATOM     31  H   UNL d   1      30.826 -16.692  -7.664  0.00  0.00     0.217 HD
ENDBRANCH   9  30
TORSDOF 8
ENDMDL
MODEL 4
REMARK VINA RESULT:    -8.676      6.305      9.826
REMARK INTER + INTRA:         -12.435
REMARK INTER:                 -11.062
REMARK INTRA:                  -1.373
REMARK CONF_INDEPENDENT:        2.386
REMARK UNBOUND:                -1.373
REMARK  8 active torsions:
REMARK  status: ('A' for Active; 'I' for Inactive)
REMARK    1  A    between atoms: C_3  and  C_4 
REMARK    2  A    between atoms: C_4  and  C_5 
REMARK       I    between atoms: C_5  and  N_7 
REMARK    3  A    between atoms: N_7  and  C_8 
REMARK    4  A    between atoms: C_9  and  C_8 
REMARK    5  A    between atoms: C_9  and  C_11 
REMARK    6  A    between atoms: C_9  and  O_10 
REMARK    7  A    between atoms: C_22  and  O_23 
REMARK    8  A    between atoms: C_25  and  O_26 
ROOT
ATOM      1  C   UNL d   1      33.672 -20.631   1.534  0.00  0.00     0.050 C 
ATOM      2  C   UNL d   1      32.254 -21.073   1.850  0.00  0.00    -0.034 A 
ATOM      3  C   UNL d   1      31.320 -21.371   0.905  0.00  0.00     0.033 A 
ATOM      4  C   UNL d   1      29.945 -21.805   1.337  0.00  0.00     0.295 A 
ATOM      5  O   UNL d   1      28.996 -22.128   0.642  0.00  0.00    -0.259 OA
ATOM      6  O   UNL d   1      29.665 -21.868   2.666  0.00  0.00    -0.274 OA
ATOM      7  C   UNL d   1      30.609 -21.575   3.618  0.00  0.00     0.095 A 
ATOM      8  C   UNL d   1      30.114 -21.724   4.907  0.00  0.00     0.075 A 
ATOM      9  C   UNL d   1      30.962 -21.454   5.950  0.00  0.00     0.071 A 
ATOM     10  C   UNL d   1      32.267 -21.046   5.699  0.00  0.00     0.074 A 
ATOM     11  C   UNL d   1      32.730 -20.910   4.381  0.00  0.00     0.082 A 
ATOM     12  C   UNL d   1      31.899 -21.176   3.289  0.00  0.00     0.038 A 
ENDROOT
BRANCH   3  13
ATOM     13  C   UNL d   1      31.665 -21.263  -0.571  0.00  0.00     0.148 C 
BRANCH  13  14
ATOM     14  C   UNL d   1      31.092 -20.102  -1.395  0.00  0.00     0.222 C 
ATOM     15  O   UNL d   1      31.171 -19.896  -2.594  0.00  0.00    -0.273 OA
ATOM     16  N   UNL d   1      30.445 -19.145  -0.683  0.00  0.00    -0.358 N 
ATOM     17  H   UNL d   1      30.831 -19.045   0.241  0.00  0.00     0.162 HD
BRANCH  16  18
ATOM     18  C   UNL d   1      30.062 -17.951  -1.436  0.00  0.00     0.159 C 
BRANCH  18  19
ATOM     19  C   UNL d   1      29.457 -16.804  -0.617  0.00  0.00     0.169 C 
BRANCH  19  20
ATOM     20  C   UNL d   1      27.976 -17.011  -0.343  0.00  0.00    -0.028 C 
ATOM     21  C   UNL d   1      27.490 -18.201   0.197  0.00  0.00     0.010 C 
ATOM     22  C   UNL d   1      26.119 -18.408   0.321  0.00  0.00     0.001 C 
ATOM     23  C   UNL d   1      25.215 -17.459  -0.149  0.00  0.00     0.000 C 
ATOM     24  C   UNL d   1      25.676 -16.264  -0.682  0.00  0.00     0.001 C 
ATOM     25  C   UNL d   1      27.041 -16.007  -0.682  0.00  0.00     0.010 C 
ENDBRANCH  19  20
BRANCH  19  26
ATOM     26  O   UNL d   1      30.202 -16.690   0.605  0.00  0.00    -0.389 OA
ATOM     27  H   UNL d   1      30.335 -17.592   0.950  0.00  0.00     0.210 HD
ENDBRANCH  19  26
ENDBRANCH  18  19
ENDBRANCH  16  18
ENDBRANCH  13  14
ENDBRANCH   3  13
BRANCH  11  28
ATOM     28  O   UNL d   1      34.021 -20.505   4.180  0.00  0.00    -0.360 OA
ATOM     29  H   UNL d   1      34.572 -21.254   3.906  0.00  0.00     0.217 HD
ENDBRANCH  11  28
BRANCH   9  30
ATOM     30  O   UNL d   1      30.543 -21.577   7.237  0.00  0.00    -0.361 OA
ATOM     31  H   UNL d   1      29.965 -22.358   7.302  0.00  0.00     0.217 HD
ENDBRANCH   9  30
TORSDOF 8
ENDMDL
MODEL 5
REMARK VINA RESULT:    -8.566      3.285      8.890
REMARK INTER + INTRA:         -11.849
REMARK INTER:                 -10.953
REMARK INTRA:                  -0.896
REMARK CONF_INDEPENDENT:        2.386
REMARK UNBOUND:                -0.896
REMARK  8 active torsions:
REMARK  status: ('A' for Active; 'I' for Inactive)
REMARK    1  A    between atoms: C_3  and  C_4 
REMARK    2  A    between atoms: C_4  and  C_5 
REMARK       I    between atoms: C_5  and  N_7 
REMARK    3  A    between atoms: N_7  and  C_8 
REMARK    4  A    between atoms: C_9  and  C_8 
REMARK    5  A    between atoms: C_9  and  C_11 
REMARK    6  A    between atoms: C_9  and  O_10 
REMARK    7  A    between atoms: C_22  and  O_23 
REMARK    8  A    between atoms: C_25  and  O_26 
ROOT
ATOM      1  C   UNL d   1      28.207 -16.696  -1.424  0.00  0.00     0.050 C 
ATOM      2  C   UNL d   1      26.817 -16.231  -1.820  0.00  0.00    -0.034 A 
ATOM      3  C   UNL d   1      26.572 -15.267  -2.749  0.00  0.00     0.033 A 
ATOM      4  C   UNL d   1      25.149 -14.890  -3.066  0.00  0.00     0.295 A 
ATOM      5  O   UNL d   1      24.741 -14.073  -3.875  0.00  0.00    -0.259 OA
ATOM      6  O   UNL d   1      24.143 -15.511  -2.396  0.00  0.00    -0.274 OA
ATOM      7  C   UNL d   1      24.390 -16.488  -1.464  0.00  0.00     0.095 A 
ATOM      8  C   UNL d   1      23.218 -16.999  -0.921  0.00  0.00     0.075 A 
ATOM      9  C   UNL d   1      23.332 -17.980   0.029  0.00  0.00     0.071 A 
ATOM     10  C   UNL d   1      24.589 -18.431   0.418  0.00  0.00     0.074 A 
ATOM     11  C   UNL d   1      25.749 -17.891  -0.158  0.00  0.00     0.082 A 
ATOM     12  C   UNL d   1      25.677 -16.890  -1.131  0.00  0.00     0.038 A 
ENDROOT
BRANCH   3  13
ATOM     13  C   UNL d   1      27.727 -14.577  -3.458  0.00  0.00     0.148 C 
BRANCH  13  14
ATOM     14  C   UNL d   1      28.027 -14.923  -4.922  0.00  0.00     0.222 C 
ATOM     15  O   UNL d   1      27.301 -15.433  -5.757  0.00  0.00    -0.273 OA
ATOM     16  N   UNL d   1      29.295 -14.669  -5.333  0.00  0.00    -0.358 N 
ATOM     17  H   UNL d   1      29.956 -14.770  -4.581  0.00  0.00     0.162 HD
BRANCH  16  18
ATOM     18  C   UNL d   1      29.637 -15.166  -6.665  0.00  0.00     0.159 C 
BRANCH  18  19
ATOM     19  C   UNL d   1      30.962 -15.929  -6.779  0.00  0.00     0.169 C 
BRANCH  19  20
ATOM     20  C   UNL d   1      30.785 -17.425  -6.572  0.00  0.00    -0.028 C 
ATOM     21  C   UNL d   1      30.444 -17.957  -5.330  0.00  0.00     0.010 C 
ATOM     22  C   UNL d   1      30.409 -19.335  -5.141  0.00  0.00     0.001 C 
ATOM     23  C   UNL d   1      30.777 -20.200  -6.170  0.00  0.00     0.000 C 
ATOM     24  C   UNL d   1      31.112 -19.693  -7.417  0.00  0.00     0.001 C 
ATOM     25  C   UNL d   1      31.016 -18.324  -7.637  0.00  0.00     0.010 C 
ENDBRANCH  19  20
BRANCH  19  26
ATOM     26  O   UNL d   1      31.529 -15.645  -8.067  0.00  0.00    -0.389 OA
ATOM     27  H   UNL d   1      31.116 -14.824  -8.393  0.00  0.00     0.210 HD
ENDBRANCH  19  26
ENDBRANCH  18  19
ENDBRANCH  16  18
ENDBRANCH  13  14
ENDBRANCH   3  13
BRANCH  11  28
ATOM     28  O   UNL d   1      26.964 -18.363   0.254  0.00  0.00    -0.360 OA
ATOM     29  H   UNL d   1      27.498 -17.646   0.627  0.00  0.00     0.217 HD
ENDBRANCH  11  28
BRANCH   9  30
ATOM     30  O   UNL d   1      22.227 -18.523   0.606  0.00  0.00    -0.361 OA
ATOM     31  H   UNL d   1      22.345 -19.489   0.651  0.00  0.00     0.217 HD
ENDBRANCH   9  30
TORSDOF 8
ENDMDL
MODEL 6
REMARK VINA RESULT:    -8.345      1.549      2.291
REMARK INTER + INTRA:         -11.921
REMARK INTER:                 -10.731
REMARK INTRA:                  -1.190
REMARK CONF_INDEPENDENT:        2.386
REMARK UNBOUND:                -1.190
REMARK  8 active torsions:
REMARK  status: ('A' for Active; 'I' for Inactive)
REMARK    1  A    between atoms: C_3  and  C_4 
REMARK    2  A    between atoms: C_4  and  C_5 
REMARK       I    between atoms: C_5  and  N_7 
REMARK    3  A    between atoms: N_7  and  C_8 
REMARK    4  A    between atoms: C_9  and  C_8 
REMARK    5  A    between atoms: C_9  and  C_11 
REMARK    6  A    between atoms: C_9  and  O_10 
REMARK    7  A    between atoms: C_22  and  O_23 
REMARK    8  A    between atoms: C_25  and  O_26 
ROOT
ATOM      1  C   UNL d   1      27.017 -16.700   0.044  0.00  0.00     0.050 C 
ATOM      2  C   UNL d   1      27.087 -16.265  -1.409  0.00  0.00    -0.034 A 
ATOM      3  C   UNL d   1      26.025 -15.783  -2.113  0.00  0.00     0.033 A 
ATOM      4  C   UNL d   1      26.215 -15.376  -3.550  0.00  0.00     0.295 A 
ATOM      5  O   UNL d   1      25.394 -14.909  -4.323  0.00  0.00    -0.259 OA
ATOM      6  O   UNL d   1      27.442 -15.522  -4.115  0.00  0.00    -0.274 OA
ATOM      7  C   UNL d   1      28.513 -16.001  -3.403  0.00  0.00     0.095 A 
ATOM      8  C   UNL d   1      29.671 -16.047  -4.171  0.00  0.00     0.075 A 
ATOM      9  C   UNL d   1      30.812 -16.515  -3.573  0.00  0.00     0.071 A 
ATOM     10  C   UNL d   1      30.786 -16.923  -2.244  0.00  0.00     0.074 A 
ATOM     11  C   UNL d   1      29.596 -16.858  -1.502  0.00  0.00     0.082 A 
ATOM     12  C   UNL d   1      28.410 -16.387  -2.073  0.00  0.00     0.038 A 
ENDROOT
BRANCH   3  13
ATOM     13  C   UNL d   1      24.662 -15.660  -1.451  0.00  0.00     0.148 C 
BRANCH  13  14
ATOM     14  C   UNL d   1      23.785 -16.909  -1.296  0.00  0.00     0.222 C 
ATOM     15  O   UNL d   1      24.050 -18.072  -1.542  0.00  0.00    -0.273 OA
ATOM     16  N   UNL d   1      22.517 -16.681  -0.867  0.00  0.00    -0.358 N 
ATOM     17  H   UNL d   1      22.177 -15.785  -1.175  0.00  0.00     0.162 HD
BRANCH  16  18
ATOM     18  C   UNL d   1      21.625 -17.839  -0.895  0.00  0.00     0.159 C 
BRANCH  18  19
ATOM     19  C   UNL d   1      21.814 -18.861   0.233  0.00  0.00     0.169 C 
BRANCH  19  20
ATOM     20  C   UNL d   1      20.536 -19.628   0.534  0.00  0.00    -0.028 C 
ATOM     21  C   UNL d   1      19.623 -19.952  -0.468  0.00  0.00     0.010 C 
ATOM     22  C   UNL d   1      18.405 -20.545  -0.145  0.00  0.00     0.001 C 
ATOM     23  C   UNL d   1      18.055 -20.762   1.186  0.00  0.00     0.000 C 
ATOM     24  C   UNL d   1      18.952 -20.454   2.199  0.00  0.00     0.001 C 
ATOM     25  C   UNL d   1      20.216 -19.987   1.862  0.00  0.00     0.010 C 
ENDBRANCH  19  20
BRANCH  19  26
ATOM     26  O   UNL d   1      22.877 -19.749  -0.145  0.00  0.00    -0.389 OA
ATOM     27  H   UNL d   1      23.711 -19.356   0.172  0.00  0.00     0.210 HD
ENDBRANCH  19  26
ENDBRANCH  18  19
ENDBRANCH  16  18
ENDBRANCH  13  14
ENDBRANCH   3  13
BRANCH  11  28
ATOM     28  O   UNL d   1      29.615 -17.270  -0.198  0.00  0.00    -0.360 OA
ATOM     29  H   UNL d   1      29.870 -18.203  -0.141  0.00  0.00     0.217 HD
ENDBRANCH  11  28
BRANCH   9  30
ATOM     30  O   UNL d   1      31.980 -16.590  -4.264  0.00  0.00    -0.361 OA
ATOM     31  H   UNL d   1      32.696 -16.245  -3.702  0.00  0.00     0.217 HD
ENDBRANCH   9  30
TORSDOF 8
ENDMDL
