MODEL 1
REMARK VINA RESULT:    -7.919      0.000      0.000
REMARK INTER + INTRA:         -10.503
REMARK INTER:                  -9.112
REMARK INTRA:                  -1.391
REMARK CONF_INDEPENDENT:        1.193
REMARK UNBOUND:                -1.391
REMARK  4 active torsions:
REMARK  status: ('A' for Active; 'I' for Inactive)
REMARK       I    between atoms: C_2  and  N_3 
REMARK    1  A    between atoms: C_2  and  C_13 
REMARK    2  A    between atoms: N_3  and  N_4 
REMARK    3  A    between atoms: N_4  and  C_5 
REMARK       I    between atoms: C_13  and  N_15 
REMARK    4  A    between atoms: N_15  and  C_16 
ROOT
ATOM      1  O   UNL d   1      24.568 -17.968   0.282  0.00  0.00    -0.261 OA
ATOM      2  C   UNL d   1      23.815 -17.930  -0.695  0.00  0.00     0.328 C 
ATOM      3  N   UNL d   1      24.141 -17.213  -1.846  0.00  0.00    -0.261 N 
ATOM      4  H   UNL d   1      23.654 -17.360  -2.718  0.00  0.00     0.190 HD
ENDROOT
BRANCH   2   5
ATOM      5  C   UNL d   1      22.465 -18.696  -0.651  0.00  0.00     0.315 C 
ATOM      6  O   UNL d   1      22.146 -19.324  -1.662  0.00  0.00    -0.262 OA
ATOM      7  N   UNL d   1      21.641 -18.578   0.477  0.00  0.00    -0.316 N 
ATOM      8  H   UNL d   1      21.773 -17.831   1.139  0.00  0.00     0.169 HD
BRANCH   7   9
ATOM      9  C   UNL d   1      20.458 -19.365   0.617  0.00  0.00     0.074 A 
ATOM     10  C   UNL d   1      19.669 -19.680  -0.500  0.00  0.00     0.033 A 
ATOM     11  C   UNL d   1      18.502 -20.452  -0.346  0.00  0.00     0.002 A 
ATOM     12  C   UNL d   1      18.093 -20.880   0.918  0.00  0.00     0.003 A 
ATOM     13  C   UNL d   1      18.854 -20.546   2.032  0.00  0.00     0.044 A 
ATOM     14  C   UNL d   1      20.020 -19.802   1.877  0.00  0.00     0.143 A 
ATOM     15  F   UNL d   1      20.654 -19.411   2.992  0.00  0.00    -0.204 F 
ENDBRANCH   7   9
ENDBRANCH   2   5
BRANCH   3  16
ATOM     16  N   UNL d   1      25.499 -16.855  -1.981  0.00  0.00    -0.296 N 
ATOM     17  H   UNL d   1      26.124 -17.152  -1.220  0.00  0.00     0.187 HD
BRANCH  16  18
ATOM     18  C   UNL d   1      25.834 -15.649  -2.633  0.00  0.00     0.070 A 
ATOM     19  C   UNL d   1      25.760 -15.501  -4.026  0.00  0.00     0.034 A 
ATOM     20  C   UNL d   1      26.169 -14.316  -4.652  0.00  0.00     0.026 A 
ATOM     21  C   UNL d   1      26.673 -13.263  -3.895  0.00  0.00     0.035 A 
ATOM     22 CL   UNL d   1      27.170 -11.813  -4.677  0.00  0.00    -0.084 Cl
ATOM     23  C   UNL d   1      26.769 -13.377  -2.514  0.00  0.00     0.050 A 
ATOM     24  C   UNL d   1      26.342 -14.556  -1.890  0.00  0.00     0.063 A 
ATOM     25 CL   UNL d   1      26.509 -14.655  -0.169  0.00  0.00    -0.082 Cl
ENDBRANCH  16  18
ENDBRANCH   3  16
TORSDOF 4
ENDMDL
MODEL 2
REMARK VINA RESULT:    -7.796      1.451      1.782
REMARK INTER + INTRA:         -10.670
REMARK INTER:                  -8.989
REMARK INTRA:                  -1.681
REMARK CONF_INDEPENDENT:        1.193
REMARK UNBOUND:                -1.681
REMARK  4 active torsions:
REMARK  status: ('A' for Active; 'I' for Inactive)
REMARK       I    between atoms: C_2  and  N_3 
REMARK    1  A    between atoms: C_2  and  C_13 
REMARK    2  A    between atoms: N_3  and  N_4 
REMARK    3  A    between atoms: N_4  and  C_5 
REMARK       I    between atoms: C_13  and  N_15 
REMARK    4  A    between atoms: N_15  and  C_16 
ROOT
ATOM      1  O   UNL d   1      24.447 -18.370  -0.869  0.00  0.00    -0.261 OA
ATOM      2  C   UNL d   1      23.499 -17.593  -1.015  0.00  0.00     0.328 C 
ATOM      3  N   UNL d   1      23.672 -16.319  -1.555  0.00  0.00    -0.261 N 
ATOM      4  H   UNL d   1      22.889 -15.774  -1.888  0.00  0.00     0.190 HD
ENDROOT
BRANCH   2   5
ATOM      5  C   UNL d   1      22.074 -18.036  -0.588  0.00  0.00     0.315 C 
ATOM      6  O   UNL d   1      21.142 -17.290  -0.895  0.00  0.00    -0.262 OA
ATOM      7  N   UNL d   1      21.914 -19.194   0.184  0.00  0.00    -0.316 N 
ATOM      8  H   UNL d   1      22.694 -19.602   0.675  0.00  0.00     0.169 HD
BRANCH   7   9
ATOM      9  C   UNL d   1      20.617 -19.710   0.488  0.00  0.00     0.074 A 
ATOM     10  C   UNL d   1      20.280 -20.075   1.800  0.00  0.00     0.033 A 
ATOM     11  C   UNL d   1      19.000 -20.588   2.084  0.00  0.00     0.002 A 
ATOM     12  C   UNL d   1      18.066 -20.777   1.064  0.00  0.00     0.003 A 
ATOM     13  C   UNL d   1      18.405 -20.445  -0.243  0.00  0.00     0.044 A 
ATOM     14  C   UNL d   1      19.663 -19.917  -0.520  0.00  0.00     0.143 A 
ATOM     15  F   UNL d   1      19.979 -19.722  -1.808  0.00  0.00    -0.204 F 
ENDBRANCH   7   9
ENDBRANCH   2   5
BRANCH   3  16
ATOM     16  N   UNL d   1      24.879 -16.107  -2.254  0.00  0.00    -0.296 N 
ATOM     17  H   UNL d   1      25.644 -16.762  -2.045  0.00  0.00     0.187 HD
BRANCH  16  18
ATOM     18  C   UNL d   1      25.255 -14.791  -2.600  0.00  0.00     0.070 A 
ATOM     19  C   UNL d   1      24.799 -14.160  -3.766  0.00  0.00     0.034 A 
ATOM     20  C   UNL d   1      25.248 -12.881  -4.121  0.00  0.00     0.026 A 
ATOM     21  C   UNL d   1      26.173 -12.217  -3.321  0.00  0.00     0.035 A 
ATOM     22 CL   UNL d   1      26.713 -10.646  -3.768  0.00  0.00    -0.084 Cl
ATOM     23  C   UNL d   1      26.652 -12.815  -2.162  0.00  0.00     0.050 A 
ATOM     24  C   UNL d   1      26.188 -14.086  -1.801  0.00  0.00     0.063 A 
ATOM     25 CL   UNL d   1      26.840 -14.795  -0.363  0.00  0.00    -0.082 Cl
ENDBRANCH  16  18
ENDBRANCH   3  16
TORSDOF 4
ENDMDL
MODEL 3
REMARK VINA RESULT:    -7.765      1.451      2.251
REMARK INTER + INTRA:         -10.110
REMARK INTER:                  -8.958
REMARK INTRA:                  -1.152
REMARK CONF_INDEPENDENT:        1.193
REMARK UNBOUND:                -1.152
REMARK  4 active torsions:
REMARK  status: ('A' for Active; 'I' for Inactive)
REMARK       I    between atoms: C_2  and  N_3 
REMARK    1  A    between atoms: C_2  and  C_13 
REMARK    2  A    between atoms: N_3  and  N_4 
REMARK    3  A    between atoms: N_4  and  C_5 
REMARK       I    between atoms: C_13  and  N_15 
REMARK    4  A    between atoms: N_15  and  C_16 
ROOT
ATOM      1  O   UNL d   1      24.486 -17.810   0.564  0.00  0.00    -0.261 OA
ATOM      2  C   UNL d   1      23.917 -17.957  -0.521  0.00  0.00     0.328 C 
ATOM      3  N   UNL d   1      24.469 -17.478  -1.709  0.00  0.00    -0.261 N 
ATOM      4  H   UNL d   1      24.135 -17.788  -2.611  0.00  0.00     0.190 HD
ENDROOT
BRANCH   2   5
ATOM      5  C   UNL d   1      22.551 -18.690  -0.575  0.00  0.00     0.315 C 
ATOM      6  O   UNL d   1      22.271 -19.274  -1.624  0.00  0.00    -0.262 OA
ATOM      7  N   UNL d   1      21.671 -18.593   0.512  0.00  0.00    -0.316 N 
ATOM      8  H   UNL d   1      21.785 -17.873   1.207  0.00  0.00     0.169 HD
BRANCH   7   9
ATOM      9  C   UNL d   1      20.465 -19.356   0.561  0.00  0.00     0.074 A 
ATOM     10  C   UNL d   1      19.671 -19.517  -0.584  0.00  0.00     0.033 A 
ATOM     11  C   UNL d   1      18.481 -20.267  -0.520  0.00  0.00     0.002 A 
ATOM     12  C   UNL d   1      18.055 -20.824   0.688  0.00  0.00     0.003 A 
ATOM     13  C   UNL d   1      18.822 -20.642   1.833  0.00  0.00     0.044 A 
ATOM     14  C   UNL d   1      20.011 -19.919   1.764  0.00  0.00     0.143 A 
ATOM     15  F   UNL d   1      20.652 -19.677   2.915  0.00  0.00    -0.204 F 
ENDBRANCH   7   9
ENDBRANCH   2   5
BRANCH   3  16
ATOM     16  N   UNL d   1      25.843 -17.161  -1.665  0.00  0.00    -0.296 N 
ATOM     17  H   UNL d   1      26.487 -17.955  -1.551  0.00  0.00     0.187 HD
BRANCH  16  18
ATOM     18  C   UNL d   1      26.252 -15.935  -1.097  0.00  0.00     0.070 A 
ATOM     19  C   UNL d   1      26.710 -15.834   0.224  0.00  0.00     0.034 A 
ATOM     20  C   UNL d   1      27.039 -14.592   0.785  0.00  0.00     0.026 A 
ATOM     21  C   UNL d   1      26.902 -13.428   0.034  0.00  0.00     0.035 A 
ATOM     22 CL   UNL d   1      27.312 -11.911   0.734  0.00  0.00    -0.084 Cl
ATOM     23  C   UNL d   1      26.443 -13.490  -1.276  0.00  0.00     0.050 A 
ATOM     24  C   UNL d   1      26.132 -14.734  -1.838  0.00  0.00     0.063 A 
ATOM     25 CL   UNL d   1      25.539 -14.750  -3.464  0.00  0.00    -0.082 Cl
ENDBRANCH  16  18
ENDBRANCH   3  16
TORSDOF 4
ENDMDL
MODEL 4
REMARK VINA RESULT:    -7.316      6.048      8.915
REMARK INTER + INTRA:          -9.415
REMARK INTER:                  -8.509
REMARK INTRA:                  -0.906
REMARK CONF_INDEPENDENT:        1.193
REMARK UNBOUND:                -0.906
REMARK  4 active torsions:
REMARK  status: ('A' for Active; 'I' for Inactive)
REMARK       I    between atoms: C_2  and  N_3 
REMARK    1  A    between atoms: C_2  and  C_13 
REMARK    2  A    between atoms: N_3  and  N_4 
REMARK    3  A    between atoms: N_4  and  C_5 
REMARK       I    between atoms: C_13  and  N_15 
REMARK    4  A    between atoms: N_15  and  C_16 
ROOT
ATOM      1  O   UNL d   1      26.538 -14.031   0.875  0.00  0.00    -0.261 OA
ATOM      2  C   UNL d   1      27.417 -14.645   1.486  0.00  0.00     0.328 C 
ATOM      3  N   UNL d   1      27.787 -15.942   1.132  0.00  0.00    -0.261 N 
ATOM      4  H   UNL d   1      28.644 -16.358   1.466  0.00  0.00     0.190 HD
ENDROOT
BRANCH   2   5
ATOM      5  C   UNL d   1      28.134 -13.964   2.683  0.00  0.00     0.315 C 
ATOM      6  O   UNL d   1      28.596 -12.838   2.490  0.00  0.00    -0.262 OA
ATOM      7  N   UNL d   1      28.299 -14.671   3.881  0.00  0.00    -0.316 N 
ATOM      8  H   UNL d   1      28.195 -15.673   3.910  0.00  0.00     0.169 HD
BRANCH   7   9
ATOM      9  C   UNL d   1      28.832 -14.042   5.047  0.00  0.00     0.074 A 
ATOM     10  C   UNL d   1      29.768 -14.705   5.856  0.00  0.00     0.033 A 
ATOM     11  C   UNL d   1      30.281 -14.075   7.005  0.00  0.00     0.002 A 
ATOM     12  C   UNL d   1      29.839 -12.803   7.378  0.00  0.00     0.003 A 
ATOM     13  C   UNL d   1      28.890 -12.154   6.597  0.00  0.00     0.044 A 
ATOM     14  C   UNL d   1      28.399 -12.768   5.448  0.00  0.00     0.143 A 
ATOM     15  F   UNL d   1      27.405 -12.150   4.796  0.00  0.00    -0.204 F 
ENDBRANCH   7   9
ENDBRANCH   2   5
BRANCH   3  16
ATOM     16  N   UNL d   1      27.387 -16.365  -0.153  0.00  0.00    -0.296 N 
ATOM     17  H   UNL d   1      27.762 -15.826  -0.945  0.00  0.00     0.187 HD
BRANCH  16  18
ATOM     18  C   UNL d   1      26.104 -16.927  -0.328  0.00  0.00     0.070 A 
ATOM     19  C   UNL d   1      25.635 -17.988   0.460  0.00  0.00     0.034 A 
ATOM     20  C   UNL d   1      24.385 -18.575   0.215  0.00  0.00     0.026 A 
ATOM     21  C   UNL d   1      23.591 -18.118  -0.832  0.00  0.00     0.035 A 
ATOM     22 CL   UNL d   1      22.059 -18.846  -1.119  0.00  0.00    -0.084 Cl
ATOM     23  C   UNL d   1      24.028 -17.074  -1.637  0.00  0.00     0.050 A 
ATOM     24  C   UNL d   1      25.269 -16.478  -1.379  0.00  0.00     0.063 A 
ATOM     25 CL   UNL d   1      25.776 -15.200  -2.431  0.00  0.00    -0.082 Cl
ENDBRANCH  16  18
ENDBRANCH   3  16
TORSDOF 4
ENDMDL
MODEL 5
REMARK VINA RESULT:    -7.260      5.780      8.588
REMARK INTER + INTRA:          -9.464
REMARK INTER:                  -8.453
REMARK INTRA:                  -1.012
REMARK CONF_INDEPENDENT:        1.193
REMARK UNBOUND:                -1.012
REMARK  4 active torsions:
REMARK  status: ('A' for Active; 'I' for Inactive)
REMARK       I    between atoms: C_2  and  N_3 
REMARK    1  A    between atoms: C_2  and  C_13 
REMARK    2  A    between atoms: N_3  and  N_4 
REMARK    3  A    between atoms: N_4  and  C_5 
REMARK       I    between atoms: C_13  and  N_15 
REMARK    4  A    between atoms: N_15  and  C_16 
ROOT
ATOM      1  O   UNL d   1      28.392 -15.822   0.596  0.00  0.00    -0.261 OA
ATOM      2  C   UNL d   1      27.522 -15.015   0.937  0.00  0.00     0.328 C 
ATOM      3  N   UNL d   1      26.408 -14.756   0.140  0.00  0.00    -0.261 N 
ATOM      4  H   UNL d   1      25.593 -14.285   0.506  0.00  0.00     0.190 HD
ENDROOT
BRANCH   2   5
ATOM      5  C   UNL d   1      27.665 -14.264   2.288  0.00  0.00     0.315 C 
ATOM      6  O   UNL d   1      27.091 -13.177   2.386  0.00  0.00    -0.262 OA
ATOM      7  N   UNL d   1      28.489 -14.794   3.290  0.00  0.00    -0.316 N 
ATOM      8  H   UNL d   1      29.176 -15.500   3.076  0.00  0.00     0.169 HD
BRANCH   7   9
ATOM      9  C   UNL d   1      28.547 -14.208   4.591  0.00  0.00     0.074 A 
ATOM     10  C   UNL d   1      27.712 -13.134   4.932  0.00  0.00     0.033 A 
ATOM     11  C   UNL d   1      27.783 -12.562   6.216  0.00  0.00     0.002 A 
ATOM     12  C   UNL d   1      28.710 -13.027   7.152  0.00  0.00     0.003 A 
ATOM     13  C   UNL d   1      29.561 -14.071   6.809  0.00  0.00     0.044 A 
ATOM     14  C   UNL d   1      29.475 -14.651   5.547  0.00  0.00     0.143 A 
ATOM     15  F   UNL d   1      30.392 -15.575   5.229  0.00  0.00    -0.204 F 
ENDBRANCH   7   9
ENDBRANCH   2   5
BRANCH   3  16
ATOM     16  N   UNL d   1      26.138 -15.707  -0.866  0.00  0.00    -0.296 N 
ATOM     17  H   UNL d   1      26.421 -15.449  -1.821  0.00  0.00     0.187 HD
BRANCH  16  18
ATOM     18  C   UNL d   1      24.999 -16.531  -0.751  0.00  0.00     0.070 A 
ATOM     19  C   UNL d   1      23.712 -16.088  -1.090  0.00  0.00     0.034 A 
ATOM     20  C   UNL d   1      22.589 -16.903  -0.895  0.00  0.00     0.026 A 
ATOM     21  C   UNL d   1      22.734 -18.173  -0.344  0.00  0.00     0.035 A 
ATOM     22 CL   UNL d   1      21.346 -19.164  -0.113  0.00  0.00    -0.084 Cl
ATOM     23  C   UNL d   1      23.992 -18.642   0.011  0.00  0.00     0.050 A 
ATOM     24  C   UNL d   1      25.114 -17.831  -0.201  0.00  0.00     0.063 A 
ATOM     25 CL   UNL d   1      26.654 -18.456   0.285  0.00  0.00    -0.082 Cl
ENDBRANCH  16  18
ENDBRANCH   3  16
TORSDOF 4
ENDMDL
MODEL 6
REMARK VINA RESULT:    -6.987      4.365      9.076
REMARK INTER + INTRA:          -8.864
REMARK INTER:                  -8.180
REMARK INTRA:                  -0.685
REMARK CONF_INDEPENDENT:        1.193
REMARK UNBOUND:                -0.685
REMARK  4 active torsions:
REMARK  status: ('A' for Active; 'I' for Inactive)
REMARK       I    between atoms: C_2  and  N_3 
REMARK    1  A    between atoms: C_2  and  C_13 
REMARK    2  A    between atoms: N_3  and  N_4 
REMARK    3  A    between atoms: N_4  and  C_5 
REMARK       I    between atoms: C_13  and  N_15 
REMARK    4  A    between atoms: N_15  and  C_16 
ROOT
ATOM      1  O   UNL d   1      25.155 -16.770  -3.146  0.00  0.00    -0.261 OA
ATOM      2  C   UNL d   1      25.585 -15.616  -3.053  0.00  0.00     0.328 C 
ATOM      3  N   UNL d   1      25.599 -14.934  -1.838  0.00  0.00    -0.261 N 
ATOM      4  H   UNL d   1      26.149 -14.097  -1.706  0.00  0.00     0.190 HD
ENDROOT
BRANCH   2   5
ATOM      5  C   UNL d   1      26.125 -14.898  -4.319  0.00  0.00     0.315 C 
ATOM      6  O   UNL d   1      26.219 -15.573  -5.346  0.00  0.00    -0.262 OA
ATOM      7  N   UNL d   1      26.553 -13.567  -4.228  0.00  0.00    -0.316 N 
ATOM      8  H   UNL d   1      26.754 -13.148  -3.334  0.00  0.00     0.169 HD
BRANCH   7   9
ATOM      9  C   UNL d   1      26.931 -12.828  -5.389  0.00  0.00     0.074 A 
ATOM     10  C   UNL d   1      26.254 -11.651  -5.743  0.00  0.00     0.033 A 
ATOM     11  C   UNL d   1      26.634 -10.935  -6.894  0.00  0.00     0.002 A 
ATOM     12  C   UNL d   1      27.659 -11.404  -7.718  0.00  0.00     0.003 A 
ATOM     13  C   UNL d   1      28.314 -12.585  -7.389  0.00  0.00     0.044 A 
ATOM     14  C   UNL d   1      27.952 -13.281  -6.239  0.00  0.00     0.143 A 
ATOM     15  F   UNL d   1      28.535 -14.470  -6.030  0.00  0.00    -0.204 F 
ENDBRANCH   7   9
ENDBRANCH   2   5
BRANCH   3  16
ATOM     16  N   UNL d   1      25.453 -15.732  -0.683  0.00  0.00    -0.296 N 
ATOM     17  H   UNL d   1      26.323 -15.988  -0.197  0.00  0.00     0.187 HD
BRANCH  16  18
ATOM     18  C   UNL d   1      24.400 -16.669  -0.619  0.00  0.00     0.070 A 
ATOM     19  C   UNL d   1      23.069 -16.325  -0.898  0.00  0.00     0.034 A 
ATOM     20  C   UNL d   1      22.033 -17.258  -0.755  0.00  0.00     0.026 A 
ATOM     21  C   UNL d   1      22.311 -18.549  -0.316  0.00  0.00     0.035 A 
ATOM     22 CL   UNL d   1      21.030 -19.685  -0.146  0.00  0.00    -0.084 Cl
ATOM     23  C   UNL d   1      23.616 -18.923  -0.022  0.00  0.00     0.050 A 
ATOM     24  C   UNL d   1      24.651 -17.993  -0.183  0.00  0.00     0.063 A 
ATOM     25 CL   UNL d   1      26.255 -18.504   0.223  0.00  0.00    -0.082 Cl
ENDBRANCH  16  18
ENDBRANCH   3  16
TORSDOF 4
ENDMDL
MODEL 7
REMARK VINA RESULT:    -6.984      4.800      9.107
REMARK INTER + INTRA:          -9.050
REMARK INTER:                  -8.177
REMARK INTRA:                  -0.874
REMARK CONF_INDEPENDENT:        1.193
REMARK UNBOUND:                -0.874
REMARK  4 active torsions:
REMARK  status: ('A' for Active; 'I' for Inactive)
REMARK       I    between atoms: C_2  and  N_3 
REMARK    1  A    between atoms: C_2  and  C_13 
REMARK    2  A    between atoms: N_3  and  N_4 
REMARK    3  A    between atoms: N_4  and  C_5 
REMARK       I    between atoms: C_13  and  N_15 
REMARK    4  A    between atoms: N_15  and  C_16 
ROOT
ATOM      1  O   UNL d   1      25.151 -14.773  -3.415  0.00  0.00    -0.261 OA
ATOM      2  C   UNL d   1      26.308 -15.141  -3.193  0.00  0.00     0.328 C 
ATOM      3  N   UNL d   1      26.831 -15.176  -1.901  0.00  0.00    -0.261 N 
ATOM      4  H   UNL d   1      27.678 -15.683  -1.685  0.00  0.00     0.190 HD
ENDROOT
BRANCH   2   5
ATOM      5  C   UNL d   1      27.213 -15.575  -4.376  0.00  0.00     0.315 C 
ATOM      6  O   UNL d   1      26.703 -15.575  -5.499  0.00  0.00    -0.262 OA
ATOM      7  N   UNL d   1      28.517 -16.020  -4.122  0.00  0.00    -0.316 N 
ATOM      8  H   UNL d   1      28.797 -16.302  -3.196  0.00  0.00     0.169 HD
BRANCH   7   9
ATOM      9  C   UNL d   1      29.426 -16.303  -5.186  0.00  0.00     0.074 A 
ATOM     10  C   UNL d   1      30.177 -17.488  -5.192  0.00  0.00     0.033 A 
ATOM     11  C   UNL d   1      31.074 -17.752  -6.244  0.00  0.00     0.002 A 
ATOM     12  C   UNL d   1      31.258 -16.825  -7.272  0.00  0.00     0.003 A 
ATOM     13  C   UNL d   1      30.539 -15.635  -7.256  0.00  0.00     0.044 A 
ATOM     14  C   UNL d   1      29.636 -15.385  -6.226  0.00  0.00     0.143 A 
ATOM     15  F   UNL d   1      29.055 -14.177  -6.197  0.00  0.00    -0.204 F 
ENDBRANCH   7   9
ENDBRANCH   2   5
BRANCH   3  16
ATOM     16  N   UNL d   1      25.886 -15.133  -0.854  0.00  0.00    -0.296 N 
ATOM     17  H   UNL d   1      26.209 -14.721   0.031  0.00  0.00     0.187 HD
BRANCH  16  18
ATOM     18  C   UNL d   1      24.919 -16.156  -0.754  0.00  0.00     0.070 A 
ATOM     19  C   UNL d   1      23.569 -15.950  -1.074  0.00  0.00     0.034 A 
ATOM     20  C   UNL d   1      22.618 -16.964  -0.895  0.00  0.00     0.026 A 
ATOM     21  C   UNL d   1      23.000 -18.197  -0.377  0.00  0.00     0.035 A 
ATOM     22 CL   UNL d   1      21.822 -19.433  -0.164  0.00  0.00    -0.084 Cl
ATOM     23  C   UNL d   1      24.327 -18.434  -0.041  0.00  0.00     0.050 A 
ATOM     24  C   UNL d   1      25.278 -17.425  -0.238  0.00  0.00     0.063 A 
ATOM     25 CL   UNL d   1      26.911 -17.766   0.224  0.00  0.00    -0.082 Cl
ENDBRANCH  16  18
ENDBRANCH   3  16
TORSDOF 4
ENDMDL
MODEL 8
REMARK VINA RESULT:    -6.642      4.554      9.297
REMARK INTER + INTRA:          -9.115
REMARK INTER:                  -7.835
REMARK INTRA:                  -1.280
REMARK CONF_INDEPENDENT:        1.193
REMARK UNBOUND:                -1.280
REMARK  4 active torsions:
REMARK  status: ('A' for Active; 'I' for Inactive)
REMARK       I    between atoms: C_2  and  N_3 
REMARK    1  A    between atoms: C_2  and  C_13 
REMARK    2  A    between atoms: N_3  and  N_4 
REMARK    3  A    between atoms: N_4  and  C_5 
REMARK       I    between atoms: C_13  and  N_15 
REMARK    4  A    between atoms: N_15  and  C_16 
ROOT
ATOM      1  O   UNL d   1      25.408 -15.171  -3.728  0.00  0.00    -0.261 OA
ATOM      2  C   UNL d   1      25.824 -14.291  -2.969  0.00  0.00     0.328 C 
ATOM      3  N   UNL d   1      26.077 -14.544  -1.622  0.00  0.00    -0.261 N 
ATOM      4  H   UNL d   1      26.625 -13.911  -1.057  0.00  0.00     0.190 HD
ENDROOT
BRANCH   2   5
ATOM      5  C   UNL d   1      26.073 -12.861  -3.520  0.00  0.00     0.315 C 
ATOM      6  O   UNL d   1      26.668 -12.074  -2.781  0.00  0.00    -0.262 OA
ATOM      7  N   UNL d   1      25.553 -12.502  -4.770  0.00  0.00    -0.316 N 
ATOM      8  H   UNL d   1      24.824 -13.046  -5.204  0.00  0.00     0.169 HD
BRANCH   7   9
ATOM      9  C   UNL d   1      25.868 -11.247  -5.373  0.00  0.00     0.074 A 
ATOM     10  C   UNL d   1      26.490 -11.189  -6.629  0.00  0.00     0.033 A 
ATOM     11  C   UNL d   1      26.799  -9.945  -7.209  0.00  0.00     0.002 A 
ATOM     12  C   UNL d   1      26.530  -8.755  -6.529  0.00  0.00     0.003 A 
ATOM     13  C   UNL d   1      25.942  -8.806  -5.270  0.00  0.00     0.044 A 
ATOM     14  C   UNL d   1      25.615 -10.037  -4.707  0.00  0.00     0.143 A 
ATOM     15  F   UNL d   1      25.156 -10.035  -3.448  0.00  0.00    -0.204 F 
ENDBRANCH   7   9
ENDBRANCH   2   5
BRANCH   3  16
ATOM     16  N   UNL d   1      26.191 -15.904  -1.263  0.00  0.00    -0.296 N 
ATOM     17  H   UNL d   1      26.959 -16.426  -1.707  0.00  0.00     0.187 HD
BRANCH  16  18
ATOM     18  C   UNL d   1      25.026 -16.639  -0.960  0.00  0.00     0.070 A 
ATOM     19  C   UNL d   1      23.740 -16.175  -1.274  0.00  0.00     0.034 A 
ATOM     20  C   UNL d   1      22.597 -16.892  -0.894  0.00  0.00     0.026 A 
ATOM     21  C   UNL d   1      22.722 -18.079  -0.180  0.00  0.00     0.035 A 
ATOM     22 CL   UNL d   1      21.310 -18.950   0.278  0.00  0.00    -0.084 Cl
ATOM     23  C   UNL d   1      23.980 -18.565   0.157  0.00  0.00     0.050 A 
ATOM     24  C   UNL d   1      25.120 -17.855  -0.240  0.00  0.00     0.063 A 
ATOM     25 CL   UNL d   1      26.660 -18.492   0.230  0.00  0.00    -0.082 Cl
ENDBRANCH  16  18
ENDBRANCH   3  16
TORSDOF 4
ENDMDL
MODEL 9
REMARK VINA RESULT:    -6.454     11.691     13.359
REMARK INTER + INTRA:          -8.870
REMARK INTER:                  -7.647
REMARK INTRA:                  -1.223
REMARK CONF_INDEPENDENT:        1.193
REMARK UNBOUND:                -1.223
REMARK  4 active torsions:
REMARK  status: ('A' for Active; 'I' for Inactive)
REMARK       I    between atoms: C_2  and  N_3 
REMARK    1  A    between atoms: C_2  and  C_13 
REMARK    2  A    between atoms: N_3  and  N_4 
REMARK    3  A    between atoms: N_4  and  C_5 
REMARK       I    between atoms: C_13  and  N_15 
REMARK    4  A    between atoms: N_15  and  C_16 
ROOT
ATOM      1  O   UNL d   1      31.995 -19.475   4.276  0.00  0.00    -0.261 OA
ATOM      2  C   UNL d   1      32.061 -20.693   4.464  0.00  0.00     0.328 C 
ATOM      3  N   UNL d   1      31.647 -21.608   3.497  0.00  0.00    -0.261 N 
ATOM      4  H   UNL d   1      31.906 -22.583   3.544  0.00  0.00     0.190 HD
ENDROOT
BRANCH   2   5
ATOM      5  C   UNL d   1      32.617 -21.230   5.810  0.00  0.00     0.315 C 
ATOM      6  O   UNL d   1      31.791 -21.575   6.658  0.00  0.00    -0.262 OA
ATOM      7  N   UNL d   1      33.999 -21.223   6.039  0.00  0.00    -0.316 N 
ATOM      8  H   UNL d   1      34.615 -20.661   5.473  0.00  0.00     0.169 HD
BRANCH   7   9
ATOM      9  C   UNL d   1      34.562 -21.827   7.204  0.00  0.00     0.074 A 
ATOM     10  C   UNL d   1      35.096 -21.038   8.234  0.00  0.00     0.033 A 
ATOM     11  C   UNL d   1      35.654 -21.646   9.374  0.00  0.00     0.002 A 
ATOM     12  C   UNL d   1      35.719 -23.037   9.479  0.00  0.00     0.003 A 
ATOM     13  C   UNL d   1      35.219 -23.824   8.449  0.00  0.00     0.044 A 
ATOM     14  C   UNL d   1      34.648 -23.222   7.331  0.00  0.00     0.143 A 
ATOM     15  F   UNL d   1      34.285 -24.022   6.318  0.00  0.00    -0.204 F 
ENDBRANCH   7   9
ENDBRANCH   2   5
BRANCH   3  16
ATOM     16  N   UNL d   1      31.506 -21.097   2.189  0.00  0.00    -0.296 N 
ATOM     17  H   UNL d   1      31.245 -20.105   2.116  0.00  0.00     0.187 HD
BRANCH  16  18
ATOM     18  C   UNL d   1      31.040 -21.946   1.163  0.00  0.00     0.070 A 
ATOM     19  C   UNL d   1      29.700 -22.350   1.071  0.00  0.00     0.034 A 
ATOM     20  C   UNL d   1      29.280 -23.252   0.084  0.00  0.00     0.026 A 
ATOM     21  C   UNL d   1      30.199 -23.777  -0.820  0.00  0.00     0.035 A 
ATOM     22 CL   UNL d   1      29.669 -24.882  -2.028  0.00  0.00    -0.084 Cl
ATOM     23  C   UNL d   1      31.536 -23.405  -0.754  0.00  0.00     0.050 A 
ATOM     24  C   UNL d   1      31.948 -22.490   0.223  0.00  0.00     0.063 A 
ATOM     25 CL   UNL d   1      33.630 -22.083   0.277  0.00  0.00    -0.082 Cl
ENDBRANCH  16  18
ENDBRANCH   3  16
TORSDOF 4
ENDMDL
