MODEL 1
REMARK VINA RESULT:    -9.167      0.000      0.000
REMARK INTER + INTRA:         -15.477
REMARK INTER:                 -12.448
REMARK INTRA:                  -3.029
REMARK CONF_INDEPENDENT:        3.281
REMARK UNBOUND:                -3.029
REMARK  11 active torsions:
REMARK  status: ('A' for Active; 'I' for Inactive)
REMARK    1  A    between atoms: O_2  and  C_3 
REMARK    2  A    between atoms: C_6  and  N_7 
REMARK    3  A    between atoms: N_7  and  C_8 
REMARK    4  A    between atoms: C_10  and  C_11 
REMARK       I    between atoms: C_11  and  N_13 
REMARK    5  A    between atoms: N_13  and  C_14 
REMARK    6  A    between atoms: C_14  and  C_15 
REMARK    7  A    between atoms: N_16  and  C_15 
REMARK    8  A    between atoms: N_16  and  C_18 
REMARK    9  A    between atoms: C_18  and  C_19 
REMARK   10  A    between atoms: C_19  and  C_20 
REMARK   11  A    between atoms: C_33  and  O_34 
ROOT
ATOM      1  C   UNL d   1      27.361 -14.036   0.102  0.00  0.00     0.115 C 
ATOM      2  C   UNL d   1      27.997 -12.919   0.510  0.00  0.00     0.111 C 
ATOM      3  C   UNL d   1      29.072 -13.149   1.409  0.00  0.00     0.035 C 
ATOM      4  C   UNL d   1      28.780 -13.458   2.710  0.00  0.00     0.005 C 
ATOM      5  C   UNL d   1      29.688 -13.005   3.760  0.00  0.00     0.014 C 
ATOM      6  C   UNL d   1      29.533 -13.292   5.096  0.00  0.00     0.001 C 
ATOM      7  C   UNL d   1      28.370 -13.952   5.391  0.00  0.00     0.002 C 
ATOM      8  C   UNL d   1      27.509 -14.444   4.298  0.00  0.00     0.032 C 
ATOM      9  C   UNL d   1      27.677 -14.278   2.791  0.00  0.00     0.069 C 
ATOM     10  N   UNL d   1      27.030 -14.651   1.341  0.00  0.00    -0.234 NA
ENDROOT
BRANCH   3  11
ATOM     11  C   UNL d   1      30.283 -13.915   1.009  0.00  0.00     0.249 C 
ATOM     12  O   UNL d   1      31.148 -13.452   0.216  0.00  0.00    -0.268 OA
ATOM     13  N   UNL d   1      30.470 -15.152   1.512  0.00  0.00    -0.355 N 
ATOM     14  H   UNL d   1      29.894 -15.462   2.305  0.00  0.00     0.162 HD
BRANCH  13  15
ATOM     15  C   UNL d   1      31.548 -15.921   0.937  0.00  0.00     0.150 C 
BRANCH  15  16
ATOM     16  C   UNL d   1      31.099 -16.636  -0.293  0.00  0.00     0.254 C 
BRANCH  16  17
ATOM     17  N   UNL d   1      30.165 -17.765  -0.334  0.00  0.00    -0.073 N 
ATOM     18  C   UNL d   1      30.775 -18.713  -1.290  0.00  0.00     0.269 C 
ATOM     19  H   UNL d   1      30.114 -18.191   0.605  0.00  0.00     0.279 HD
BRANCH  17  20
ATOM     20  C   UNL d   1      28.753 -17.339  -0.698  0.00  0.00     0.239 C 
BRANCH  20  21
ATOM     21  C   UNL d   1      27.669 -17.456   0.413  0.00  0.00     0.066 C 
BRANCH  21  22
ATOM     22  C   UNL d   1      26.282 -17.488  -0.177  0.00  0.00    -0.057 A 
ATOM     23  C   UNL d   1      25.263 -18.200   0.474  0.00  0.00     0.007 A 
ATOM     24  C   UNL d   1      24.002 -18.320  -0.077  0.00  0.00     0.001 A 
ATOM     25  C   UNL d   1      23.719 -17.670  -1.266  0.00  0.00     0.000 A 
ATOM     26  C   UNL d   1      24.725 -16.988  -1.953  0.00  0.00     0.001 A 
ATOM     27  C   UNL d   1      26.016 -16.917  -1.427  0.00  0.00     0.007 A 
ENDBRANCH  21  22
ENDBRANCH  20  21
ENDBRANCH  17  20
ENDBRANCH  16  17
ENDBRANCH  15  16
ENDBRANCH  13  15
ENDBRANCH   3  11
BRANCH   1  28
ATOM     28  N   UNL d   1      26.512 -13.838  -1.214  0.00  0.00    -0.342 N 
ATOM     29  H   UNL d   1      25.541 -13.959  -0.934  0.00  0.00     0.167 HD
BRANCH  28  30
ATOM     30  C   UNL d   1      26.525 -13.059  -2.504  0.00  0.00     0.067 A 
ATOM     31  C   UNL d   1      27.140 -11.789  -2.675  0.00  0.00     0.035 A 
ATOM     32  C   UNL d   1      26.891 -10.881  -3.815  0.00  0.00     0.039 A 
ATOM     33  C   UNL d   1      26.092 -11.214  -4.896  0.00  0.00     0.070 A 
ATOM     34  C   UNL d   1      25.530 -12.438  -4.777  0.00  0.00     0.075 A 
ATOM     35  C   UNL d   1      25.754 -13.314  -3.629  0.00  0.00     0.097 A 
BRANCH  33  36
ATOM     36  O   UNL d   1      25.956 -10.413  -5.993  0.00  0.00    -0.356 OA
ATOM     37  C   UNL d   1      25.033  -9.306  -5.922  0.00  0.00     0.210 C 
ENDBRANCH  33  36
BRANCH  35  38
ATOM     38  O   UNL d   1      25.194 -14.534  -3.668  0.00  0.00    -0.354 OA
ATOM     39  C   UNL d   1      25.913 -15.240  -4.628  0.00  0.00     0.210 C 
ENDBRANCH  35  38
ENDBRANCH  28  30
ENDBRANCH   1  28
TORSDOF 11
ENDMDL
MODEL 2
REMARK VINA RESULT:    -9.111      3.611      7.601
REMARK INTER + INTRA:         -15.277
REMARK INTER:                 -12.393
REMARK INTRA:                  -2.885
REMARK CONF_INDEPENDENT:        3.281
REMARK UNBOUND:                -2.885
REMARK  11 active torsions:
REMARK  status: ('A' for Active; 'I' for Inactive)
REMARK    1  A    between atoms: O_2  and  C_3 
REMARK    2  A    between atoms: C_6  and  N_7 
REMARK    3  A    between atoms: N_7  and  C_8 
REMARK    4  A    between atoms: C_10  and  C_11 
REMARK       I    between atoms: C_11  and  N_13 
REMARK    5  A    between atoms: N_13  and  C_14 
REMARK    6  A    between atoms: C_14  and  C_15 
REMARK    7  A    between atoms: N_16  and  C_15 
REMARK    8  A    between atoms: N_16  and  C_18 
REMARK    9  A    between atoms: C_18  and  C_19 
REMARK   10  A    between atoms: C_19  and  C_20 
REMARK   11  A    between atoms: C_33  and  O_34 
ROOT
ATOM      1  C   UNL d   1      26.027 -14.405  -2.330  0.00  0.00     0.115 C 
ATOM      2  C   UNL d   1      25.209 -14.324  -3.400  0.00  0.00     0.111 C 
ATOM      3  C   UNL d   1      25.779 -13.679  -4.528  0.00  0.00     0.035 C 
ATOM      4  C   UNL d   1      25.893 -12.316  -4.512  0.00  0.00     0.005 C 
ATOM      5  C   UNL d   1      25.761 -11.584  -5.770  0.00  0.00     0.014 C 
ATOM      6  C   UNL d   1      25.905 -10.223  -5.894  0.00  0.00     0.001 C 
ATOM      7  C   UNL d   1      26.069  -9.570  -4.700  0.00  0.00     0.002 C 
ATOM      8  C   UNL d   1      26.257 -10.348  -3.460  0.00  0.00     0.032 C 
ATOM      9  C   UNL d   1      26.239 -11.860  -3.259  0.00  0.00     0.069 C 
ATOM     10  N   UNL d   1      26.414 -13.048  -2.156  0.00  0.00    -0.234 NA
ENDROOT
BRANCH   3  11
ATOM     11  C   UNL d   1      26.959 -14.237  -5.242  0.00  0.00     0.249 C 
ATOM     12  O   UNL d   1      26.964 -15.393  -5.745  0.00  0.00    -0.268 OA
ATOM     13  N   UNL d   1      28.069 -13.481  -5.360  0.00  0.00    -0.355 N 
ATOM     14  H   UNL d   1      28.018 -12.478  -5.141  0.00  0.00     0.162 HD
BRANCH  13  15
ATOM     15  C   UNL d   1      29.243 -14.142  -5.880  0.00  0.00     0.150 C 
BRANCH  15  16
ATOM     16  C   UNL d   1      29.867 -15.018  -4.845  0.00  0.00     0.254 C 
BRANCH  16  17
ATOM     17  N   UNL d   1      29.161 -15.671  -3.738  0.00  0.00    -0.073 N 
ATOM     18  C   UNL d   1      29.316 -14.740  -2.602  0.00  0.00     0.269 C 
ATOM     19  H   UNL d   1      28.163 -15.765  -3.986  0.00  0.00     0.279 HD
BRANCH  17  20
ATOM     20  C   UNL d   1      29.676 -17.074  -3.466  0.00  0.00     0.239 C 
BRANCH  20  21
ATOM     21  C   UNL d   1      31.072 -17.441  -4.051  0.00  0.00     0.066 C 
BRANCH  21  22
ATOM     22  C   UNL d   1      30.938 -18.263  -5.308  0.00  0.00    -0.057 A 
ATOM     23  C   UNL d   1      30.766 -19.654  -5.217  0.00  0.00     0.007 A 
ATOM     24  C   UNL d   1      30.721 -20.450  -6.345  0.00  0.00     0.001 A 
ATOM     25  C   UNL d   1      30.784 -19.857  -7.594  0.00  0.00     0.000 A 
ATOM     26  C   UNL d   1      30.994 -18.482  -7.711  0.00  0.00     0.001 A 
ATOM     27  C   UNL d   1      31.100 -17.684  -6.571  0.00  0.00     0.007 A 
ENDBRANCH  21  22
ENDBRANCH  20  21
ENDBRANCH  17  20
ENDBRANCH  16  17
ENDBRANCH  15  16
ENDBRANCH  13  15
ENDBRANCH   3  11
BRANCH   1  28
ATOM     28  N   UNL d   1      25.592 -15.500  -1.279  0.00  0.00    -0.342 N 
ATOM     29  H   UNL d   1      25.800 -15.101  -0.366  0.00  0.00     0.167 HD
BRANCH  28  30
ATOM     30  C   UNL d   1      24.565 -16.585  -1.083  0.00  0.00     0.067 A 
ATOM     31  C   UNL d   1      23.158 -16.380  -1.107  0.00  0.00     0.035 A 
ATOM     32  C   UNL d   1      22.159 -17.347  -0.605  0.00  0.00     0.039 A 
ATOM     33  C   UNL d   1      22.485 -18.609  -0.137  0.00  0.00     0.070 A 
ATOM     34  C   UNL d   1      23.817 -18.845  -0.146  0.00  0.00     0.075 A 
ATOM     35  C   UNL d   1      24.800 -17.867  -0.610  0.00  0.00     0.097 A 
BRANCH  33  36
ATOM     36  O   UNL d   1      21.548 -19.533   0.222  0.00  0.00    -0.356 OA
ATOM     37  C   UNL d   1      20.207 -19.382  -0.287  0.00  0.00     0.210 C 
ENDBRANCH  33  36
BRANCH  35  38
ATOM     38  O   UNL d   1      26.087 -18.254  -0.635  0.00  0.00    -0.354 OA
ATOM     39  C   UNL d   1      26.615 -17.856   0.589  0.00  0.00     0.210 C 
ENDBRANCH  35  38
ENDBRANCH  28  30
ENDBRANCH   1  28
TORSDOF 11
ENDMDL
MODEL 3
REMARK VINA RESULT:    -9.090      3.882      7.810
REMARK INTER + INTRA:         -15.297
REMARK INTER:                 -12.371
REMARK INTRA:                  -2.926
REMARK CONF_INDEPENDENT:        3.281
REMARK UNBOUND:                -2.926
REMARK  11 active torsions:
REMARK  status: ('A' for Active; 'I' for Inactive)
REMARK    1  A    between atoms: O_2  and  C_3 
REMARK    2  A    between atoms: C_6  and  N_7 
REMARK    3  A    between atoms: N_7  and  C_8 
REMARK    4  A    between atoms: C_10  and  C_11 
REMARK       I    between atoms: C_11  and  N_13 
REMARK    5  A    between atoms: N_13  and  C_14 
REMARK    6  A    between atoms: C_14  and  C_15 
REMARK    7  A    between atoms: N_16  and  C_15 
REMARK    8  A    between atoms: N_16  and  C_18 
REMARK    9  A    between atoms: C_18  and  C_19 
REMARK   10  A    between atoms: C_19  and  C_20 
REMARK   11  A    between atoms: C_33  and  O_34 
ROOT
ATOM      1  C   UNL d   1      26.642 -14.258   1.062  0.00  0.00     0.115 C 
ATOM      2  C   UNL d   1      27.937 -13.913   1.223  0.00  0.00     0.111 C 
ATOM      3  C   UNL d   1      28.205 -13.172   2.403  0.00  0.00     0.035 C 
ATOM      4  C   UNL d   1      27.849 -11.852   2.440  0.00  0.00     0.005 C 
ATOM      5  C   UNL d   1      28.674 -10.922   3.207  0.00  0.00     0.014 C 
ATOM      6  C   UNL d   1      28.395  -9.585   3.363  0.00  0.00     0.001 C 
ATOM      7  C   UNL d   1      27.322  -9.152   2.630  0.00  0.00     0.002 C 
ATOM      8  C   UNL d   1      26.479 -10.131   1.916  0.00  0.00     0.032 C 
ATOM      9  C   UNL d   1      26.647 -11.643   1.800  0.00  0.00     0.069 C 
ATOM     10  N   UNL d   1      25.989 -13.001   1.183  0.00  0.00    -0.234 NA
ENDROOT
BRANCH   3  11
ATOM     11  C   UNL d   1      27.999 -13.749   3.759  0.00  0.00     0.249 C 
ATOM     12  O   UNL d   1      27.155 -13.284   4.573  0.00  0.00    -0.268 OA
ATOM     13  N   UNL d   1      28.738 -14.811   4.137  0.00  0.00    -0.355 N 
ATOM     14  H   UNL d   1      29.276 -15.325   3.428  0.00  0.00     0.162 HD
BRANCH  13  15
ATOM     15  C   UNL d   1      28.639 -15.200   5.524  0.00  0.00     0.150 C 
BRANCH  15  16
ATOM     16  C   UNL d   1      29.420 -14.273   6.396  0.00  0.00     0.254 C 
BRANCH  16  17
ATOM     17  N   UNL d   1      29.493 -12.817   6.249  0.00  0.00    -0.073 N 
ATOM     18  C   UNL d   1      30.779 -12.581   5.560  0.00  0.00     0.269 C 
ATOM     19  H   UNL d   1      28.710 -12.501   5.655  0.00  0.00     0.279 HD
BRANCH  17  20
ATOM     20  C   UNL d   1      29.357 -12.090   7.575  0.00  0.00     0.239 C 
BRANCH  20  21
ATOM     21  C   UNL d   1      28.155 -12.489   8.481  0.00  0.00     0.066 C 
BRANCH  21  22
ATOM     22  C   UNL d   1      28.613 -13.277   9.682  0.00  0.00    -0.057 A 
ATOM     23  C   UNL d   1      29.506 -14.348   9.514  0.00  0.00     0.007 A 
ATOM     24  C   UNL d   1      29.885 -15.143  10.577  0.00  0.00     0.001 A 
ATOM     25  C   UNL d   1      29.425 -14.839  11.847  0.00  0.00     0.000 A 
ATOM     26  C   UNL d   1      28.507 -13.804  12.035  0.00  0.00     0.001 A 
ATOM     27  C   UNL d   1      28.076 -13.037  10.951  0.00  0.00     0.007 A 
ENDBRANCH  21  22
ENDBRANCH  20  21
ENDBRANCH  17  20
ENDBRANCH  16  17
ENDBRANCH  15  16
ENDBRANCH  13  15
ENDBRANCH   3  11
BRANCH   1  28
ATOM     28  N   UNL d   1      26.424 -15.444   0.043  0.00  0.00    -0.342 N 
ATOM     29  H   UNL d   1      27.319 -15.926  -0.012  0.00  0.00     0.167 HD
BRANCH  28  30
ATOM     30  C   UNL d   1      25.356 -16.402  -0.420  0.00  0.00     0.067 A 
ATOM     31  C   UNL d   1      24.033 -16.026  -0.781  0.00  0.00     0.035 A 
ATOM     32  C   UNL d   1      22.902 -16.966  -0.921  0.00  0.00     0.039 A 
ATOM     33  C   UNL d   1      23.030 -18.339  -0.804  0.00  0.00     0.070 A 
ATOM     34  C   UNL d   1      24.291 -18.726  -0.504  0.00  0.00     0.075 A 
ATOM     35  C   UNL d   1      25.396 -17.786  -0.331  0.00  0.00     0.097 A 
BRANCH  33  36
ATOM     36  O   UNL d   1      22.001 -19.205  -1.043  0.00  0.00    -0.356 OA
ATOM     37  C   UNL d   1      20.735 -18.959  -0.397  0.00  0.00     0.210 C 
ENDBRANCH  33  36
BRANCH  35  38
ATOM     38  O   UNL d   1      26.615 -18.305  -0.106  0.00  0.00    -0.354 OA
ATOM     39  C   UNL d   1      26.655 -18.575   1.258  0.00  0.00     0.210 C 
ENDBRANCH  35  38
ENDBRANCH  28  30
ENDBRANCH   1  28
TORSDOF 11
ENDMDL
MODEL 4
REMARK VINA RESULT:    -8.874      1.828      2.338
REMARK INTER + INTRA:         -15.894
REMARK INTER:                 -12.155
REMARK INTRA:                  -3.739
REMARK CONF_INDEPENDENT:        3.281
REMARK UNBOUND:                -3.739
REMARK  11 active torsions:
REMARK  status: ('A' for Active; 'I' for Inactive)
REMARK    1  A    between atoms: O_2  and  C_3 
REMARK    2  A    between atoms: C_6  and  N_7 
REMARK    3  A    between atoms: N_7  and  C_8 
REMARK    4  A    between atoms: C_10  and  C_11 
REMARK       I    between atoms: C_11  and  N_13 
REMARK    5  A    between atoms: N_13  and  C_14 
REMARK    6  A    between atoms: C_14  and  C_15 
REMARK    7  A    between atoms: N_16  and  C_15 
REMARK    8  A    between atoms: N_16  and  C_18 
REMARK    9  A    between atoms: C_18  and  C_19 
REMARK   10  A    between atoms: C_19  and  C_20 
REMARK   11  A    between atoms: C_33  and  O_34 
ROOT
ATOM      1  C   UNL d   1      27.650 -14.031   0.959  0.00  0.00     0.115 C 
ATOM      2  C   UNL d   1      28.104 -12.876   1.489  0.00  0.00     0.111 C 
ATOM      3  C   UNL d   1      29.191 -13.029   2.389  0.00  0.00     0.035 C 
ATOM      4  C   UNL d   1      28.935 -13.505   3.646  0.00  0.00     0.005 C 
ATOM      5  C   UNL d   1      29.752 -13.027   4.758  0.00  0.00     0.014 C 
ATOM      6  C   UNL d   1      29.628 -13.465   6.056  0.00  0.00     0.001 C 
ATOM      7  C   UNL d   1      28.576 -14.320   6.256  0.00  0.00     0.002 C 
ATOM      8  C   UNL d   1      27.813 -14.825   5.098  0.00  0.00     0.032 C 
ATOM      9  C   UNL d   1      27.970 -14.487   3.619  0.00  0.00     0.069 C 
ATOM     10  N   UNL d   1      27.404 -14.808   2.123  0.00  0.00    -0.234 NA
ENDROOT
BRANCH   3  11
ATOM     11  C   UNL d   1      30.509 -13.559   1.949  0.00  0.00     0.249 C 
ATOM     12  O   UNL d   1      31.499 -12.812   1.716  0.00  0.00    -0.268 OA
ATOM     13  N   UNL d   1      30.659 -14.890   1.791  0.00  0.00    -0.355 N 
ATOM     14  H   UNL d   1      29.940 -15.522   2.166  0.00  0.00     0.162 HD
BRANCH  13  15
ATOM     15  C   UNL d   1      31.888 -15.328   1.173  0.00  0.00     0.150 C 
BRANCH  15  16
ATOM     16  C   UNL d   1      31.622 -16.351   0.120  0.00  0.00     0.254 C 
BRANCH  16  17
ATOM     17  N   UNL d   1      30.446 -17.223   0.051  0.00  0.00    -0.073 N 
ATOM     18  C   UNL d   1      30.811 -18.257  -0.939  0.00  0.00     0.269 C 
ATOM     19  H   UNL d   1      30.295 -17.656   0.977  0.00  0.00     0.279 HD
BRANCH  17  20
ATOM     20  C   UNL d   1      29.176 -16.461  -0.286  0.00  0.00     0.239 C 
BRANCH  20  21
ATOM     21  C   UNL d   1      28.253 -17.073  -1.380  0.00  0.00     0.066 C 
BRANCH  21  22
ATOM     22  C   UNL d   1      26.860 -17.306  -0.852  0.00  0.00    -0.057 A 
ATOM     23  C   UNL d   1      26.682 -17.898   0.409  0.00  0.00     0.007 A 
ATOM     24  C   UNL d   1      25.424 -18.201   0.891  0.00  0.00     0.001 A 
ATOM     25  C   UNL d   1      24.311 -17.857   0.142  0.00  0.00     0.000 A 
ATOM     26  C   UNL d   1      24.462 -17.304  -1.130  0.00  0.00     0.001 A 
ATOM     27  C   UNL d   1      25.735 -17.052  -1.645  0.00  0.00     0.007 A 
ENDBRANCH  21  22
ENDBRANCH  20  21
ENDBRANCH  17  20
ENDBRANCH  16  17
ENDBRANCH  15  16
ENDBRANCH  13  15
ENDBRANCH   3  11
BRANCH   1  28
ATOM     28  N   UNL d   1      26.796 -13.834  -0.354  0.00  0.00    -0.342 N 
ATOM     29  H   UNL d   1      26.139 -13.085  -0.143  0.00  0.00     0.167 HD
BRANCH  28  30
ATOM     30  C   UNL d   1      26.923 -13.926  -1.853  0.00  0.00     0.067 A 
ATOM     31  C   UNL d   1      25.830 -14.080  -2.749  0.00  0.00     0.035 A 
ATOM     32  C   UNL d   1      25.955 -14.490  -4.164  0.00  0.00     0.039 A 
ATOM     33  C   UNL d   1      27.170 -14.681  -4.799  0.00  0.00     0.070 A 
ATOM     34  C   UNL d   1      28.229 -14.497  -3.977  0.00  0.00     0.075 A 
ATOM     35  C   UNL d   1      28.094 -14.127  -2.570  0.00  0.00     0.097 A 
BRANCH  33  36
ATOM     36  O   UNL d   1      27.276 -14.953  -6.133  0.00  0.00    -0.356 OA
ATOM     37  C   UNL d   1      28.569 -14.820  -6.758  0.00  0.00     0.210 C 
ENDBRANCH  33  36
BRANCH  35  38
ATOM     38  O   UNL d   1      29.226 -13.904  -1.882  0.00  0.00    -0.354 OA
ATOM     39  C   UNL d   1      29.724 -12.701  -2.371  0.00  0.00     0.210 C 
ENDBRANCH  35  38
ENDBRANCH  28  30
ENDBRANCH   1  28
TORSDOF 11
ENDMDL
MODEL 5
REMARK VINA RESULT:    -8.833      3.518      7.013
REMARK INTER + INTRA:         -15.350
REMARK INTER:                 -12.114
REMARK INTRA:                  -3.236
REMARK CONF_INDEPENDENT:        3.281
REMARK UNBOUND:                -3.236
REMARK  11 active torsions:
REMARK  status: ('A' for Active; 'I' for Inactive)
REMARK    1  A    between atoms: O_2  and  C_3 
REMARK    2  A    between atoms: C_6  and  N_7 
REMARK    3  A    between atoms: N_7  and  C_8 
REMARK    4  A    between atoms: C_10  and  C_11 
REMARK       I    between atoms: C_11  and  N_13 
REMARK    5  A    between atoms: N_13  and  C_14 
REMARK    6  A    between atoms: C_14  and  C_15 
REMARK    7  A    between atoms: N_16  and  C_15 
REMARK    8  A    between atoms: N_16  and  C_18 
REMARK    9  A    between atoms: C_18  and  C_19 
REMARK   10  A    between atoms: C_19  and  C_20 
REMARK   11  A    between atoms: C_33  and  O_34 
ROOT
ATOM      1  C   UNL d   1      26.732 -14.674   0.037  0.00  0.00     0.115 C 
ATOM      2  C   UNL d   1      28.024 -14.851   0.385  0.00  0.00     0.111 C 
ATOM      3  C   UNL d   1      28.462 -14.030   1.457  0.00  0.00     0.035 C 
ATOM      4  C   UNL d   1      28.711 -12.708   1.206  0.00  0.00     0.005 C 
ATOM      5  C   UNL d   1      29.773 -12.039   1.953  0.00  0.00     0.014 C 
ATOM      6  C   UNL d   1      30.086 -10.706   1.830  0.00  0.00     0.001 C 
ATOM      7  C   UNL d   1      29.390 -10.060   0.843  0.00  0.00     0.002 C 
ATOM      8  C   UNL d   1      28.286 -10.754   0.151  0.00  0.00     0.032 C 
ATOM      9  C   UNL d   1      27.793 -12.188   0.321  0.00  0.00     0.069 C 
ATOM     10  N   UNL d   1      26.679 -13.269  -0.179  0.00  0.00    -0.234 NA
ENDROOT
BRANCH   3  11
ATOM     11  C   UNL d   1      27.885 -14.144   2.823  0.00  0.00     0.249 C 
ATOM     12  O   UNL d   1      26.766 -13.652   3.132  0.00  0.00    -0.268 OA
ATOM     13  N   UNL d   1      28.581 -14.800   3.774  0.00  0.00    -0.355 N 
ATOM     14  H   UNL d   1      29.387 -15.376   3.497  0.00  0.00     0.162 HD
BRANCH  13  15
ATOM     15  C   UNL d   1      28.071 -14.707   5.121  0.00  0.00     0.150 C 
BRANCH  15  16
ATOM     16  C   UNL d   1      29.185 -14.580   6.107  0.00  0.00     0.254 C 
BRANCH  16  17
ATOM     17  N   UNL d   1      30.318 -13.655   6.004  0.00  0.00    -0.073 N 
ATOM     18  C   UNL d   1      30.731 -13.422   7.403  0.00  0.00     0.269 C 
ATOM     19  H   UNL d   1      31.079 -14.116   5.481  0.00  0.00     0.279 HD
BRANCH  17  20
ATOM     20  C   UNL d   1      29.968 -12.389   5.241  0.00  0.00     0.239 C 
BRANCH  20  21
ATOM     21  C   UNL d   1      29.189 -11.287   6.018  0.00  0.00     0.066 C 
BRANCH  21  22
ATOM     22  C   UNL d   1      28.368 -10.436   5.082  0.00  0.00    -0.057 A 
ATOM     23  C   UNL d   1      27.513 -11.048   4.152  0.00  0.00     0.007 A 
ATOM     24  C   UNL d   1      26.807 -10.306   3.225  0.00  0.00     0.001 A 
ATOM     25  C   UNL d   1      26.896  -8.925   3.255  0.00  0.00     0.000 A 
ATOM     26  C   UNL d   1      27.768  -8.294   4.144  0.00  0.00     0.001 A 
ATOM     27  C   UNL d   1      28.528  -9.047   5.041  0.00  0.00     0.007 A 
ENDBRANCH  21  22
ENDBRANCH  20  21
ENDBRANCH  17  20
ENDBRANCH  16  17
ENDBRANCH  15  16
ENDBRANCH  13  15
ENDBRANCH   3  11
BRANCH   1  28
ATOM     28  N   UNL d   1      26.129 -15.872  -0.795  0.00  0.00    -0.342 N 
ATOM     29  H   UNL d   1      26.931 -16.395  -1.142  0.00  0.00     0.167 HD
BRANCH  28  30
ATOM     30  C   UNL d   1      24.935 -16.791  -0.819  0.00  0.00     0.067 A 
ATOM     31  C   UNL d   1      23.594 -16.369  -1.031  0.00  0.00     0.035 A 
ATOM     32  C   UNL d   1      22.399 -17.189  -0.740  0.00  0.00     0.039 A 
ATOM     33  C   UNL d   1      22.461 -18.504  -0.312  0.00  0.00     0.070 A 
ATOM     34  C   UNL d   1      23.729 -18.944  -0.145  0.00  0.00     0.075 A 
ATOM     35  C   UNL d   1      24.904 -18.113  -0.400  0.00  0.00     0.097 A 
BRANCH  33  36
ATOM     36  O   UNL d   1      21.353 -19.286  -0.151  0.00  0.00    -0.356 OA
ATOM     37  C   UNL d   1      20.164 -18.949  -0.894  0.00  0.00     0.210 C 
ENDBRANCH  33  36
BRANCH  35  38
ATOM     38  O   UNL d   1      26.108 -18.694  -0.264  0.00  0.00    -0.354 OA
ATOM     39  C   UNL d   1      26.613 -18.220   0.943  0.00  0.00     0.210 C 
ENDBRANCH  35  38
ENDBRANCH  28  30
ENDBRANCH   1  28
TORSDOF 11
ENDMDL
MODEL 6
REMARK VINA RESULT:    -8.676      2.110      4.679
REMARK INTER + INTRA:         -15.740
REMARK INTER:                 -11.957
REMARK INTRA:                  -3.783
REMARK CONF_INDEPENDENT:        3.281
REMARK UNBOUND:                -3.783
REMARK  11 active torsions:
REMARK  status: ('A' for Active; 'I' for Inactive)
REMARK    1  A    between atoms: O_2  and  C_3 
REMARK    2  A    between atoms: C_6  and  N_7 
REMARK    3  A    between atoms: N_7  and  C_8 
REMARK    4  A    between atoms: C_10  and  C_11 
REMARK       I    between atoms: C_11  and  N_13 
REMARK    5  A    between atoms: N_13  and  C_14 
REMARK    6  A    between atoms: C_14  and  C_15 
REMARK    7  A    between atoms: N_16  and  C_15 
REMARK    8  A    between atoms: N_16  and  C_18 
REMARK    9  A    between atoms: C_18  and  C_19 
REMARK   10  A    between atoms: C_19  and  C_20 
REMARK   11  A    between atoms: C_33  and  O_34 
ROOT
ATOM      1  C   UNL d   1      27.177 -15.035   0.746  0.00  0.00     0.115 C 
ATOM      2  C   UNL d   1      27.395 -13.719   0.948  0.00  0.00     0.111 C 
ATOM      3  C   UNL d   1      28.645 -13.416   1.548  0.00  0.00     0.035 C 
ATOM      4  C   UNL d   1      28.798 -13.646   2.888  0.00  0.00     0.005 C 
ATOM      5  C   UNL d   1      29.665 -12.759   3.659  0.00  0.00     0.014 C 
ATOM      6  C   UNL d   1      29.940 -12.914   4.997  0.00  0.00     0.001 C 
ATOM      7  C   UNL d   1      29.230 -13.920   5.598  0.00  0.00     0.002 C 
ATOM      8  C   UNL d   1      28.410 -14.831   4.775  0.00  0.00     0.032 C 
ATOM      9  C   UNL d   1      28.157 -14.804   3.270  0.00  0.00     0.069 C 
ATOM     10  N   UNL d   1      27.402 -15.570   2.044  0.00  0.00    -0.234 NA
ENDROOT
BRANCH   3  11
ATOM     11  C   UNL d   1      29.936 -13.715   0.873  0.00  0.00     0.249 C 
ATOM     12  O   UNL d   1      30.549 -12.865   0.171  0.00  0.00    -0.268 OA
ATOM     13  N   UNL d   1      30.479 -14.941   1.014  0.00  0.00    -0.355 N 
ATOM     14  H   UNL d   1      30.108 -15.573   1.736  0.00  0.00     0.162 HD
BRANCH  13  15
ATOM     15  C   UNL d   1      31.620 -15.238   0.180  0.00  0.00     0.150 C 
BRANCH  15  16
ATOM     16  C   UNL d   1      31.532 -16.621  -0.374  0.00  0.00     0.254 C 
BRANCH  16  17
ATOM     17  N   UNL d   1      30.369 -17.508  -0.280  0.00  0.00    -0.073 N 
ATOM     18  C   UNL d   1      30.781 -18.732  -0.999  0.00  0.00     0.269 C 
ATOM     19  H   UNL d   1      30.192 -17.724   0.714  0.00  0.00     0.279 HD
BRANCH  17  20
ATOM     20  C   UNL d   1      29.103 -16.867  -0.820  0.00  0.00     0.239 C 
BRANCH  20  21
ATOM     21  C   UNL d   1      29.038 -16.612  -2.355  0.00  0.00     0.066 C 
BRANCH  21  22
ATOM     22  C   UNL d   1      28.171 -15.420  -2.674  0.00  0.00    -0.057 A 
ATOM     23  C   UNL d   1      27.067 -15.570  -3.529  0.00  0.00     0.007 A 
ATOM     24  C   UNL d   1      26.298 -14.487  -3.909  0.00  0.00     0.001 A 
ATOM     25  C   UNL d   1      26.584 -13.238  -3.386  0.00  0.00     0.000 A 
ATOM     26  C   UNL d   1      27.698 -13.056  -2.565  0.00  0.00     0.001 A 
ATOM     27  C   UNL d   1      28.512 -14.139  -2.228  0.00  0.00     0.007 A 
ENDBRANCH  21  22
ENDBRANCH  20  21
ENDBRANCH  17  20
ENDBRANCH  16  17
ENDBRANCH  15  16
ENDBRANCH  13  15
ENDBRANCH   3  11
BRANCH   1  28
ATOM     28  N   UNL d   1      26.047 -15.336  -0.315  0.00  0.00    -0.342 N 
ATOM     29  H   UNL d   1      26.384 -14.943  -1.192  0.00  0.00     0.167 HD
BRANCH  28  30
ATOM     30  C   UNL d   1      25.004 -16.372  -0.645  0.00  0.00     0.067 A 
ATOM     31  C   UNL d   1      23.632 -16.089  -0.891  0.00  0.00     0.035 A 
ATOM     32  C   UNL d   1      22.553 -17.099  -0.895  0.00  0.00     0.039 A 
ATOM     33  C   UNL d   1      22.778 -18.457  -0.750  0.00  0.00     0.070 A 
ATOM     34  C   UNL d   1      24.083 -18.757  -0.558  0.00  0.00     0.075 A 
ATOM     35  C   UNL d   1      25.139 -17.747  -0.519  0.00  0.00     0.097 A 
BRANCH  33  36
ATOM     36  O   UNL d   1      21.788 -19.390  -0.864  0.00  0.00    -0.356 OA
ATOM     37  C   UNL d   1      20.419 -18.936  -0.902  0.00  0.00     0.210 C 
ENDBRANCH  33  36
BRANCH  35  38
ATOM     38  O   UNL d   1      26.403 -18.184  -0.394  0.00  0.00    -0.354 OA
ATOM     39  C   UNL d   1      26.589 -18.392   0.969  0.00  0.00     0.210 C 
ENDBRANCH  35  38
ENDBRANCH  28  30
ENDBRANCH   1  28
TORSDOF 11
ENDMDL
MODEL 7
REMARK VINA RESULT:    -8.566      2.809      6.405
REMARK INTER + INTRA:         -15.436
REMARK INTER:                 -11.847
REMARK INTRA:                  -3.589
REMARK CONF_INDEPENDENT:        3.281
REMARK UNBOUND:                -3.589
REMARK  11 active torsions:
REMARK  status: ('A' for Active; 'I' for Inactive)
REMARK    1  A    between atoms: O_2  and  C_3 
REMARK    2  A    between atoms: C_6  and  N_7 
REMARK    3  A    between atoms: N_7  and  C_8 
REMARK    4  A    between atoms: C_10  and  C_11 
REMARK       I    between atoms: C_11  and  N_13 
REMARK    5  A    between atoms: N_13  and  C_14 
REMARK    6  A    between atoms: C_14  and  C_15 
REMARK    7  A    between atoms: N_16  and  C_15 
REMARK    8  A    between atoms: N_16  and  C_18 
REMARK    9  A    between atoms: C_18  and  C_19 
REMARK   10  A    between atoms: C_19  and  C_20 
REMARK   11  A    between atoms: C_33  and  O_34 
ROOT
ATOM      1  C   UNL d   1      27.803 -17.005  -0.439  0.00  0.00     0.115 C 
ATOM      2  C   UNL d   1      28.721 -17.991  -0.520  0.00  0.00     0.111 C 
ATOM      3  C   UNL d   1      30.029 -17.550  -0.849  0.00  0.00     0.035 C 
ATOM      4  C   UNL d   1      30.292 -17.199  -2.146  0.00  0.00     0.005 C 
ATOM      5  C   UNL d   1      31.627 -17.446  -2.684  0.00  0.00     0.014 C 
ATOM      6  C   UNL d   1      32.030 -17.094  -3.950  0.00  0.00     0.001 C 
ATOM      7  C   UNL d   1      31.026 -16.587  -4.732  0.00  0.00     0.002 C 
ATOM      8  C   UNL d   1      29.708 -16.298  -4.135  0.00  0.00     0.032 C 
ATOM      9  C   UNL d   1      29.222 -16.539  -2.709  0.00  0.00     0.069 C 
ATOM     10  N   UNL d   1      27.956 -16.361  -1.697  0.00  0.00    -0.234 NA
ENDROOT
BRANCH   3  11
ATOM     11  C   UNL d   1      30.805 -16.649   0.044  0.00  0.00     0.249 C 
ATOM     12  O   UNL d   1      30.641 -15.398   0.057  0.00  0.00    -0.268 OA
ATOM     13  N   UNL d   1      31.720 -17.184   0.877  0.00  0.00    -0.355 N 
ATOM     14  H   UNL d   1      31.726 -18.201   1.028  0.00  0.00     0.162 HD
BRANCH  13  15
ATOM     15  C   UNL d   1      32.579 -16.252   1.570  0.00  0.00     0.150 C 
BRANCH  15  16
ATOM     16  C   UNL d   1      31.905 -15.706   2.785  0.00  0.00     0.254 C 
BRANCH  16  17
ATOM     17  N   UNL d   1      30.739 -14.818   2.790  0.00  0.00    -0.073 N 
ATOM     18  C   UNL d   1      31.242 -13.545   2.232  0.00  0.00     0.269 C 
ATOM     19  H   UNL d   1      30.014 -15.214   2.171  0.00  0.00     0.279 HD
BRANCH  17  20
ATOM     20  C   UNL d   1      30.113 -14.687   4.168  0.00  0.00     0.239 C 
BRANCH  20  21
ATOM     21  C   UNL d   1      28.566 -14.825   4.259  0.00  0.00     0.066 C 
BRANCH  21  22
ATOM     22  C   UNL d   1      27.885 -14.113   3.117  0.00  0.00    -0.057 A 
ATOM     23  C   UNL d   1      27.782 -14.741   1.865  0.00  0.00     0.007 A 
ATOM     24  C   UNL d   1      27.239 -14.090   0.775  0.00  0.00     0.001 A 
ATOM     25  C   UNL d   1      26.727 -12.814   0.935  0.00  0.00     0.000 A 
ATOM     26  C   UNL d   1      26.852 -12.153   2.159  0.00  0.00     0.001 A 
ATOM     27  C   UNL d   1      27.455 -12.788   3.246  0.00  0.00     0.007 A 
ENDBRANCH  21  22
ENDBRANCH  20  21
ENDBRANCH  17  20
ENDBRANCH  16  17
ENDBRANCH  15  16
ENDBRANCH  13  15
ENDBRANCH   3  11
BRANCH   1  28
ATOM     28  N   UNL d   1      26.506 -17.410   0.365  0.00  0.00    -0.342 N 
ATOM     29  H   UNL d   1      26.711 -17.197   1.340  0.00  0.00     0.167 HD
BRANCH  28  30
ATOM     30  C   UNL d   1      25.008 -17.464   0.211  0.00  0.00     0.067 A 
ATOM     31  C   UNL d   1      24.195 -18.566   0.593  0.00  0.00     0.035 A 
ATOM     32  C   UNL d   1      22.796 -18.767   0.161  0.00  0.00     0.039 A 
ATOM     33  C   UNL d   1      22.089 -17.847  -0.594  0.00  0.00     0.070 A 
ATOM     34  C   UNL d   1      22.829 -16.766  -0.934  0.00  0.00     0.075 A 
ATOM     35  C   UNL d   1      24.224 -16.594  -0.533  0.00  0.00     0.097 A 
BRANCH  33  36
ATOM     36  O   UNL d   1      20.765 -17.992  -0.895  0.00  0.00    -0.356 OA
ATOM     37  C   UNL d   1      20.248 -19.325  -1.083  0.00  0.00     0.210 C 
ENDBRANCH  33  36
BRANCH  35  38
ATOM     38  O   UNL d   1      24.823 -15.441  -0.874  0.00  0.00    -0.354 OA
ATOM     39  C   UNL d   1      25.095 -15.555  -2.234  0.00  0.00     0.210 C 
ENDBRANCH  35  38
ENDBRANCH  28  30
ENDBRANCH   1  28
TORSDOF 11
ENDMDL
MODEL 8
REMARK VINA RESULT:    -8.367      4.269      7.018
REMARK INTER + INTRA:         -15.327
REMARK INTER:                 -11.648
REMARK INTRA:                  -3.678
REMARK CONF_INDEPENDENT:        3.281
REMARK UNBOUND:                -3.678
REMARK  11 active torsions:
REMARK  status: ('A' for Active; 'I' for Inactive)
REMARK    1  A    between atoms: O_2  and  C_3 
REMARK    2  A    between atoms: C_6  and  N_7 
REMARK    3  A    between atoms: N_7  and  C_8 
REMARK    4  A    between atoms: C_10  and  C_11 
REMARK       I    between atoms: C_11  and  N_13 
REMARK    5  A    between atoms: N_13  and  C_14 
REMARK    6  A    between atoms: C_14  and  C_15 
REMARK    7  A    between atoms: N_16  and  C_15 
REMARK    8  A    between atoms: N_16  and  C_18 
REMARK    9  A    between atoms: C_18  and  C_19 
REMARK   10  A    between atoms: C_19  and  C_20 
REMARK   11  A    between atoms: C_33  and  O_34 
ROOT
ATOM      1  C   UNL d   1      29.424 -15.857  -5.283  0.00  0.00     0.115 C 
ATOM      2  C   UNL d   1      29.602 -14.581  -4.880  0.00  0.00     0.111 C 
ATOM      3  C   UNL d   1      28.894 -14.232  -3.700  0.00  0.00     0.035 C 
ATOM      4  C   UNL d   1      27.546 -14.015  -3.789  0.00  0.00     0.005 C 
ATOM      5  C   UNL d   1      26.936 -13.021  -2.910  0.00  0.00     0.014 C 
ATOM      6  C   UNL d   1      25.589 -12.747  -2.867  0.00  0.00     0.001 C 
ATOM      7  C   UNL d   1      24.857 -13.409  -3.817  0.00  0.00     0.002 C 
ATOM      8  C   UNL d   1      25.499 -14.448  -4.645  0.00  0.00     0.032 C 
ATOM      9  C   UNL d   1      26.956 -14.900  -4.664  0.00  0.00     0.069 C 
ATOM     10  N   UNL d   1      28.006 -15.946  -5.346  0.00  0.00    -0.234 NA
ENDROOT
BRANCH   3  11
ATOM     11  C   UNL d   1      29.177 -14.880  -2.391  0.00  0.00     0.249 C 
ATOM     12  O   UNL d   1      29.520 -14.226  -1.370  0.00  0.00    -0.268 OA
ATOM     13  N   UNL d   1      29.063 -16.219  -2.286  0.00  0.00    -0.355 N 
ATOM     14  H   UNL d   1      28.594 -16.742  -3.038  0.00  0.00     0.162 HD
BRANCH  13  15
ATOM     15  C   UNL d   1      29.541 -16.810  -1.059  0.00  0.00     0.150 C 
BRANCH  15  16
ATOM     16  C   UNL d   1      28.578 -16.577   0.058  0.00  0.00     0.254 C 
BRANCH  16  17
ATOM     17  N   UNL d   1      27.810 -15.349   0.284  0.00  0.00    -0.073 N 
ATOM     18  C   UNL d   1      27.785 -15.196   1.753  0.00  0.00     0.269 C 
ATOM     19  H   UNL d   1      28.313 -14.556  -0.147  0.00  0.00     0.279 HD
BRANCH  17  20
ATOM     20  C   UNL d   1      26.435 -15.395  -0.359  0.00  0.00     0.239 C 
BRANCH  20  21
ATOM     21  C   UNL d   1      26.072 -16.678  -1.163  0.00  0.00     0.066 C 
BRANCH  21  22
ATOM     22  C   UNL d   1      24.691 -17.171  -0.812  0.00  0.00    -0.057 A 
ATOM     23  C   UNL d   1      24.490 -18.527  -0.510  0.00  0.00     0.007 A 
ATOM     24  C   UNL d   1      23.228 -19.031  -0.264  0.00  0.00     0.001 A 
ATOM     25  C   UNL d   1      22.146 -18.168  -0.251  0.00  0.00     0.000 A 
ATOM     26  C   UNL d   1      22.313 -16.823  -0.585  0.00  0.00     0.001 A 
ATOM     27  C   UNL d   1      23.580 -16.324  -0.894  0.00  0.00     0.007 A 
ENDBRANCH  21  22
ENDBRANCH  20  21
ENDBRANCH  17  20
ENDBRANCH  16  17
ENDBRANCH  15  16
ENDBRANCH  13  15
ENDBRANCH   3  11
BRANCH   1  28
ATOM     28  N   UNL d   1      30.537 -16.371  -6.277  0.00  0.00    -0.342 N 
ATOM     29  H   UNL d   1      31.341 -15.764  -6.125  0.00  0.00     0.167 HD
BRANCH  28  30
ATOM     30  C   UNL d   1      31.035 -17.643  -6.912  0.00  0.00     0.067 A 
ATOM     31  C   UNL d   1      31.745 -17.708  -8.142  0.00  0.00     0.035 A 
ATOM     32  C   UNL d   1      31.953 -18.943  -8.928  0.00  0.00     0.039 A 
ATOM     33  C   UNL d   1      31.553 -20.197  -8.501  0.00  0.00     0.070 A 
ATOM     34  C   UNL d   1      30.913 -20.168  -7.310  0.00  0.00     0.075 A 
ATOM     35  C   UNL d   1      30.679 -18.936  -6.557  0.00  0.00     0.097 A 
BRANCH  33  36
ATOM     36  O   UNL d   1      31.846 -21.343  -9.183  0.00  0.00    -0.356 OA
ATOM     37  C   UNL d   1      32.281 -22.495  -8.431  0.00  0.00     0.210 C 
ENDBRANCH  33  36
BRANCH  35  38
ATOM     38  O   UNL d   1      30.095 -19.054  -5.353  0.00  0.00    -0.354 OA
ATOM     39  C   UNL d   1      31.136 -19.001  -4.431  0.00  0.00     0.210 C 
ENDBRANCH  35  38
ENDBRANCH  28  30
ENDBRANCH   1  28
TORSDOF 11
ENDMDL
MODEL 9
REMARK VINA RESULT:    -7.675      2.917      5.351
REMARK INTER + INTRA:         -15.383
REMARK INTER:                 -10.957
REMARK INTRA:                  -4.427
REMARK CONF_INDEPENDENT:        3.281
REMARK UNBOUND:                -4.427
REMARK  11 active torsions:
REMARK  status: ('A' for Active; 'I' for Inactive)
REMARK    1  A    between atoms: O_2  and  C_3 
REMARK    2  A    between atoms: C_6  and  N_7 
REMARK    3  A    between atoms: N_7  and  C_8 
REMARK    4  A    between atoms: C_10  and  C_11 
REMARK       I    between atoms: C_11  and  N_13 
REMARK    5  A    between atoms: N_13  and  C_14 
REMARK    6  A    between atoms: C_14  and  C_15 
REMARK    7  A    between atoms: N_16  and  C_15 
REMARK    8  A    between atoms: N_16  and  C_18 
REMARK    9  A    between atoms: C_18  and  C_19 
REMARK   10  A    between atoms: C_19  and  C_20 
REMARK   11  A    between atoms: C_33  and  O_34 
ROOT
ATOM      1  C   UNL d   1      27.217 -14.057   0.017  0.00  0.00     0.115 C 
ATOM      2  C   UNL d   1      27.268 -15.060   0.917  0.00  0.00     0.111 C 
ATOM      3  C   UNL d   1      27.126 -16.358   0.360  0.00  0.00     0.035 C 
ATOM      4  C   UNL d   1      25.879 -16.769  -0.027  0.00  0.00     0.005 C 
ATOM      5  C   UNL d   1      25.535 -18.183   0.096  0.00  0.00     0.014 C 
ATOM      6  C   UNL d   1      24.338 -18.728  -0.303  0.00  0.00     0.001 C 
ATOM      7  C   UNL d   1      23.421 -17.803  -0.729  0.00  0.00     0.002 C 
ATOM      8  C   UNL d   1      23.825 -16.393  -0.894  0.00  0.00     0.032 C 
ATOM      9  C   UNL d   1      25.169 -15.735  -0.596  0.00  0.00     0.069 C 
ATOM     10  N   UNL d   1      25.991 -14.328  -0.652  0.00  0.00    -0.234 NA
ENDROOT
BRANCH   3  11
ATOM     11  C   UNL d   1      28.118 -16.918  -0.596  0.00  0.00     0.249 C 
ATOM     12  O   UNL d   1      27.861 -17.092  -1.818  0.00  0.00    -0.268 OA
ATOM     13  N   UNL d   1      29.344 -17.252  -0.145  0.00  0.00    -0.355 N 
ATOM     14  H   UNL d   1      29.639 -16.933   0.787  0.00  0.00     0.162 HD
BRANCH  13  15
ATOM     15  C   UNL d   1      30.192 -17.972  -1.066  0.00  0.00     0.150 C 
BRANCH  15  16
ATOM     16  C   UNL d   1      30.628 -17.094  -2.191  0.00  0.00     0.254 C 
BRANCH  16  17
ATOM     17  N   UNL d   1      29.863 -16.823  -3.411  0.00  0.00    -0.073 N 
ATOM     18  C   UNL d   1      30.431 -17.747  -4.415  0.00  0.00     0.269 C 
ATOM     19  H   UNL d   1      28.870 -17.050  -3.241  0.00  0.00     0.279 HD
BRANCH  17  20
ATOM     20  C   UNL d   1      29.912 -15.360  -3.816  0.00  0.00     0.239 C 
BRANCH  20  21
ATOM     21  C   UNL d   1      29.128 -14.352  -2.927  0.00  0.00     0.066 C 
BRANCH  21  22
ATOM     22  C   UNL d   1      27.723 -14.153  -3.435  0.00  0.00    -0.057 A 
ATOM     23  C   UNL d   1      27.060 -12.938  -3.197  0.00  0.00     0.007 A 
ATOM     24  C   UNL d   1      25.745 -12.748  -3.575  0.00  0.00     0.001 A 
ATOM     25  C   UNL d   1      25.086 -13.755  -4.260  0.00  0.00     0.000 A 
ATOM     26  C   UNL d   1      25.709 -14.986  -4.475  0.00  0.00     0.001 A 
ATOM     27  C   UNL d   1      27.018 -15.200  -4.039  0.00  0.00     0.007 A 
ENDBRANCH  21  22
ENDBRANCH  20  21
ENDBRANCH  17  20
ENDBRANCH  16  17
ENDBRANCH  15  16
ENDBRANCH  13  15
ENDBRANCH   3  11
BRANCH   1  28
ATOM     28  N   UNL d   1      27.830 -12.701   0.542  0.00  0.00    -0.342 N 
ATOM     29  H   UNL d   1      28.744 -12.624   0.100  0.00  0.00     0.167 HD
BRANCH  28  30
ATOM     30  C   UNL d   1      27.409 -11.318   0.969  0.00  0.00     0.067 A 
ATOM     31  C   UNL d   1      26.602 -11.033   2.105  0.00  0.00     0.035 A 
ATOM     32  C   UNL d   1      25.923  -9.744   2.351  0.00  0.00     0.039 A 
ATOM     33  C   UNL d   1      26.075  -8.633   1.539  0.00  0.00     0.070 A 
ATOM     34  C   UNL d   1      26.875  -8.866   0.473  0.00  0.00     0.075 A 
ATOM     35  C   UNL d   1      27.513 -10.156   0.219  0.00  0.00     0.097 A 
BRANCH  33  36
ATOM     36  O   UNL d   1      25.530  -7.417   1.834  0.00  0.00    -0.356 OA
ATOM     37  C   UNL d   1      25.533  -6.399   0.812  0.00  0.00     0.210 C 
ENDBRANCH  33  36
BRANCH  35  38
ATOM     38  O   UNL d   1      28.342 -10.234  -0.836  0.00  0.00    -0.354 OA
ATOM     39  C   UNL d   1      27.611  -9.750  -1.916  0.00  0.00     0.210 C 
ENDBRANCH  35  38
ENDBRANCH  28  30
ENDBRANCH   1  28
TORSDOF 11
ENDMDL
