MODEL 1
REMARK VINA RESULT:    -8.219      0.000      0.000
REMARK INTER + INTRA:         -11.315
REMARK INTER:                 -10.009
REMARK INTRA:                  -1.307
REMARK CONF_INDEPENDENT:        1.790
REMARK UNBOUND:                -1.307
REMARK  6 active torsions:
REMARK  status: ('A' for Active; 'I' for Inactive)
REMARK    1  A    between atoms: C_4  and  C_5 
REMARK    2  A    between atoms: C_12  and  C_13 
REMARK       I    between atoms: C_13  and  N_15 
REMARK    3  A    between atoms: N_15  and  N_16 
REMARK    4  A    between atoms: N_16  and  C_17 
REMARK    5  A    between atoms: C_17  and  N_19 
REMARK    6  A    between atoms: N_19  and  C_20 
ROOT
ATOM      1  C   UNL d   1      29.291 -14.438   5.566  0.00  0.00     0.275 C 
ATOM      2  O   UNL d   1      30.111 -15.366   5.505  0.00  0.00    -0.266 OA
ATOM      3  N   UNL d   1      28.599 -14.029   4.435  0.00  0.00    -0.263 N 
ATOM      4  H   UNL d   1      27.913 -13.278   4.448  0.00  0.00     0.190 HD
ENDROOT
BRANCH   3   5
ATOM      5  N   UNL d   1      28.798 -14.649   3.138  0.00  0.00    -0.273 N 
ATOM      6  H   UNL d   1      29.619 -15.247   3.059  0.00  0.00     0.189 HD
BRANCH   5   7
ATOM      7  C   UNL d   1      27.840 -14.448   2.131  0.00  0.00     0.191 C 
ATOM      8  S   UNL d   1      26.812 -13.106   2.223  0.00  0.00    -0.039 SA
BRANCH   7   9
ATOM      9  N   UNL d   1      27.820 -15.443   1.129  0.00  0.00    -0.331 N 
ATOM     10  H   UNL d   1      28.259 -16.332   1.338  0.00  0.00     0.168 HD
BRANCH   9  11
ATOM     11  C   UNL d   1      26.941 -15.441  -0.023  0.00  0.00     0.045 A 
ATOM     12  C   UNL d   1      27.047 -14.388  -0.942  0.00  0.00     0.030 A 
ATOM     13  C   UNL d   1      26.154 -14.239  -1.999  0.00  0.00     0.003 A 
ATOM     14  C   UNL d   1      25.158 -15.182  -2.201  0.00  0.00     0.012 A 
ATOM     15  C   UNL d   1      25.073 -16.309  -1.375  0.00  0.00    -0.024 A 
ATOM     16  C   UNL d   1      24.082 -17.267  -1.649  0.00  0.00     0.012 A 
ATOM     17  C   UNL d   1      25.972 -16.467  -0.271  0.00  0.00     0.001 A 
ATOM     18  C   UNL d   1      23.948 -18.399  -0.852  0.00  0.00     0.001 A 
ATOM     19  C   UNL d   1      24.800 -18.575   0.232  0.00  0.00     0.001 A 
ATOM     20  C   UNL d   1      25.788 -17.622   0.524  0.00  0.00     0.014 A 
ENDBRANCH   9  11
ENDBRANCH   7   9
ENDBRANCH   5   7
ENDBRANCH   3   5
BRANCH   1  21
ATOM     21  C   UNL d   1      29.011 -13.720   6.820  0.00  0.00     0.098 C 
ATOM     22  C   UNL d   1      28.155 -12.616   7.099  0.00  0.00     0.160 C 
ATOM     23  N   UNL d   1      28.225 -12.179   8.365  0.00  0.00    -0.181 NA
ATOM     24  N   UNL d   1      29.013 -13.084   8.963  0.00  0.00    -0.240 N 
ATOM     25  C   UNL d   1      29.365 -13.012  10.381  0.00  0.00     0.221 C 
ATOM     26  C   UNL d   1      29.591 -13.955   8.059  0.00  0.00     0.138 C 
ATOM     27  C   UNL d   1      30.190 -14.258  10.788  0.00  0.00     0.061 C 
ATOM     28  C   UNL d   1      31.261 -14.532   9.725  0.00  0.00     0.081 C 
ATOM     29  N   UNL d   1      30.543 -14.821   8.487  0.00  0.00    -0.370 N 
ATOM     30  C   UNL d   1      32.201 -13.332   9.544  0.00  0.00     0.032 C 
ATOM     31  H   UNL d   1      30.945 -15.510   7.847  0.00  0.00     0.161 HD
BRANCH  25  32
ATOM     32  C   UNL d   1      28.189 -12.805  11.319  0.00  0.00     0.409 C 
ATOM     33  F   UNL d   1      27.033 -12.456  10.728  0.00  0.00    -0.169 F 
ATOM     34  F   UNL d   1      27.929 -13.914  12.059  0.00  0.00    -0.169 F 
ATOM     35  F   UNL d   1      28.487 -11.826  12.216  0.00  0.00    -0.169 F 
ENDBRANCH  25  32
ENDBRANCH   1  21
TORSDOF 6
ENDMDL
MODEL 2
REMARK VINA RESULT:    -7.939      9.304     11.877
REMARK INTER + INTRA:         -11.034
REMARK INTER:                  -9.729
REMARK INTRA:                  -1.305
REMARK CONF_INDEPENDENT:        1.790
REMARK UNBOUND:                -1.305
REMARK  6 active torsions:
REMARK  status: ('A' for Active; 'I' for Inactive)
REMARK    1  A    between atoms: C_4  and  C_5 
REMARK    2  A    between atoms: C_12  and  C_13 
REMARK       I    between atoms: C_13  and  N_15 
REMARK    3  A    between atoms: N_15  and  N_16 
REMARK    4  A    between atoms: N_16  and  C_17 
REMARK    5  A    between atoms: C_17  and  N_19 
REMARK    6  A    between atoms: N_19  and  C_20 
ROOT
ATOM      1  C   UNL d   1      25.838 -11.561  -3.400  0.00  0.00     0.275 C 
ATOM      2  O   UNL d   1      26.057 -12.126  -2.318  0.00  0.00    -0.266 OA
ATOM      3  N   UNL d   1      25.157 -12.217  -4.416  0.00  0.00    -0.263 N 
ATOM      4  H   UNL d   1      24.951 -11.783  -5.314  0.00  0.00     0.190 HD
ENDROOT
BRANCH   3   5
ATOM      5  N   UNL d   1      24.678 -13.579  -4.275  0.00  0.00    -0.273 N 
ATOM      6  H   UNL d   1      23.746 -13.757  -4.645  0.00  0.00     0.189 HD
BRANCH   5   7
ATOM      7  C   UNL d   1      25.529 -14.549  -3.719  0.00  0.00     0.191 C 
ATOM      8  S   UNL d   1      26.402 -15.572  -4.747  0.00  0.00    -0.039 SA
BRANCH   7   9
ATOM      9  N   UNL d   1      25.539 -14.584  -2.307  0.00  0.00    -0.331 N 
ATOM     10  H   UNL d   1      25.148 -13.792  -1.813  0.00  0.00     0.168 HD
BRANCH   9  11
ATOM     11  C   UNL d   1      25.732 -15.780  -1.511  0.00  0.00     0.045 A 
ATOM     12  C   UNL d   1      27.039 -16.148  -1.166  0.00  0.00     0.030 A 
ATOM     13  C   UNL d   1      27.321 -17.349  -0.520  0.00  0.00     0.003 A 
ATOM     14  C   UNL d   1      26.285 -18.192  -0.146  0.00  0.00     0.012 A 
ATOM     15  C   UNL d   1      24.954 -17.822  -0.372  0.00  0.00    -0.024 A 
ATOM     16  C   UNL d   1      23.935 -18.682   0.072  0.00  0.00     0.012 A 
ATOM     17  C   UNL d   1      24.649 -16.600  -1.053  0.00  0.00     0.001 A 
ATOM     18  C   UNL d   1      22.597 -18.366  -0.139  0.00  0.00     0.001 A 
ATOM     19  C   UNL d   1      22.270 -17.191  -0.804  0.00  0.00     0.001 A 
ATOM     20  C   UNL d   1      23.277 -16.327  -1.263  0.00  0.00     0.014 A 
ENDBRANCH   9  11
ENDBRANCH   7   9
ENDBRANCH   5   7
ENDBRANCH   3   5
BRANCH   1  21
ATOM     21  C   UNL d   1      26.284 -10.185  -3.671  0.00  0.00     0.098 C 
ATOM     22  C   UNL d   1      27.257  -9.368  -3.026  0.00  0.00     0.160 C 
ATOM     23  N   UNL d   1      27.331  -8.121  -3.514  0.00  0.00    -0.181 NA
ATOM     24  N   UNL d   1      26.516  -8.155  -4.579  0.00  0.00    -0.240 N 
ATOM     25  C   UNL d   1      26.291  -6.995  -5.440  0.00  0.00     0.221 C 
ATOM     26  C   UNL d   1      25.790  -9.329  -4.647  0.00  0.00     0.138 C 
ATOM     27  C   UNL d   1      25.394  -7.389  -6.640  0.00  0.00     0.061 C 
ATOM     28  C   UNL d   1      24.218  -8.238  -6.142  0.00  0.00     0.081 C 
ATOM     29  N   UNL d   1      24.802  -9.447  -5.568  0.00  0.00    -0.370 N 
ATOM     30  C   UNL d   1      23.378  -7.489  -5.098  0.00  0.00     0.032 C 
ATOM     31  H   UNL d   1      24.289 -10.325  -5.671  0.00  0.00     0.161 HD
BRANCH  25  32
ATOM     32  C   UNL d   1      27.554  -6.295  -5.910  0.00  0.00     0.409 C 
ATOM     33  F   UNL d   1      27.592  -4.968  -5.699  0.00  0.00    -0.169 F 
ATOM     34  F   UNL d   1      28.667  -6.814  -5.330  0.00  0.00    -0.169 F 
ATOM     35  F   UNL d   1      27.713  -6.488  -7.248  0.00  0.00    -0.169 F 
ENDBRANCH  25  32
ENDBRANCH   1  21
TORSDOF 6
ENDMDL
MODEL 3
REMARK VINA RESULT:    -7.838      0.550      2.001
REMARK INTER + INTRA:         -10.978
REMARK INTER:                  -9.628
REMARK INTRA:                  -1.350
REMARK CONF_INDEPENDENT:        1.790
REMARK UNBOUND:                -1.350
REMARK  6 active torsions:
REMARK  status: ('A' for Active; 'I' for Inactive)
REMARK    1  A    between atoms: C_4  and  C_5 
REMARK    2  A    between atoms: C_12  and  C_13 
REMARK       I    between atoms: C_13  and  N_15 
REMARK    3  A    between atoms: N_15  and  N_16 
REMARK    4  A    between atoms: N_16  and  C_17 
REMARK    5  A    between atoms: C_17  and  N_19 
REMARK    6  A    between atoms: N_19  and  C_20 
ROOT
ATOM      1  C   UNL d   1      29.393 -14.448   5.495  0.00  0.00     0.275 C 
ATOM      2  O   UNL d   1      30.284 -15.309   5.461  0.00  0.00    -0.266 OA
ATOM      3  N   UNL d   1      28.665 -14.137   4.356  0.00  0.00    -0.263 N 
ATOM      4  H   UNL d   1      27.920 -13.443   4.347  0.00  0.00     0.190 HD
ENDROOT
BRANCH   3   5
ATOM      5  N   UNL d   1      28.906 -14.786   3.080  0.00  0.00    -0.273 N 
ATOM      6  H   UNL d   1      29.744 -15.362   3.033  0.00  0.00     0.189 HD
BRANCH   5   7
ATOM      7  C   UNL d   1      27.964 -14.637   2.049  0.00  0.00     0.191 C 
ATOM      8  S   UNL d   1      26.870 -13.347   2.107  0.00  0.00    -0.039 SA
BRANCH   7   9
ATOM      9  N   UNL d   1      28.016 -15.639   1.054  0.00  0.00    -0.331 N 
ATOM     10  H   UNL d   1      28.797 -16.282   1.074  0.00  0.00     0.168 HD
BRANCH   9  11
ATOM     11  C   UNL d   1      26.895 -16.046   0.231  0.00  0.00     0.045 A 
ATOM     12  C   UNL d   1      26.282 -17.277   0.501  0.00  0.00     0.030 A 
ATOM     13  C   UNL d   1      25.290 -17.803  -0.323  0.00  0.00     0.003 A 
ATOM     14  C   UNL d   1      24.840 -17.075  -1.414  0.00  0.00     0.012 A 
ATOM     15  C   UNL d   1      25.344 -15.794  -1.667  0.00  0.00    -0.024 A 
ATOM     16  C   UNL d   1      24.822 -15.070  -2.753  0.00  0.00     0.012 A 
ATOM     17  C   UNL d   1      26.379 -15.248  -0.841  0.00  0.00     0.001 A 
ATOM     18  C   UNL d   1      25.297 -13.799  -3.053  0.00  0.00     0.001 A 
ATOM     19  C   UNL d   1      26.306 -13.246  -2.275  0.00  0.00     0.001 A 
ATOM     20  C   UNL d   1      26.846 -13.960  -1.194  0.00  0.00     0.014 A 
ENDBRANCH   9  11
ENDBRANCH   7   9
ENDBRANCH   5   7
ENDBRANCH   3   5
BRANCH   1  21
ATOM     21  C   UNL d   1      29.062 -13.710   6.725  0.00  0.00     0.098 C 
ATOM     22  C   UNL d   1      28.153 -12.639   6.961  0.00  0.00     0.160 C 
ATOM     23  N   UNL d   1      28.185 -12.164   8.216  0.00  0.00    -0.181 NA
ATOM     24  N   UNL d   1      29.004 -13.017   8.850  0.00  0.00    -0.240 N 
ATOM     25  C   UNL d   1      29.330 -12.892  10.270  0.00  0.00     0.221 C 
ATOM     26  C   UNL d   1      29.633 -13.886   7.978  0.00  0.00     0.138 C 
ATOM     27  C   UNL d   1      30.204 -14.088  10.722  0.00  0.00     0.061 C 
ATOM     28  C   UNL d   1      31.301 -14.342   9.682  0.00  0.00     0.081 C 
ATOM     29  N   UNL d   1      30.616 -14.696   8.443  0.00  0.00    -0.370 N 
ATOM     30  C   UNL d   1      32.190 -13.106   9.481  0.00  0.00     0.032 C 
ATOM     31  H   UNL d   1      31.058 -15.383   7.828  0.00  0.00     0.161 HD
BRANCH  25  32
ATOM     32  C   UNL d   1      28.133 -12.713  11.185  0.00  0.00     0.409 C 
ATOM     33  F   UNL d   1      27.033 -12.200  10.605  0.00  0.00    -0.169 F 
ATOM     34  F   UNL d   1      27.758 -13.882  11.765  0.00  0.00    -0.169 F 
ATOM     35  F   UNL d   1      28.462 -11.882  12.212  0.00  0.00    -0.169 F 
ENDBRANCH  25  32
ENDBRANCH   1  21
TORSDOF 6
ENDMDL
MODEL 4
REMARK VINA RESULT:    -7.723      9.306     12.148
REMARK INTER + INTRA:         -10.870
REMARK INTER:                  -9.513
REMARK INTRA:                  -1.357
REMARK CONF_INDEPENDENT:        1.790
REMARK UNBOUND:                -1.357
REMARK  6 active torsions:
REMARK  status: ('A' for Active; 'I' for Inactive)
REMARK    1  A    between atoms: C_4  and  C_5 
REMARK    2  A    between atoms: C_12  and  C_13 
REMARK       I    between atoms: C_13  and  N_15 
REMARK    3  A    between atoms: N_15  and  N_16 
REMARK    4  A    between atoms: N_16  and  C_17 
REMARK    5  A    between atoms: C_17  and  N_19 
REMARK    6  A    between atoms: N_19  and  C_20 
ROOT
ATOM      1  C   UNL d   1      28.556 -15.579  -4.765  0.00  0.00     0.275 C 
ATOM      2  O   UNL d   1      27.970 -15.200  -5.790  0.00  0.00    -0.266 OA
ATOM      3  N   UNL d   1      28.305 -14.973  -3.541  0.00  0.00    -0.263 N 
ATOM      4  H   UNL d   1      28.759 -15.263  -2.678  0.00  0.00     0.190 HD
ENDROOT
BRANCH   3   5
ATOM      5  N   UNL d   1      27.365 -13.877  -3.397  0.00  0.00    -0.273 N 
ATOM      6  H   UNL d   1      27.712 -12.962  -3.682  0.00  0.00     0.189 HD
BRANCH   5   7
ATOM      7  C   UNL d   1      26.061 -14.149  -2.954  0.00  0.00     0.191 C 
ATOM      8  S   UNL d   1      24.780 -14.075  -4.058  0.00  0.00    -0.039 SA
BRANCH   7   9
ATOM      9  N   UNL d   1      25.954 -14.435  -1.575  0.00  0.00    -0.331 N 
ATOM     10  H   UNL d   1      25.530 -13.735  -0.980  0.00  0.00     0.168 HD
BRANCH   9  11
ATOM     11  C   UNL d   1      26.071 -15.757  -0.993  0.00  0.00     0.045 A 
ATOM     12  C   UNL d   1      27.340 -16.201  -0.594  0.00  0.00     0.030 A 
ATOM     13  C   UNL d   1      27.560 -17.503  -0.152  0.00  0.00     0.003 A 
ATOM     14  C   UNL d   1      26.495 -18.384  -0.040  0.00  0.00     0.012 A 
ATOM     15  C   UNL d   1      25.192 -17.960  -0.324  0.00  0.00    -0.024 A 
ATOM     16  C   UNL d   1      24.137 -18.871  -0.145  0.00  0.00     0.012 A 
ATOM     17  C   UNL d   1      24.951 -16.630  -0.799  0.00  0.00     0.001 A 
ATOM     18  C   UNL d   1      22.825 -18.502  -0.424  0.00  0.00     0.001 A 
ATOM     19  C   UNL d   1      22.562 -17.222  -0.895  0.00  0.00     0.001 A 
ATOM     20  C   UNL d   1      23.606 -16.305  -1.089  0.00  0.00     0.014 A 
ENDBRANCH   9  11
ENDBRANCH   7   9
ENDBRANCH   5   7
ENDBRANCH   3   5
BRANCH   1  21
ATOM     21  C   UNL d   1      29.541 -16.672  -4.782  0.00  0.00     0.098 C 
ATOM     22  C   UNL d   1      30.030 -17.513  -3.742  0.00  0.00     0.160 C 
ATOM     23  N   UNL d   1      31.000 -18.354  -4.131  0.00  0.00    -0.181 NA
ATOM     24  N   UNL d   1      31.050 -18.176  -5.460  0.00  0.00    -0.240 N 
ATOM     25  C   UNL d   1      31.976 -18.910  -6.321  0.00  0.00     0.221 C 
ATOM     26  C   UNL d   1      30.277 -17.108  -5.876  0.00  0.00     0.138 C 
ATOM     27  C   UNL d   1      31.708 -18.564  -7.807  0.00  0.00     0.061 C 
ATOM     28  C   UNL d   1      31.530 -17.048  -7.955  0.00  0.00     0.081 C 
ATOM     29  N   UNL d   1      30.354 -16.696  -7.165  0.00  0.00    -0.370 N 
ATOM     30  C   UNL d   1      32.766 -16.280  -7.465  0.00  0.00     0.032 C 
ATOM     31  H   UNL d   1      29.753 -15.944  -7.507  0.00  0.00     0.161 HD
BRANCH  25  32
ATOM     32  C   UNL d   1      31.993 -20.413  -6.105  0.00  0.00     0.409 C 
ATOM     33  F   UNL d   1      33.095 -20.899  -5.507  0.00  0.00    -0.169 F 
ATOM     34  F   UNL d   1      30.933 -20.830  -5.366  0.00  0.00    -0.169 F 
ATOM     35  F   UNL d   1      31.879 -21.048  -7.303  0.00  0.00    -0.169 F 
ENDBRANCH  25  32
ENDBRANCH   1  21
TORSDOF 6
ENDMDL
MODEL 5
REMARK VINA RESULT:    -7.573      4.900      9.851
REMARK INTER + INTRA:         -10.641
REMARK INTER:                  -9.363
REMARK INTRA:                  -1.279
REMARK CONF_INDEPENDENT:        1.790
REMARK UNBOUND:                -1.279
REMARK  6 active torsions:
REMARK  status: ('A' for Active; 'I' for Inactive)
REMARK    1  A    between atoms: C_4  and  C_5 
REMARK    2  A    between atoms: C_12  and  C_13 
REMARK       I    between atoms: C_13  and  N_15 
REMARK    3  A    between atoms: N_15  and  N_16 
REMARK    4  A    between atoms: N_16  and  C_17 
REMARK    5  A    between atoms: C_17  and  N_19 
REMARK    6  A    between atoms: N_19  and  C_20 
ROOT
ATOM      1  C   UNL d   1      28.808 -15.165   0.233  0.00  0.00     0.275 C 
ATOM      2  O   UNL d   1      28.736 -14.000  -0.183  0.00  0.00    -0.266 OA
ATOM      3  N   UNL d   1      29.899 -15.585   0.980  0.00  0.00    -0.263 N 
ATOM      4  H   UNL d   1      29.989 -16.530   1.346  0.00  0.00     0.190 HD
ENDROOT
BRANCH   3   5
ATOM      5  N   UNL d   1      31.003 -14.700   1.305  0.00  0.00    -0.273 N 
ATOM      6  H   UNL d   1      31.705 -14.589   0.575  0.00  0.00     0.189 HD
BRANCH   5   7
ATOM      7  C   UNL d   1      30.996 -14.023   2.535  0.00  0.00     0.191 C 
ATOM      8  S   UNL d   1      32.306 -13.030   2.940  0.00  0.00    -0.039 SA
BRANCH   7   9
ATOM      9  N   UNL d   1      29.867 -14.280   3.344  0.00  0.00    -0.331 N 
ATOM     10  H   UNL d   1      29.713 -15.233   3.649  0.00  0.00     0.168 HD
BRANCH   9  11
ATOM     11  C   UNL d   1      29.113 -13.269   4.057  0.00  0.00     0.045 A 
ATOM     12  C   UNL d   1      28.448 -12.283   3.314  0.00  0.00     0.030 A 
ATOM     13  C   UNL d   1      27.816 -11.203   3.923  0.00  0.00     0.003 A 
ATOM     14  C   UNL d   1      27.779 -11.113   5.306  0.00  0.00     0.012 A 
ATOM     15  C   UNL d   1      28.335 -12.125   6.097  0.00  0.00    -0.024 A 
ATOM     16  C   UNL d   1      28.229 -12.020   7.494  0.00  0.00     0.012 A 
ATOM     17  C   UNL d   1      29.008 -13.233   5.486  0.00  0.00     0.001 A 
ATOM     18  C   UNL d   1      28.775 -12.993   8.324  0.00  0.00     0.001 A 
ATOM     19  C   UNL d   1      29.440 -14.074   7.760  0.00  0.00     0.001 A 
ATOM     20  C   UNL d   1      29.564 -14.189   6.367  0.00  0.00     0.014 A 
ENDBRANCH   9  11
ENDBRANCH   7   9
ENDBRANCH   5   7
ENDBRANCH   3   5
BRANCH   1  21
ATOM     21  C   UNL d   1      27.760 -16.162  -0.041  0.00  0.00     0.098 C 
ATOM     22  C   UNL d   1      27.697 -17.558   0.235  0.00  0.00     0.160 C 
ATOM     23  N   UNL d   1      26.597 -18.159  -0.245  0.00  0.00    -0.181 NA
ATOM     24  N   UNL d   1      25.861 -17.137  -0.707  0.00  0.00    -0.240 N 
ATOM     25  C   UNL d   1      24.548 -17.323  -1.322  0.00  0.00     0.221 C 
ATOM     26  C   UNL d   1      26.560 -15.944  -0.705  0.00  0.00     0.138 C 
ATOM     27  C   UNL d   1      23.912 -15.948  -1.645  0.00  0.00     0.061 C 
ATOM     28  C   UNL d   1      24.962 -15.038  -2.293  0.00  0.00     0.081 C 
ATOM     29  N   UNL d   1      26.014 -14.854  -1.297  0.00  0.00    -0.370 N 
ATOM     30  C   UNL d   1      25.531 -15.654  -3.580  0.00  0.00     0.032 C 
ATOM     31  H   UNL d   1      26.489 -13.950  -1.262  0.00  0.00     0.161 HD
BRANCH  25  32
ATOM     32  C   UNL d   1      23.591 -18.194  -0.529  0.00  0.00     0.409 C 
ATOM     33  F   UNL d   1      22.417 -17.622  -0.209  0.00  0.00    -0.169 F 
ATOM     34  F   UNL d   1      23.297 -19.349  -1.181  0.00  0.00    -0.169 F 
ATOM     35  F   UNL d   1      24.178 -18.571   0.640  0.00  0.00    -0.169 F 
ENDBRANCH  25  32
ENDBRANCH   1  21
TORSDOF 6
ENDMDL
MODEL 6
REMARK VINA RESULT:    -7.269      5.452      9.409
REMARK INTER + INTRA:         -11.227
REMARK INTER:                  -9.059
REMARK INTRA:                  -2.169
REMARK CONF_INDEPENDENT:        1.790
REMARK UNBOUND:                -2.169
REMARK  6 active torsions:
REMARK  status: ('A' for Active; 'I' for Inactive)
REMARK    1  A    between atoms: C_4  and  C_5 
REMARK    2  A    between atoms: C_12  and  C_13 
REMARK       I    between atoms: C_13  and  N_15 
REMARK    3  A    between atoms: N_15  and  N_16 
REMARK    4  A    between atoms: N_16  and  C_17 
REMARK    5  A    between atoms: C_17  and  N_19 
REMARK    6  A    between atoms: N_19  and  C_20 
ROOT
ATOM      1  C   UNL d   1      28.908 -15.192   0.097  0.00  0.00     0.275 C 
ATOM      2  O   UNL d   1      28.882 -14.066  -0.422  0.00  0.00    -0.266 OA
ATOM      3  N   UNL d   1      29.970 -15.575   0.905  0.00  0.00    -0.263 N 
ATOM      4  H   UNL d   1      30.022 -16.487   1.355  0.00  0.00     0.190 HD
ENDROOT
BRANCH   3   5
ATOM      5  N   UNL d   1      31.093 -14.698   1.177  0.00  0.00    -0.273 N 
ATOM      6  H   UNL d   1      31.239 -13.950   0.501  0.00  0.00     0.189 HD
BRANCH   5   7
ATOM      7  C   UNL d   1      31.840 -14.888   2.351  0.00  0.00     0.191 C 
ATOM      8  S   UNL d   1      33.244 -15.833   2.294  0.00  0.00    -0.039 SA
BRANCH   7   9
ATOM      9  N   UNL d   1      31.299 -14.272   3.501  0.00  0.00    -0.331 N 
ATOM     10  H   UNL d   1      31.914 -13.693   4.059  0.00  0.00     0.168 HD
BRANCH   9  11
ATOM     11  C   UNL d   1      29.883 -14.106   3.762  0.00  0.00     0.045 A 
ATOM     12  C   UNL d   1      29.310 -14.827   4.819  0.00  0.00     0.030 A 
ATOM     13  C   UNL d   1      27.938 -14.828   5.051  0.00  0.00     0.003 A 
ATOM     14  C   UNL d   1      27.102 -14.053   4.262  0.00  0.00     0.012 A 
ATOM     15  C   UNL d   1      27.634 -13.232   3.261  0.00  0.00    -0.024 A 
ATOM     16  C   UNL d   1      26.756 -12.423   2.520  0.00  0.00     0.012 A 
ATOM     17  C   UNL d   1      29.042 -13.235   2.995  0.00  0.00     0.001 A 
ATOM     18  C   UNL d   1      27.233 -11.599   1.507  0.00  0.00     0.001 A 
ATOM     19  C   UNL d   1      28.593 -11.587   1.221  0.00  0.00     0.001 A 
ATOM     20  C   UNL d   1      29.481 -12.397   1.945  0.00  0.00     0.014 A 
ENDBRANCH   9  11
ENDBRANCH   7   9
ENDBRANCH   5   7
ENDBRANCH   3   5
BRANCH   1  21
ATOM     21  C   UNL d   1      27.836 -16.178  -0.113  0.00  0.00     0.098 C 
ATOM     22  C   UNL d   1      27.753 -17.560   0.219  0.00  0.00     0.160 C 
ATOM     23  N   UNL d   1      26.631 -18.157  -0.211  0.00  0.00    -0.181 NA
ATOM     24  N   UNL d   1      25.904 -17.140  -0.695  0.00  0.00    -0.240 N 
ATOM     25  C   UNL d   1      24.572 -17.324  -1.272  0.00  0.00     0.221 C 
ATOM     26  C   UNL d   1      26.625 -15.962  -0.757  0.00  0.00     0.138 C 
ATOM     27  C   UNL d   1      23.955 -15.950  -1.633  0.00  0.00     0.061 C 
ATOM     28  C   UNL d   1      25.006 -15.087  -2.341  0.00  0.00     0.081 C 
ATOM     29  N   UNL d   1      26.084 -14.885  -1.378  0.00  0.00    -0.370 N 
ATOM     30  C   UNL d   1      25.532 -15.763  -3.616  0.00  0.00     0.032 C 
ATOM     31  H   UNL d   1      26.578 -13.989  -1.389  0.00  0.00     0.161 HD
BRANCH  25  32
ATOM     32  C   UNL d   1      23.619 -18.145  -0.423  0.00  0.00     0.409 C 
ATOM     33  F   UNL d   1      23.241 -19.323  -0.952  0.00  0.00    -0.169 F 
ATOM     34  F   UNL d   1      24.135 -18.416   0.802  0.00  0.00    -0.169 F 
ATOM     35  F   UNL d   1      22.482 -17.432  -0.194  0.00  0.00    -0.169 F 
ENDBRANCH  25  32
ENDBRANCH   1  21
TORSDOF 6
ENDMDL
MODEL 7
REMARK VINA RESULT:    -7.086      8.343     10.833
REMARK INTER + INTRA:         -10.748
REMARK INTER:                  -8.876
REMARK INTRA:                  -1.872
REMARK CONF_INDEPENDENT:        1.790
REMARK UNBOUND:                -1.872
REMARK  6 active torsions:
REMARK  status: ('A' for Active; 'I' for Inactive)
REMARK    1  A    between atoms: C_4  and  C_5 
REMARK    2  A    between atoms: C_12  and  C_13 
REMARK       I    between atoms: C_13  and  N_15 
REMARK    3  A    between atoms: N_15  and  N_16 
REMARK    4  A    between atoms: N_16  and  C_17 
REMARK    5  A    between atoms: C_17  and  N_19 
REMARK    6  A    between atoms: N_19  and  C_20 
ROOT
ATOM      1  C   UNL d   1      27.802 -14.754  -5.349  0.00  0.00     0.275 C 
ATOM      2  O   UNL d   1      27.684 -15.200  -6.500  0.00  0.00    -0.266 OA
ATOM      3  N   UNL d   1      28.948 -14.068  -4.970  0.00  0.00    -0.263 N 
ATOM      4  H   UNL d   1      29.077 -13.680  -4.038  0.00  0.00     0.190 HD
ENDROOT
BRANCH   3   5
ATOM      5  N   UNL d   1      30.055 -13.844  -5.881  0.00  0.00    -0.273 N 
ATOM      6  H   UNL d   1      30.238 -12.870  -6.117  0.00  0.00     0.189 HD
BRANCH   5   7
ATOM      7  C   UNL d   1      30.821 -14.941  -6.309  0.00  0.00     0.191 C 
ATOM      8  S   UNL d   1      32.472 -14.729  -6.613  0.00  0.00    -0.039 SA
BRANCH   7   9
ATOM      9  N   UNL d   1      30.092 -16.140  -6.474  0.00  0.00    -0.331 N 
ATOM     10  H   UNL d   1      29.469 -16.207  -7.269  0.00  0.00     0.168 HD
BRANCH   9  11
ATOM     11  C   UNL d   1      30.407 -17.396  -5.823  0.00  0.00     0.045 A 
ATOM     12  C   UNL d   1      30.363 -17.452  -4.423  0.00  0.00     0.030 A 
ATOM     13  C   UNL d   1      30.780 -18.577  -3.718  0.00  0.00     0.003 A 
ATOM     14  C   UNL d   1      31.199 -19.708  -4.403  0.00  0.00     0.012 A 
ATOM     15  C   UNL d   1      31.162 -19.741  -5.802  0.00  0.00    -0.024 A 
ATOM     16  C   UNL d   1      31.545 -20.926  -6.454  0.00  0.00     0.012 A 
ATOM     17  C   UNL d   1      30.755 -18.585  -6.543  0.00  0.00     0.001 A 
ATOM     18  C   UNL d   1      31.537 -21.007  -7.842  0.00  0.00     0.001 A 
ATOM     19  C   UNL d   1      31.155 -19.899  -8.588  0.00  0.00     0.001 A 
ATOM     20  C   UNL d   1      30.780 -18.706  -7.952  0.00  0.00     0.014 A 
ENDBRANCH   9  11
ENDBRANCH   7   9
ENDBRANCH   5   7
ENDBRANCH   3   5
BRANCH   1  21
ATOM     21  C   UNL d   1      26.756 -14.927  -4.329  0.00  0.00     0.098 C 
ATOM     22  C   UNL d   1      25.409 -14.468  -4.277  0.00  0.00     0.160 C 
ATOM     23  N   UNL d   1      24.777 -14.760  -3.130  0.00  0.00    -0.181 NA
ATOM     24  N   UNL d   1      25.655 -15.541  -2.483  0.00  0.00    -0.240 N 
ATOM     25  C   UNL d   1      25.381 -16.114  -1.165  0.00  0.00     0.221 C 
ATOM     26  C   UNL d   1      26.886 -15.578  -3.109  0.00  0.00     0.138 C 
ATOM     27  C   UNL d   1      26.538 -17.053  -0.743  0.00  0.00     0.061 C 
ATOM     28  C   UNL d   1      27.881 -16.378  -1.044  0.00  0.00     0.081 C 
ATOM     29  N   UNL d   1      27.928 -16.187  -2.490  0.00  0.00    -0.370 N 
ATOM     30  C   UNL d   1      28.019 -15.035  -0.311  0.00  0.00     0.032 C 
ATOM     31  H   UNL d   1      28.833 -16.272  -2.958  0.00  0.00     0.161 HD
BRANCH  25  32
ATOM     32  C   UNL d   1      24.038 -16.810  -1.039  0.00  0.00     0.409 C 
ATOM     33  F   UNL d   1      23.822 -17.443   0.127  0.00  0.00    -0.169 F 
ATOM     34  F   UNL d   1      23.002 -15.950  -1.214  0.00  0.00    -0.169 F 
ATOM     35  F   UNL d   1      23.913 -17.742  -2.024  0.00  0.00    -0.169 F 
ENDBRANCH  25  32
ENDBRANCH   1  21
TORSDOF 6
ENDMDL
MODEL 8
REMARK VINA RESULT:    -6.977      9.532     11.690
REMARK INTER + INTRA:         -10.680
REMARK INTER:                  -8.766
REMARK INTRA:                  -1.913
REMARK CONF_INDEPENDENT:        1.790
REMARK UNBOUND:                -1.913
REMARK  6 active torsions:
REMARK  status: ('A' for Active; 'I' for Inactive)
REMARK    1  A    between atoms: C_4  and  C_5 
REMARK    2  A    between atoms: C_12  and  C_13 
REMARK       I    between atoms: C_13  and  N_15 
REMARK    3  A    between atoms: N_15  and  N_16 
REMARK    4  A    between atoms: N_16  and  C_17 
REMARK    5  A    between atoms: C_17  and  N_19 
REMARK    6  A    between atoms: N_19  and  C_20 
ROOT
ATOM      1  C   UNL d   1      28.060 -14.850  -5.557  0.00  0.00     0.275 C 
ATOM      2  O   UNL d   1      27.032 -15.216  -6.145  0.00  0.00    -0.266 OA
ATOM      3  N   UNL d   1      27.987 -13.977  -4.480  0.00  0.00    -0.263 N 
ATOM      4  H   UNL d   1      28.807 -13.661  -3.967  0.00  0.00     0.190 HD
ENDROOT
BRANCH   3   5
ATOM      5  N   UNL d   1      26.726 -13.449  -3.994  0.00  0.00    -0.273 N 
ATOM      6  H   UNL d   1      26.701 -12.442  -3.844  0.00  0.00     0.189 HD
BRANCH   5   7
ATOM      7  C   UNL d   1      25.636 -14.321  -3.833  0.00  0.00     0.191 C 
ATOM      8  S   UNL d   1      24.063 -13.700  -3.895  0.00  0.00    -0.039 SA
BRANCH   7   9
ATOM      9  N   UNL d   1      25.989 -15.668  -3.598  0.00  0.00    -0.331 N 
ATOM     10  H   UNL d   1      26.253 -16.233  -4.395  0.00  0.00     0.168 HD
BRANCH   9  11
ATOM     11  C   UNL d   1      26.344 -16.216  -2.304  0.00  0.00     0.045 A 
ATOM     12  C   UNL d   1      27.665 -16.074  -1.857  0.00  0.00     0.030 A 
ATOM     13  C   UNL d   1      28.119 -16.686  -0.692  0.00  0.00     0.003 A 
ATOM     14  C   UNL d   1      27.239 -17.413   0.095  0.00  0.00     0.012 A 
ATOM     15  C   UNL d   1      25.886 -17.498  -0.249  0.00  0.00    -0.024 A 
ATOM     16  C   UNL d   1      25.019 -18.200   0.606  0.00  0.00     0.012 A 
ATOM     17  C   UNL d   1      25.406 -16.892  -1.455  0.00  0.00     0.001 A 
ATOM     18  C   UNL d   1      23.668 -18.324   0.303  0.00  0.00     0.001 A 
ATOM     19  C   UNL d   1      23.175 -17.753  -0.865  0.00  0.00     0.001 A 
ATOM     20  C   UNL d   1      24.030 -17.058  -1.734  0.00  0.00     0.014 A 
ENDBRANCH   9  11
ENDBRANCH   7   9
ENDBRANCH   5   7
ENDBRANCH   3   5
BRANCH   1  21
ATOM     21  C   UNL d   1      29.400 -15.303  -5.962  0.00  0.00     0.098 C 
ATOM     22  C   UNL d   1      30.208 -14.963  -7.085  0.00  0.00     0.160 C 
ATOM     23  N   UNL d   1      31.355 -15.653  -7.160  0.00  0.00    -0.181 NA
ATOM     24  N   UNL d   1      31.380 -16.341  -6.009  0.00  0.00    -0.240 N 
ATOM     25  C   UNL d   1      32.476 -17.240  -5.648  0.00  0.00     0.221 C 
ATOM     26  C   UNL d   1      30.188 -16.247  -5.316  0.00  0.00     0.138 C 
ATOM     27  C   UNL d   1      32.262 -17.790  -4.216  0.00  0.00     0.061 C 
ATOM     28  C   UNL d   1      30.801 -18.225  -4.048  0.00  0.00     0.081 C 
ATOM     29  N   UNL d   1      29.995 -17.020  -4.218  0.00  0.00    -0.370 N 
ATOM     30  C   UNL d   1      30.406 -19.297  -5.073  0.00  0.00     0.032 C 
ATOM     31  H   UNL d   1      29.143 -16.928  -3.661  0.00  0.00     0.161 HD
BRANCH  25  32
ATOM     32  C   UNL d   1      33.864 -16.645  -5.802  0.00  0.00     0.409 C 
ATOM     33  F   UNL d   1      34.783 -17.086  -4.925  0.00  0.00    -0.169 F 
ATOM     34  F   UNL d   1      34.374 -16.862  -7.042  0.00  0.00    -0.169 F 
ATOM     35  F   UNL d   1      33.800 -15.293  -5.662  0.00  0.00    -0.169 F 
ENDBRANCH  25  32
ENDBRANCH   1  21
TORSDOF 6
ENDMDL
MODEL 9
REMARK VINA RESULT:    -6.680      8.258     10.365
REMARK INTER + INTRA:         -10.767
REMARK INTER:                  -8.470
REMARK INTRA:                  -2.297
REMARK CONF_INDEPENDENT:        1.790
REMARK UNBOUND:                -2.297
REMARK  6 active torsions:
REMARK  status: ('A' for Active; 'I' for Inactive)
REMARK    1  A    between atoms: C_4  and  C_5 
REMARK    2  A    between atoms: C_12  and  C_13 
REMARK       I    between atoms: C_13  and  N_15 
REMARK    3  A    between atoms: N_15  and  N_16 
REMARK    4  A    between atoms: N_16  and  C_17 
REMARK    5  A    between atoms: C_17  and  N_19 
REMARK    6  A    between atoms: N_19  and  C_20 
ROOT
ATOM      1  C   UNL d   1      27.538 -14.907  -4.951  0.00  0.00     0.275 C 
ATOM      2  O   UNL d   1      27.383 -15.200  -6.145  0.00  0.00    -0.266 OA
ATOM      3  N   UNL d   1      28.753 -14.413  -4.495  0.00  0.00    -0.263 N 
ATOM      4  H   UNL d   1      28.916 -14.153  -3.524  0.00  0.00     0.190 HD
ENDROOT
BRANCH   3   5
ATOM      5  N   UNL d   1      29.891 -14.221  -5.375  0.00  0.00    -0.273 N 
ATOM      6  H   UNL d   1      30.219 -13.261  -5.463  0.00  0.00     0.189 HD
BRANCH   5   7
ATOM      7  C   UNL d   1      30.489 -15.342  -5.973  0.00  0.00     0.191 C 
ATOM      8  S   UNL d   1      31.935 -15.149  -6.832  0.00  0.00    -0.039 SA
BRANCH   7   9
ATOM      9  N   UNL d   1      29.773 -16.549  -5.812  0.00  0.00    -0.331 N 
ATOM     10  H   UNL d   1      28.905 -16.654  -6.321  0.00  0.00     0.168 HD
BRANCH   9  11
ATOM     11  C   UNL d   1      30.327 -17.773  -5.269  0.00  0.00     0.045 A 
ATOM     12  C   UNL d   1      30.489 -18.870  -6.127  0.00  0.00     0.030 A 
ATOM     13  C   UNL d   1      30.886 -20.120  -5.659  0.00  0.00     0.003 A 
ATOM     14  C   UNL d   1      31.194 -20.290  -4.317  0.00  0.00     0.012 A 
ATOM     15  C   UNL d   1      31.151 -19.202  -3.438  0.00  0.00    -0.024 A 
ATOM     16  C   UNL d   1      31.522 -19.408  -2.098  0.00  0.00     0.012 A 
ATOM     17  C   UNL d   1      30.725 -17.914  -3.900  0.00  0.00     0.001 A 
ATOM     18  C   UNL d   1      31.486 -18.362  -1.182  0.00  0.00     0.001 A 
ATOM     19  C   UNL d   1      31.069 -17.104  -1.599  0.00  0.00     0.001 A 
ATOM     20  C   UNL d   1      30.685 -16.885  -2.931  0.00  0.00     0.014 A 
ENDBRANCH   9  11
ENDBRANCH   7   9
ENDBRANCH   5   7
ENDBRANCH   3   5
BRANCH   1  21
ATOM     21  C   UNL d   1      26.466 -15.069  -3.956  0.00  0.00     0.098 C 
ATOM     22  C   UNL d   1      25.162 -14.501  -3.880  0.00  0.00     0.160 C 
ATOM     23  N   UNL d   1      24.490 -14.826  -2.766  0.00  0.00    -0.181 NA
ATOM     24  N   UNL d   1      25.287 -15.729  -2.175  0.00  0.00    -0.240 N 
ATOM     25  C   UNL d   1      24.945 -16.378  -0.910  0.00  0.00     0.221 C 
ATOM     26  C   UNL d   1      26.521 -15.823  -2.791  0.00  0.00     0.138 C 
ATOM     27  C   UNL d   1      26.011 -17.445  -0.555  0.00  0.00     0.061 C 
ATOM     28  C   UNL d   1      27.411 -16.867  -0.788  0.00  0.00     0.081 C 
ATOM     29  N   UNL d   1      27.496 -16.567  -2.214  0.00  0.00    -0.370 N 
ATOM     30  C   UNL d   1      27.652 -15.603   0.051  0.00  0.00     0.032 C 
ATOM     31  H   UNL d   1      28.398 -16.693  -2.680  0.00  0.00     0.161 HD
BRANCH  25  32
ATOM     32  C   UNL d   1      23.546 -16.963  -0.852  0.00  0.00     0.409 C 
ATOM     33  F   UNL d   1      22.542 -16.069  -0.894  0.00  0.00    -0.169 F 
ATOM     34  F   UNL d   1      23.323 -17.847  -1.858  0.00  0.00    -0.169 F 
ATOM     35  F   UNL d   1      23.394 -17.673   0.300  0.00  0.00    -0.169 F 
ENDBRANCH  25  32
ENDBRANCH   1  21
TORSDOF 6
ENDMDL
