MODEL 1
REMARK VINA RESULT:   -32.419      0.000      0.000
REMARK INTER + INTRA:         -37.620
REMARK INTER:                 -35.402
REMARK INTRA:                  -2.218
REMARK CONF_INDEPENDENT:        2.983
REMARK UNBOUND:                -2.218
REMARK  10 active torsions:
REMARK  status: ('A' for Active; 'I' for Inactive)
REMARK    1  A    between atoms: C_3  and  C_2 
REMARK    2  A    between atoms: C_3  and  N_32 
REMARK    3  A    between atoms: C_3  and  C_4 
REMARK    4  A    between atoms: C_7  and  S_8 
REMARK    5  A    between atoms: S_8  and  C_9 
REMARK    6  A    between atoms: C_9  and  C_10 
REMARK    7  A    between atoms: C_12  and  C_10 
REMARK    8  A    between atoms: C_12  and  C_15 
REMARK    9  A    between atoms: N_24  and  C_25 
REMARK   10  A    between atoms: C_25  and  C_26 
ROOT
ATOM      1  C   UNL d   1      21.927 -17.890  -1.258  0.00  0.00     0.232 C 
ATOM      2  C   UNL d   1      22.156 -16.582  -0.523  0.00  0.00     0.079 C 
ATOM      3  N   UNL d   1      22.381 -15.638   0.058  0.00  0.00    -0.196 NA
ENDROOT
BRANCH   1   4
ATOM      4  C   UNL d   1      20.834 -18.678  -0.546  0.00  0.00     0.130 C 
ATOM      5  N   UNL d   1      19.893 -19.310  -1.214  0.00  0.00    -0.232 NA
ATOM      6  C   UNL d   1      19.192 -20.033  -0.308  0.00  0.00     0.082 C 
ATOM      7  C   UNL d   1      18.044 -20.798  -0.501  0.00  0.00     0.017 C 
ATOM      8  C   UNL d   1      19.719 -19.962   0.976  0.00  0.00     0.062 C 
ATOM      9  C   UNL d   1      17.351 -21.271   0.589  0.00  0.00     0.044 C 
ATOM     10  C   UNL d   1      18.194 -21.824   1.480  0.00  0.00    -0.015 C 
ATOM     11  C   UNL d   1      19.156 -20.871   1.962  0.00  0.00     0.028 C 
ATOM     12  N   UNL d   1      20.686 -18.950   0.831  0.00  0.00    -0.341 N 
ATOM     13  H   UNL d   1      21.271 -18.536   1.551  0.00  0.00     0.167 HD
ENDBRANCH   1   4
BRANCH   1  14
ATOM     14  C   UNL d   1      23.232 -18.681  -1.378  0.00  0.00     0.161 C 
ATOM     15  O   UNL d   1      23.280 -19.710  -2.049  0.00  0.00    -0.295 OA
BRANCH  14  16
ATOM     16  C   UNL d   1      24.422 -18.170  -0.611  0.00  0.00     0.162 C 
BRANCH  16  17
ATOM     17  S   UNL d   1      25.307 -16.740  -1.273  0.00  0.00    -0.083 SA
BRANCH  17  18
ATOM     18  C   UNL d   1      26.518 -16.192  -0.111  0.00  0.00     0.192 A 
ATOM     19  N   UNL d   1      26.982 -16.991   0.820  0.00  0.00    -0.122 NA
ATOM     20  N   UNL d   1      27.780 -16.275   1.654  0.00  0.00    -0.132 NA
ATOM     21  C   UNL d   1      27.876 -15.022   1.233  0.00  0.00     0.162 A 
ATOM     22  N   UNL d   1      27.112 -14.919   0.038  0.00  0.00    -0.305 N 
BRANCH  21  23
ATOM     23  C   UNL d   1      28.714 -14.008   2.134  0.00  0.00     0.258 C 
BRANCH  23  24
ATOM     24  N   UNL d   1      29.727 -14.598   3.017  0.00  0.00    -0.068 N 
ATOM     25  C   UNL d   1      30.889 -14.383   2.194  0.00  0.00     0.270 C 
ATOM     26  C   UNL d   1      30.146 -14.151   4.400  0.00  0.00     0.270 C 
ATOM     27  H   UNL d   1      29.424 -15.575   3.155  0.00  0.00     0.279 HD
ENDBRANCH  23  24
BRANCH  23  28
ATOM     28  C   UNL d   1      27.859 -13.171   3.049  0.00  0.00     0.037 C 
ATOM     29  C   UNL d   1      27.042 -14.075   3.950  0.00  0.00     0.007 C 
ENDBRANCH  23  28
ENDBRANCH  21  23
BRANCH  22  30
ATOM     30  C   UNL d   1      26.683 -13.848  -0.927  0.00  0.00     0.171 C 
BRANCH  30  31
ATOM     31  C   UNL d   1      26.562 -13.864  -2.448  0.00  0.00    -0.040 C 
ATOM     32  C   UNL d   1      27.292 -14.833  -3.245  0.00  0.00     0.009 C 
ATOM     33  C   UNL d   1      26.814 -15.200  -4.539  0.00  0.00     0.001 C 
ATOM     34  C   UNL d   1      25.622 -14.595  -5.021  0.00  0.00     0.000 C 
ATOM     35  C   UNL d   1      24.980 -13.563  -4.271  0.00  0.00     0.001 C 
ATOM     36  C   UNL d   1      25.480 -13.165  -3.012  0.00  0.00     0.009 C 
ENDBRANCH  30  31
ENDBRANCH  22  30
ENDBRANCH  17  18
ENDBRANCH  16  17
ENDBRANCH  14  16
ENDBRANCH   1  14
TORSDOF 10
ENDMDL
MODEL 2
REMARK VINA RESULT:   -31.087      1.992      4.985
REMARK INTER + INTRA:         -36.382
REMARK INTER:                 -34.070
REMARK INTRA:                  -2.312
REMARK CONF_INDEPENDENT:        2.983
REMARK UNBOUND:                -2.312
REMARK  10 active torsions:
REMARK  status: ('A' for Active; 'I' for Inactive)
REMARK    1  A    between atoms: C_3  and  C_2 
REMARK    2  A    between atoms: C_3  and  N_32 
REMARK    3  A    between atoms: C_3  and  C_4 
REMARK    4  A    between atoms: C_7  and  S_8 
REMARK    5  A    between atoms: S_8  and  C_9 
REMARK    6  A    between atoms: C_9  and  C_10 
REMARK    7  A    between atoms: C_12  and  C_10 
REMARK    8  A    between atoms: C_12  and  C_15 
REMARK    9  A    between atoms: N_24  and  C_25 
REMARK   10  A    between atoms: C_25  and  C_26 
ROOT
ATOM      1  C   UNL d   1      21.934 -17.901  -1.218  0.00  0.00     0.232 C 
ATOM      2  C   UNL d   1      22.089 -16.553  -0.539  0.00  0.00     0.079 C 
ATOM      3  N   UNL d   1      22.256 -15.575   0.004  0.00  0.00    -0.196 NA
ENDROOT
BRANCH   1   4
ATOM      4  C   UNL d   1      20.830 -18.688  -0.522  0.00  0.00     0.130 C 
ATOM      5  N   UNL d   1      19.901 -19.324  -1.205  0.00  0.00    -0.232 NA
ATOM      6  C   UNL d   1      19.185 -20.043  -0.307  0.00  0.00     0.082 C 
ATOM      7  C   UNL d   1      18.041 -20.810  -0.518  0.00  0.00     0.017 C 
ATOM      8  C   UNL d   1      19.689 -19.966   0.985  0.00  0.00     0.062 C 
ATOM      9  C   UNL d   1      17.329 -21.279   0.562  0.00  0.00     0.044 C 
ATOM     10  C   UNL d   1      18.157 -21.827   1.470  0.00  0.00    -0.015 C 
ATOM     11  C   UNL d   1      19.109 -20.871   1.964  0.00  0.00     0.028 C 
ATOM     12  N   UNL d   1      20.657 -18.954   0.853  0.00  0.00    -0.341 N 
ATOM     13  H   UNL d   1      21.229 -18.536   1.581  0.00  0.00     0.167 HD
ENDBRANCH   1   4
BRANCH   1  14
ATOM     14  C   UNL d   1      23.266 -18.657  -1.234  0.00  0.00     0.161 C 
ATOM     15  O   UNL d   1      23.390 -19.719  -0.626  0.00  0.00    -0.295 OA
BRANCH  14  16
ATOM     16  C   UNL d   1      24.409 -18.024  -1.981  0.00  0.00     0.162 C 
BRANCH  16  17
ATOM     17  S   UNL d   1      25.369 -16.745  -1.137  0.00  0.00    -0.083 SA
BRANCH  17  18
ATOM     18  C   UNL d   1      25.389 -15.271  -2.108  0.00  0.00     0.192 A 
ATOM     19  N   UNL d   1      24.468 -15.035  -3.012  0.00  0.00    -0.122 NA
ATOM     20  N   UNL d   1      24.807 -13.915  -3.701  0.00  0.00    -0.132 NA
ATOM     21  C   UNL d   1      25.922 -13.394  -3.209  0.00  0.00     0.162 A 
ATOM     22  N   UNL d   1      26.323 -14.211  -2.116  0.00  0.00    -0.305 N 
BRANCH  21  23
ATOM     23  C   UNL d   1      26.519 -12.111  -3.944  0.00  0.00     0.258 C 
BRANCH  23  24
ATOM     24  N   UNL d   1      25.570 -11.292  -4.709  0.00  0.00    -0.068 N 
ATOM     25  C   UNL d   1      25.566 -10.121  -3.872  0.00  0.00     0.270 C 
ATOM     26  C   UNL d   1      25.708 -10.759  -6.118  0.00  0.00     0.270 C 
ATOM     27  H   UNL d   1      24.702 -11.850  -4.740  0.00  0.00     0.279 HD
ENDBRANCH  23  24
BRANCH  23  28
ATOM     28  C   UNL d   1      27.611 -12.438  -4.929  0.00  0.00     0.037 C 
ATOM     29  C   UNL d   1      27.975 -13.905  -4.817  0.00  0.00     0.007 C 
ENDBRANCH  23  28
ENDBRANCH  21  23
BRANCH  22  30
ATOM     30  C   UNL d   1      27.480 -14.313  -1.161  0.00  0.00     0.171 C 
BRANCH  30  31
ATOM     31  C   UNL d   1      27.752 -13.596   0.159  0.00  0.00    -0.040 C 
ATOM     32  C   UNL d   1      26.996 -12.416   0.537  0.00  0.00     0.009 C 
ATOM     33  C   UNL d   1      26.861 -12.064   1.914  0.00  0.00     0.001 C 
ATOM     34  C   UNL d   1      27.482 -12.888   2.891  0.00  0.00     0.000 C 
ATOM     35  C   UNL d   1      28.314 -13.979   2.494  0.00  0.00     0.001 C 
ATOM     36  C   UNL d   1      28.488 -14.299   1.129  0.00  0.00     0.009 C 
ENDBRANCH  30  31
ENDBRANCH  22  30
ENDBRANCH  17  18
ENDBRANCH  16  17
ENDBRANCH  14  16
ENDBRANCH   1  14
TORSDOF 10
ENDMDL
MODEL 3
REMARK VINA RESULT:   -29.983      1.798      2.636
REMARK INTER + INTRA:         -34.889
REMARK INTER:                 -32.966
REMARK INTRA:                  -1.923
REMARK CONF_INDEPENDENT:        2.983
REMARK UNBOUND:                -1.923
REMARK  10 active torsions:
REMARK  status: ('A' for Active; 'I' for Inactive)
REMARK    1  A    between atoms: C_3  and  C_2 
REMARK    2  A    between atoms: C_3  and  N_32 
REMARK    3  A    between atoms: C_3  and  C_4 
REMARK    4  A    between atoms: C_7  and  S_8 
REMARK    5  A    between atoms: S_8  and  C_9 
REMARK    6  A    between atoms: C_9  and  C_10 
REMARK    7  A    between atoms: C_12  and  C_10 
REMARK    8  A    between atoms: C_12  and  C_15 
REMARK    9  A    between atoms: N_24  and  C_25 
REMARK   10  A    between atoms: C_25  and  C_26 
ROOT
ATOM      1  C   UNL d   1      22.058 -18.091  -1.275  0.00  0.00     0.232 C 
ATOM      2  C   UNL d   1      22.076 -16.648  -0.806  0.00  0.00     0.079 C 
ATOM      3  N   UNL d   1      22.140 -15.590  -0.411  0.00  0.00    -0.196 NA
ENDROOT
BRANCH   1   4
ATOM      4  C   UNL d   1      20.933 -18.833  -0.564  0.00  0.00     0.130 C 
ATOM      5  N   UNL d   1      19.905 -19.324  -1.224  0.00  0.00    -0.232 NA
ATOM      6  C   UNL d   1      19.185 -20.052  -0.337  0.00  0.00     0.082 C 
ATOM      7  C   UNL d   1      17.963 -20.693  -0.522  0.00  0.00     0.017 C 
ATOM      8  C   UNL d   1      19.779 -20.131   0.917  0.00  0.00     0.062 C 
ATOM      9  C   UNL d   1      17.283 -21.188   0.567  0.00  0.00     0.044 C 
ATOM     10  C   UNL d   1      18.114 -21.883   1.365  0.00  0.00    -0.015 C 
ATOM     11  C   UNL d   1      19.183 -21.062   1.862  0.00  0.00     0.028 C 
ATOM     12  N   UNL d   1      20.827 -19.201   0.794  0.00  0.00    -0.341 N 
ATOM     13  H   UNL d   1      21.483 -18.899   1.509  0.00  0.00     0.167 HD
ENDBRANCH   1   4
BRANCH   1  14
ATOM     14  C   UNL d   1      23.422 -18.751  -1.055  0.00  0.00     0.161 C 
ATOM     15  O   UNL d   1      23.498 -19.916  -0.669  0.00  0.00    -0.295 OA
BRANCH  14  16
ATOM     16  C   UNL d   1      24.643 -17.903  -1.288  0.00  0.00     0.162 C 
BRANCH  16  17
ATOM     17  S   UNL d   1      25.648 -17.453   0.145  0.00  0.00    -0.083 SA
BRANCH  17  18
ATOM     18  C   UNL d   1      27.324 -17.202  -0.351  0.00  0.00     0.192 A 
ATOM     19  N   UNL d   1      28.234 -18.131  -0.178  0.00  0.00    -0.122 NA
ATOM     20  N   UNL d   1      29.449 -17.622  -0.510  0.00  0.00    -0.132 NA
ATOM     21  C   UNL d   1      29.320 -16.378  -0.949  0.00  0.00     0.162 A 
ATOM     22  N   UNL d   1      27.932 -16.064  -0.924  0.00  0.00    -0.305 N 
BRANCH  21  23
ATOM     23  C   UNL d   1      30.655 -15.587  -1.315  0.00  0.00     0.258 C 
BRANCH  23  24
ATOM     24  N   UNL d   1      31.028 -14.482  -0.423  0.00  0.00    -0.068 N 
ATOM     25  C   UNL d   1      29.964 -14.607   0.540  0.00  0.00     0.270 C 
ATOM     26  C   UNL d   1      32.283 -14.325   0.407  0.00  0.00     0.270 C 
ATOM     27  H   UNL d   1      31.022 -13.642  -1.022  0.00  0.00     0.279 HD
ENDBRANCH  23  24
BRANCH  23  28
ATOM     28  C   UNL d   1      30.629 -14.969  -2.688  0.00  0.00     0.037 C 
ATOM     29  C   UNL d   1      29.636 -15.711  -3.561  0.00  0.00     0.007 C 
ENDBRANCH  23  28
ENDBRANCH  21  23
BRANCH  22  30
ATOM     30  C   UNL d   1      27.051 -14.871  -1.174  0.00  0.00     0.171 C 
BRANCH  30  31
ATOM     31  C   UNL d   1      26.849 -14.024  -2.428  0.00  0.00    -0.040 C 
ATOM     32  C   UNL d   1      25.555 -13.957  -3.083  0.00  0.00     0.009 C 
ATOM     33  C   UNL d   1      25.219 -12.826  -3.886  0.00  0.00     0.001 C 
ATOM     34  C   UNL d   1      26.174 -11.784  -4.029  0.00  0.00     0.000 C 
ATOM     35  C   UNL d   1      27.481 -11.920  -3.470  0.00  0.00     0.001 C 
ATOM     36  C   UNL d   1      27.832 -13.060  -2.715  0.00  0.00     0.009 C 
ENDBRANCH  30  31
ENDBRANCH  22  30
ENDBRANCH  17  18
ENDBRANCH  16  17
ENDBRANCH  14  16
ENDBRANCH   1  14
TORSDOF 10
ENDMDL
