MODEL 1
REMARK VINA RESULT:    -6.941      0.000      0.000
REMARK INTER + INTRA:          -8.876
REMARK INTER:                  -8.134
REMARK INTRA:                  -0.742
REMARK CONF_INDEPENDENT:        1.193
REMARK UNBOUND:                -0.742
REMARK  4 active torsions:
REMARK  status: ('A' for Active; 'I' for Inactive)
REMARK    1  A    between atoms: C_8  and  C_9 
REMARK       I    between atoms: C_9  and  N_11 
REMARK    2  A    between atoms: N_11  and  C_12 
REMARK    3  A    between atoms: C_12  and  C_13 
REMARK    4  A    between atoms: C_18  and  N_19 
ROOT
ATOM      1  C   UNL d   1      26.567 -16.307  -1.869  0.00  0.00     0.004 A 
ATOM      2  C   UNL d   1      27.976 -16.286  -1.943  0.00  0.00     0.014 A 
ATOM      3  C   UNL d   1      28.753 -17.048  -1.088  0.00  0.00     0.018 A 
ATOM      4  C   UNL d   1      28.113 -17.821  -0.145  0.00  0.00     0.089 A 
ATOM      5  N   UNL d   1      26.773 -17.817  -0.068  0.00  0.00    -0.352 N 
ATOM      6  C   UNL d   1      25.958 -17.111  -0.878  0.00  0.00     0.111 A 
ATOM      7  H   UNL d   1      26.307 -18.434   0.592  0.00  0.00     0.166 HD
ENDROOT
BRANCH   1   8
ATOM      8  C   UNL d   1      25.706 -15.525  -2.835  0.00  0.00     0.165 C 
BRANCH   8   9
ATOM      9  N   UNL d   1      26.388 -14.531  -3.611  0.00  0.00    -0.352 N 
ATOM     10  C   UNL d   1      26.611 -14.726  -4.947  0.00  0.00     0.257 C 
ATOM     11  O   UNL d   1      26.182 -15.749  -5.491  0.00  0.00    -0.267 OA
ATOM     12  H   UNL d   1      26.822 -13.760  -3.155  0.00  0.00     0.163 HD
BRANCH  10  13
ATOM     13  C   UNL d   1      27.355 -13.702  -5.656  0.00  0.00     0.098 A 
ATOM     14  C   UNL d   1      28.548 -13.936  -6.292  0.00  0.00     0.139 A 
ATOM     15  N   UNL d   1      28.979 -12.779  -6.866  0.00  0.00    -0.262 N 
ATOM     16 CL   UNL d   1      29.472 -15.364  -6.450  0.00  0.00    -0.062 Cl
ATOM     17  N   UNL d   1      28.104 -11.746  -6.639  0.00  0.00    -0.176 NA
ATOM     18  C   UNL d   1      30.216 -12.664  -7.624  0.00  0.00     0.181 C 
ATOM     19  C   UNL d   1      27.113 -12.306  -5.904  0.00  0.00     0.070 A 
ATOM     20  C   UNL d   1      25.913 -11.533  -5.418  0.00  0.00     0.073 C 
ENDBRANCH  10  13
ENDBRANCH   8   9
ENDBRANCH   1   8
BRANCH   6  21
ATOM     21  N   UNL d   1      24.626 -17.431  -0.774  0.00  0.00    -0.367 N 
ATOM     22  C   UNL d   1      24.144 -18.806  -0.521  0.00  0.00     0.124 C 
ATOM     23  C   UNL d   1      22.788 -18.948  -1.241  0.00  0.00     0.020 C 
ATOM     24  C   UNL d   1      21.791 -17.860  -0.814  0.00  0.00     0.003 C 
ATOM     25  C   UNL d   1      22.412 -16.467  -0.895  0.00  0.00     0.020 C 
ATOM     26  C   UNL d   1      23.739 -16.430  -0.160  0.00  0.00     0.124 C 
ENDBRANCH   6  21
TORSDOF 4
ENDMDL
MODEL 2
REMARK VINA RESULT:    -6.777      1.377      1.929
REMARK INTER + INTRA:          -8.635
REMARK INTER:                  -7.970
REMARK INTRA:                  -0.665
REMARK CONF_INDEPENDENT:        1.193
REMARK UNBOUND:                -0.665
REMARK  4 active torsions:
REMARK  status: ('A' for Active; 'I' for Inactive)
REMARK    1  A    between atoms: C_8  and  C_9 
REMARK       I    between atoms: C_9  and  N_11 
REMARK    2  A    between atoms: N_11  and  C_12 
REMARK    3  A    between atoms: C_12  and  C_13 
REMARK    4  A    between atoms: C_18  and  N_19 
ROOT
ATOM      1  C   UNL d   1      26.473 -16.250  -1.829  0.00  0.00     0.004 A 
ATOM      2  C   UNL d   1      27.878 -16.156  -1.920  0.00  0.00     0.014 A 
ATOM      3  C   UNL d   1      28.705 -16.890  -1.086  0.00  0.00     0.018 A 
ATOM      4  C   UNL d   1      28.116 -17.708  -0.148  0.00  0.00     0.089 A 
ATOM      5  N   UNL d   1      26.780 -17.773  -0.054  0.00  0.00    -0.352 N 
ATOM      6  C   UNL d   1      25.919 -17.097  -0.843  0.00  0.00     0.111 A 
ATOM      7  H   UNL d   1      26.354 -18.422   0.602  0.00  0.00     0.166 HD
ENDROOT
BRANCH   1   8
ATOM      8  C   UNL d   1      25.562 -15.498  -2.772  0.00  0.00     0.165 C 
BRANCH   8   9
ATOM      9  N   UNL d   1      26.162 -14.403  -3.477  0.00  0.00    -0.352 N 
ATOM     10  C   UNL d   1      26.493 -14.527  -4.799  0.00  0.00     0.257 C 
ATOM     11  O   UNL d   1      26.231 -15.578  -5.394  0.00  0.00    -0.267 OA
ATOM     12  H   UNL d   1      26.466 -13.599  -2.975  0.00  0.00     0.163 HD
BRANCH  10  13
ATOM     13  C   UNL d   1      27.146 -13.397  -5.433  0.00  0.00     0.098 A 
ATOM     14  C   UNL d   1      26.865 -12.090  -5.123  0.00  0.00     0.139 A 
ATOM     15  N   UNL d   1      27.651 -11.276  -5.882  0.00  0.00    -0.262 N 
ATOM     16 CL   UNL d   1      25.764 -11.414  -4.005  0.00  0.00    -0.062 Cl
ATOM     17  N   UNL d   1      28.472 -11.998  -6.711  0.00  0.00    -0.176 NA
ATOM     18  C   UNL d   1      27.614  -9.823  -5.812  0.00  0.00     0.181 C 
ATOM     19  C   UNL d   1      28.169 -13.290  -6.438  0.00  0.00     0.070 A 
ATOM     20  C   UNL d   1      28.839 -14.454  -7.123  0.00  0.00     0.073 C 
ENDBRANCH  10  13
ENDBRANCH   8   9
ENDBRANCH   1   8
BRANCH   6  21
ATOM     21  N   UNL d   1      24.606 -17.487  -0.727  0.00  0.00    -0.367 N 
ATOM     22  C   UNL d   1      24.200 -18.876  -0.428  0.00  0.00     0.124 C 
ATOM     23  C   UNL d   1      22.855 -19.116  -1.142  0.00  0.00     0.020 C 
ATOM     24  C   UNL d   1      21.799 -18.071  -0.751  0.00  0.00     0.003 C 
ATOM     25  C   UNL d   1      22.343 -16.650  -0.879  0.00  0.00     0.020 C 
ATOM     26  C   UNL d   1      23.665 -16.515  -0.147  0.00  0.00     0.124 C 
ENDBRANCH   6  21
TORSDOF 4
ENDMDL
MODEL 3
REMARK VINA RESULT:    -6.562      4.623      7.286
REMARK INTER + INTRA:          -8.654
REMARK INTER:                  -7.755
REMARK INTRA:                  -0.899
REMARK CONF_INDEPENDENT:        1.193
REMARK UNBOUND:                -0.899
REMARK  4 active torsions:
REMARK  status: ('A' for Active; 'I' for Inactive)
REMARK    1  A    between atoms: C_8  and  C_9 
REMARK       I    between atoms: C_9  and  N_11 
REMARK    2  A    between atoms: N_11  and  C_12 
REMARK    3  A    between atoms: C_12  and  C_13 
REMARK    4  A    between atoms: C_18  and  N_19 
ROOT
ATOM      1  C   UNL d   1      26.608 -16.521  -0.205  0.00  0.00     0.004 A 
ATOM      2  C   UNL d   1      26.203 -17.606   0.603  0.00  0.00     0.014 A 
ATOM      3  C   UNL d   1      25.009 -18.268   0.374  0.00  0.00     0.018 A 
ATOM      4  C   UNL d   1      24.212 -17.828  -0.659  0.00  0.00     0.089 A 
ATOM      5  N   UNL d   1      24.595 -16.782  -1.407  0.00  0.00    -0.352 N 
ATOM      6  C   UNL d   1      25.749 -16.103  -1.247  0.00  0.00     0.111 A 
ATOM      7  H   UNL d   1      24.028 -16.500  -2.202  0.00  0.00     0.166 HD
ENDROOT
BRANCH   1   8
ATOM      8  C   UNL d   1      27.936 -15.829  -0.001  0.00  0.00     0.165 C 
BRANCH   8   9
ATOM      9  N   UNL d   1      28.085 -15.118   1.236  0.00  0.00    -0.352 N 
ATOM     10  C   UNL d   1      27.305 -14.027   1.506  0.00  0.00     0.257 C 
ATOM     11  O   UNL d   1      26.440 -13.682   0.694  0.00  0.00    -0.267 OA
ATOM     12  H   UNL d   1      28.846 -15.332   1.840  0.00  0.00     0.163 HD
BRANCH  10  13
ATOM     13  C   UNL d   1      27.548 -13.326   2.753  0.00  0.00     0.098 A 
ATOM     14  C   UNL d   1      27.441 -11.965   2.890  0.00  0.00     0.139 A 
ATOM     15  N   UNL d   1      27.721 -11.625   4.178  0.00  0.00    -0.262 N 
ATOM     16 CL   UNL d   1      27.029 -10.754   1.757  0.00  0.00    -0.062 Cl
ATOM     17  N   UNL d   1      28.020 -12.728   4.937  0.00  0.00    -0.176 NA
ATOM     18  C   UNL d   1      27.702 -10.258   4.676  0.00  0.00     0.181 C 
ATOM     19  C   UNL d   1      27.913 -13.767   4.073  0.00  0.00     0.070 A 
ATOM     20  C   UNL d   1      28.155 -15.200   4.475  0.00  0.00     0.073 C 
ENDBRANCH  10  13
ENDBRANCH   8   9
ENDBRANCH   1   8
BRANCH   6  21
ATOM     21  N   UNL d   1      26.044 -15.223  -2.260  0.00  0.00    -0.367 N 
ATOM     22  C   UNL d   1      25.905 -13.757  -2.122  0.00  0.00     0.124 C 
ATOM     23  C   UNL d   1      25.520 -13.208  -3.511  0.00  0.00     0.020 C 
ATOM     24  C   UNL d   1      26.523 -13.630  -4.596  0.00  0.00     0.003 C 
ATOM     25  C   UNL d   1      26.792 -15.132  -4.558  0.00  0.00     0.020 C 
ATOM     26  C   UNL d   1      27.159 -15.575  -3.154  0.00  0.00     0.124 C 
ENDBRANCH   6  21
TORSDOF 4
ENDMDL
MODEL 4
REMARK VINA RESULT:    -6.465      4.507      6.326
REMARK INTER + INTRA:          -8.543
REMARK INTER:                  -7.658
REMARK INTRA:                  -0.885
REMARK CONF_INDEPENDENT:        1.193
REMARK UNBOUND:                -0.885
REMARK  4 active torsions:
REMARK  status: ('A' for Active; 'I' for Inactive)
REMARK    1  A    between atoms: C_8  and  C_9 
REMARK       I    between atoms: C_9  and  N_11 
REMARK    2  A    between atoms: N_11  and  C_12 
REMARK    3  A    between atoms: C_12  and  C_13 
REMARK    4  A    between atoms: C_18  and  N_19 
ROOT
ATOM      1  C   UNL d   1      26.972 -16.299  -0.938  0.00  0.00     0.004 A 
ATOM      2  C   UNL d   1      27.917 -15.524  -1.643  0.00  0.00     0.014 A 
ATOM      3  C   UNL d   1      27.688 -15.122  -2.948  0.00  0.00     0.018 A 
ATOM      4  C   UNL d   1      26.514 -15.515  -3.551  0.00  0.00     0.089 A 
ATOM      5  N   UNL d   1      25.632 -16.270  -2.879  0.00  0.00    -0.352 N 
ATOM      6  C   UNL d   1      25.786 -16.683  -1.605  0.00  0.00     0.111 A 
ATOM      7  H   UNL d   1      24.743 -16.507  -3.311  0.00  0.00     0.166 HD
ENDROOT
BRANCH   1   8
ATOM      8  C   UNL d   1      27.184 -16.694   0.506  0.00  0.00     0.165 C 
BRANCH   8   9
ATOM      9  N   UNL d   1      27.893 -15.744   1.314  0.00  0.00    -0.352 N 
ATOM     10  C   UNL d   1      27.404 -14.477   1.483  0.00  0.00     0.257 C 
ATOM     11  O   UNL d   1      26.323 -14.169   0.968  0.00  0.00    -0.267 OA
ATOM     12  H   UNL d   1      28.808 -15.958   1.640  0.00  0.00     0.163 HD
BRANCH  10  13
ATOM     13  C   UNL d   1      28.202 -13.554   2.268  0.00  0.00     0.098 A 
ATOM     14  C   UNL d   1      28.378 -13.671   3.624  0.00  0.00     0.139 A 
ATOM     15  N   UNL d   1      29.182 -12.660   4.055  0.00  0.00    -0.262 N 
ATOM     16 CL   UNL d   1      27.781 -14.822   4.737  0.00  0.00    -0.062 Cl
ATOM     17  N   UNL d   1      29.566 -11.844   3.021  0.00  0.00    -0.176 NA
ATOM     18  C   UNL d   1      29.577 -12.478   5.444  0.00  0.00     0.181 C 
ATOM     19  C   UNL d   1      28.972 -12.388   1.930  0.00  0.00     0.070 A 
ATOM     20  C   UNL d   1      29.120 -11.816   0.543  0.00  0.00     0.073 C 
ENDBRANCH  10  13
ENDBRANCH   8   9
ENDBRANCH   1   8
BRANCH   6  21
ATOM     21  N   UNL d   1      24.666 -17.247  -1.043  0.00  0.00    -0.367 N 
ATOM     22  C   UNL d   1      24.695 -18.514  -0.281  0.00  0.00     0.124 C 
ATOM     23  C   UNL d   1      23.343 -19.215  -0.520  0.00  0.00     0.020 C 
ATOM     24  C   UNL d   1      22.153 -18.312  -0.162  0.00  0.00     0.003 C 
ATOM     25  C   UNL d   1      22.279 -16.935  -0.810  0.00  0.00     0.020 C 
ATOM     26  C   UNL d   1      23.640 -16.330  -0.520  0.00  0.00     0.124 C 
ENDBRANCH   6  21
TORSDOF 4
ENDMDL
MODEL 5
REMARK VINA RESULT:    -6.230      4.277      7.271
REMARK INTER + INTRA:          -8.329
REMARK INTER:                  -7.423
REMARK INTRA:                  -0.906
REMARK CONF_INDEPENDENT:        1.193
REMARK UNBOUND:                -0.906
REMARK  4 active torsions:
REMARK  status: ('A' for Active; 'I' for Inactive)
REMARK    1  A    between atoms: C_8  and  C_9 
REMARK       I    between atoms: C_9  and  N_11 
REMARK    2  A    between atoms: N_11  and  C_12 
REMARK    3  A    between atoms: C_12  and  C_13 
REMARK    4  A    between atoms: C_18  and  N_19 
ROOT
ATOM      1  C   UNL d   1      26.553 -16.694  -0.595  0.00  0.00     0.004 A 
ATOM      2  C   UNL d   1      26.139 -17.777   0.210  0.00  0.00     0.014 A 
ATOM      3  C   UNL d   1      24.821 -18.197   0.230  0.00  0.00     0.018 A 
ATOM      4  C   UNL d   1      23.912 -17.517  -0.550  0.00  0.00     0.089 A 
ATOM      5  N   UNL d   1      24.311 -16.475  -1.295  0.00  0.00    -0.352 N 
ATOM      6  C   UNL d   1      25.579 -16.024  -1.370  0.00  0.00     0.111 A 
ATOM      7  H   UNL d   1      23.645 -16.015  -1.910  0.00  0.00     0.166 HD
ENDROOT
BRANCH   1   8
ATOM      8  C   UNL d   1      28.000 -16.263  -0.669  0.00  0.00     0.165 C 
BRANCH   8   9
ATOM      9  N   UNL d   1      28.618 -15.938   0.583  0.00  0.00    -0.352 N 
ATOM     10  C   UNL d   1      28.633 -14.646   1.035  0.00  0.00     0.257 C 
ATOM     11  O   UNL d   1      28.071 -13.766   0.374  0.00  0.00    -0.267 OA
ATOM     12  H   UNL d   1      29.156 -16.625   1.061  0.00  0.00     0.163 HD
BRANCH  10  13
ATOM     13  C   UNL d   1      29.322 -14.384   2.284  0.00  0.00     0.098 A 
ATOM     14  C   UNL d   1      28.684 -13.989   3.432  0.00  0.00     0.139 A 
ATOM     15  N   UNL d   1      29.606 -13.837   4.422  0.00  0.00    -0.262 N 
ATOM     16 CL   UNL d   1      27.030 -13.700   3.753  0.00  0.00    -0.062 Cl
ATOM     17  N   UNL d   1      30.873 -14.120   3.980  0.00  0.00    -0.176 NA
ATOM     18  C   UNL d   1      29.275 -13.425   5.778  0.00  0.00     0.181 C 
ATOM     19  C   UNL d   1      30.704 -14.456   2.677  0.00  0.00     0.070 A 
ATOM     20  C   UNL d   1      31.845 -14.852   1.775  0.00  0.00     0.073 C 
ENDBRANCH  10  13
ENDBRANCH   8   9
ENDBRANCH   1   8
BRANCH   6  21
ATOM     21  N   UNL d   1      25.803 -15.100  -2.363  0.00  0.00    -0.367 N 
ATOM     22  C   UNL d   1      26.125 -13.683  -2.089  0.00  0.00     0.124 C 
ATOM     23  C   UNL d   1      25.525 -12.854  -3.242  0.00  0.00     0.020 C 
ATOM     24  C   UNL d   1      26.012 -13.338  -4.616  0.00  0.00     0.003 C 
ATOM     25  C   UNL d   1      25.850 -14.849  -4.767  0.00  0.00     0.020 C 
ATOM     26  C   UNL d   1      26.468 -15.575  -3.587  0.00  0.00     0.124 C 
ENDBRANCH   6  21
TORSDOF 4
ENDMDL
MODEL 6
REMARK VINA RESULT:    -5.942      2.645      4.923
REMARK INTER + INTRA:          -8.400
REMARK INTER:                  -7.135
REMARK INTRA:                  -1.264
REMARK CONF_INDEPENDENT:        1.193
REMARK UNBOUND:                -1.264
REMARK  4 active torsions:
REMARK  status: ('A' for Active; 'I' for Inactive)
REMARK    1  A    between atoms: C_8  and  C_9 
REMARK       I    between atoms: C_9  and  N_11 
REMARK    2  A    between atoms: N_11  and  C_12 
REMARK    3  A    between atoms: C_12  and  C_13 
REMARK    4  A    between atoms: C_18  and  N_19 
ROOT
ATOM      1  C   UNL d   1      26.140 -16.719  -0.527  0.00  0.00     0.004 A 
ATOM      2  C   UNL d   1      25.650 -17.804   0.231  0.00  0.00     0.014 A 
ATOM      3  C   UNL d   1      24.324 -18.192   0.159  0.00  0.00     0.018 A 
ATOM      4  C   UNL d   1      23.483 -17.476  -0.665  0.00  0.00     0.089 A 
ATOM      5  N   UNL d   1      23.953 -16.433  -1.364  0.00  0.00    -0.352 N 
ATOM      6  C   UNL d   1      25.235 -16.012  -1.350  0.00  0.00     0.111 A 
ATOM      7  H   UNL d   1      23.340 -15.946  -2.012  0.00  0.00     0.166 HD
ENDROOT
BRANCH   1   8
ATOM      8  C   UNL d   1      27.599 -16.323  -0.501  0.00  0.00     0.165 C 
BRANCH   8   9
ATOM      9  N   UNL d   1      28.419 -16.902  -1.525  0.00  0.00    -0.352 N 
ATOM     10  C   UNL d   1      29.031 -16.108  -2.456  0.00  0.00     0.257 C 
ATOM     11  O   UNL d   1      28.906 -14.880  -2.383  0.00  0.00    -0.267 OA
ATOM     12  H   UNL d   1      28.436 -17.889  -1.645  0.00  0.00     0.163 HD
BRANCH  10  13
ATOM     13  C   UNL d   1      29.801 -16.767  -3.493  0.00  0.00     0.098 A 
ATOM     14  C   UNL d   1      29.746 -16.413  -4.818  0.00  0.00     0.139 A 
ATOM     15  N   UNL d   1      30.590 -17.213  -5.526  0.00  0.00    -0.262 N 
ATOM     16 CL   UNL d   1      28.845 -15.201  -5.618  0.00  0.00    -0.062 Cl
ATOM     17  N   UNL d   1      31.229 -18.116  -4.715  0.00  0.00    -0.176 NA
ATOM     18  C   UNL d   1      30.780 -17.114  -6.965  0.00  0.00     0.181 C 
ATOM     19  C   UNL d   1      30.753 -17.846  -3.475  0.00  0.00     0.070 A 
ATOM     20  C   UNL d   1      31.186 -18.602  -2.245  0.00  0.00     0.073 C 
ENDBRANCH  10  13
ENDBRANCH   8   9
ENDBRANCH   1   8
BRANCH   6  21
ATOM     21  N   UNL d   1      25.543 -15.078  -2.310  0.00  0.00    -0.367 N 
ATOM     22  C   UNL d   1      26.066 -13.732  -1.988  0.00  0.00     0.124 C 
ATOM     23  C   UNL d   1      25.540 -12.773  -3.075  0.00  0.00     0.020 C 
ATOM     24  C   UNL d   1      25.903 -13.249  -4.490  0.00  0.00     0.003 C 
ATOM     25  C   UNL d   1      25.530 -14.715  -4.701  0.00  0.00     0.020 C 
ATOM     26  C   UNL d   1      26.089 -15.575  -3.583  0.00  0.00     0.124 C 
ENDBRANCH   6  21
TORSDOF 4
ENDMDL
MODEL 7
REMARK VINA RESULT:    -5.894      2.547      4.258
REMARK INTER + INTRA:          -8.383
REMARK INTER:                  -7.087
REMARK INTRA:                  -1.296
REMARK CONF_INDEPENDENT:        1.193
REMARK UNBOUND:                -1.296
REMARK  4 active torsions:
REMARK  status: ('A' for Active; 'I' for Inactive)
REMARK    1  A    between atoms: C_8  and  C_9 
REMARK       I    between atoms: C_9  and  N_11 
REMARK    2  A    between atoms: N_11  and  C_12 
REMARK    3  A    between atoms: C_12  and  C_13 
REMARK    4  A    between atoms: C_18  and  N_19 
ROOT
ATOM      1  C   UNL d   1      26.508 -16.741  -0.805  0.00  0.00     0.004 A 
ATOM      2  C   UNL d   1      26.134 -17.858  -0.028  0.00  0.00     0.014 A 
ATOM      3  C   UNL d   1      24.805 -18.200   0.148  0.00  0.00     0.018 A 
ATOM      4  C   UNL d   1      23.848 -17.408  -0.446  0.00  0.00     0.089 A 
ATOM      5  N   UNL d   1      24.212 -16.336  -1.165  0.00  0.00    -0.352 N 
ATOM      6  C   UNL d   1      25.487 -15.955  -1.386  0.00  0.00     0.111 A 
ATOM      7  H   UNL d   1      23.502 -15.790  -1.646  0.00  0.00     0.166 HD
ENDROOT
BRANCH   1   8
ATOM      8  C   UNL d   1      27.958 -16.391  -1.052  0.00  0.00     0.165 C 
BRANCH   8   9
ATOM      9  N   UNL d   1      28.439 -16.634  -2.381  0.00  0.00    -0.352 N 
ATOM     10  C   UNL d   1      28.991 -15.619  -3.115  0.00  0.00     0.257 C 
ATOM     11  O   UNL d   1      29.111 -14.499  -2.608  0.00  0.00    -0.267 OA
ATOM     12  H   UNL d   1      28.249 -17.504  -2.824  0.00  0.00     0.163 HD
BRANCH  10  13
ATOM     13  C   UNL d   1      29.406 -15.926  -4.471  0.00  0.00     0.098 A 
ATOM     14  C   UNL d   1      30.151 -17.029  -4.803  0.00  0.00     0.139 A 
ATOM     15  N   UNL d   1      30.363 -17.033  -6.148  0.00  0.00    -0.262 N 
ATOM     16 CL   UNL d   1      30.780 -18.289  -3.836  0.00  0.00    -0.062 Cl
ATOM     17  N   UNL d   1      29.777 -15.950  -6.754  0.00  0.00    -0.176 NA
ATOM     18  C   UNL d   1      31.119 -18.063  -6.845  0.00  0.00     0.181 C 
ATOM     19  C   UNL d   1      29.191 -15.275  -5.736  0.00  0.00     0.070 A 
ATOM     20  C   UNL d   1      28.415 -13.997  -5.935  0.00  0.00     0.073 C 
ENDBRANCH  10  13
ENDBRANCH   8   9
ENDBRANCH   1   8
BRANCH   6  21
ATOM     21  N   UNL d   1      25.636 -14.970  -2.333  0.00  0.00    -0.367 N 
ATOM     22  C   UNL d   1      26.274 -13.667  -2.048  0.00  0.00     0.124 C 
ATOM     23  C   UNL d   1      25.583 -12.621  -2.946  0.00  0.00     0.020 C 
ATOM     24  C   UNL d   1      25.629 -13.014  -4.430  0.00  0.00     0.003 C 
ATOM     25  C   UNL d   1      25.155 -14.450  -4.645  0.00  0.00     0.020 C 
ATOM     26  C   UNL d   1      25.890 -15.400  -3.717  0.00  0.00     0.124 C 
ENDBRANCH   6  21
TORSDOF 4
ENDMDL
MODEL 8
REMARK VINA RESULT:    -5.701      2.008      3.723
REMARK INTER + INTRA:          -8.402
REMARK INTER:                  -6.894
REMARK INTRA:                  -1.507
REMARK CONF_INDEPENDENT:        1.193
REMARK UNBOUND:                -1.507
REMARK  4 active torsions:
REMARK  status: ('A' for Active; 'I' for Inactive)
REMARK    1  A    between atoms: C_8  and  C_9 
REMARK       I    between atoms: C_9  and  N_11 
REMARK    2  A    between atoms: N_11  and  C_12 
REMARK    3  A    between atoms: C_12  and  C_13 
REMARK    4  A    between atoms: C_18  and  N_19 
ROOT
ATOM      1  C   UNL d   1      25.000 -16.486  -1.259  0.00  0.00     0.004 A 
ATOM      2  C   UNL d   1      24.246 -17.627  -0.909  0.00  0.00     0.014 A 
ATOM      3  C   UNL d   1      24.707 -18.535   0.029  0.00  0.00     0.018 A 
ATOM      4  C   UNL d   1      25.937 -18.303   0.606  0.00  0.00     0.089 A 
ATOM      5  N   UNL d   1      26.655 -17.228   0.250  0.00  0.00    -0.352 N 
ATOM      6  C   UNL d   1      26.259 -16.299  -0.645  0.00  0.00     0.111 A 
ATOM      7  H   UNL d   1      27.535 -17.034   0.721  0.00  0.00     0.166 HD
ENDROOT
BRANCH   1   8
ATOM      8  C   UNL d   1      24.481 -15.458  -2.238  0.00  0.00     0.165 C 
BRANCH   8   9
ATOM      9  N   UNL d   1      25.473 -14.617  -2.842  0.00  0.00    -0.352 N 
ATOM     10  C   UNL d   1      25.143 -13.791  -3.882  0.00  0.00     0.257 C 
ATOM     11  O   UNL d   1      23.970 -13.743  -4.270  0.00  0.00    -0.267 OA
ATOM     12  H   UNL d   1      26.431 -14.732  -2.600  0.00  0.00     0.163 HD
BRANCH  10  13
ATOM     13  C   UNL d   1      26.210 -13.010  -4.479  0.00  0.00     0.098 A 
ATOM     14  C   UNL d   1      27.290 -13.566  -5.116  0.00  0.00     0.139 A 
ATOM     15  N   UNL d   1      28.099 -12.569  -5.569  0.00  0.00    -0.262 N 
ATOM     16 CL   UNL d   1      27.708 -15.199  -5.395  0.00  0.00    -0.062 Cl
ATOM     17  N   UNL d   1      27.596 -11.331  -5.258  0.00  0.00    -0.176 NA
ATOM     18  C   UNL d   1      29.339 -12.801  -6.293  0.00  0.00     0.181 C 
ATOM     19  C   UNL d   1      26.444 -11.596  -4.596  0.00  0.00     0.070 A 
ATOM     20  C   UNL d   1      25.539 -10.517  -4.057  0.00  0.00     0.073 C 
ENDBRANCH  10  13
ENDBRANCH   8   9
ENDBRANCH   1   8
BRANCH   6  21
ATOM     21  N   UNL d   1      27.042 -15.170  -0.686  0.00  0.00    -0.367 N 
ATOM     22  C   UNL d   1      26.914 -14.064   0.287  0.00  0.00     0.124 C 
ATOM     23  C   UNL d   1      27.268 -12.763  -0.461  0.00  0.00     0.020 C 
ATOM     24  C   UNL d   1      28.651 -12.838  -1.127  0.00  0.00     0.003 C 
ATOM     25  C   UNL d   1      28.806 -14.111  -1.955  0.00  0.00     0.020 C 
ATOM     26  C   UNL d   1      28.434 -15.332  -1.135  0.00  0.00     0.124 C 
ENDBRANCH   6  21
TORSDOF 4
ENDMDL
MODEL 9
REMARK VINA RESULT:    -5.624      2.288      4.071
REMARK INTER + INTRA:          -8.425
REMARK INTER:                  -6.818
REMARK INTRA:                  -1.608
REMARK CONF_INDEPENDENT:        1.193
REMARK UNBOUND:                -1.608
REMARK  4 active torsions:
REMARK  status: ('A' for Active; 'I' for Inactive)
REMARK    1  A    between atoms: C_8  and  C_9 
REMARK       I    between atoms: C_9  and  N_11 
REMARK    2  A    between atoms: N_11  and  C_12 
REMARK    3  A    between atoms: C_12  and  C_13 
REMARK    4  A    between atoms: C_18  and  N_19 
ROOT
ATOM      1  C   UNL d   1      24.831 -16.285  -1.429  0.00  0.00     0.004 A 
ATOM      2  C   UNL d   1      24.010 -17.398  -1.149  0.00  0.00     0.014 A 
ATOM      3  C   UNL d   1      24.386 -18.356  -0.222  0.00  0.00     0.018 A 
ATOM      4  C   UNL d   1      25.599 -18.201   0.413  0.00  0.00     0.089 A 
ATOM      5  N   UNL d   1      26.381 -17.150   0.124  0.00  0.00    -0.352 N 
ATOM      6  C   UNL d   1      26.069 -16.177  -0.756  0.00  0.00     0.111 A 
ATOM      7  H   UNL d   1      27.247 -17.014   0.638  0.00  0.00     0.166 HD
ENDROOT
BRANCH   1   8
ATOM      8  C   UNL d   1      24.403 -15.203  -2.395  0.00  0.00     0.165 C 
BRANCH   8   9
ATOM      9  N   UNL d   1      25.455 -14.368  -2.899  0.00  0.00    -0.352 N 
ATOM     10  C   UNL d   1      25.793 -14.402  -4.224  0.00  0.00     0.257 C 
ATOM     11  O   UNL d   1      25.155 -15.128  -4.995  0.00  0.00    -0.267 OA
ATOM     12  H   UNL d   1      26.032 -13.864  -2.264  0.00  0.00     0.163 HD
BRANCH  10  13
ATOM     13  C   UNL d   1      26.902 -13.570  -4.652  0.00  0.00     0.098 A 
ATOM     14  C   UNL d   1      26.979 -12.223  -4.399  0.00  0.00     0.139 A 
ATOM     15  N   UNL d   1      28.140 -11.740  -4.920  0.00  0.00    -0.262 N 
ATOM     16 CL   UNL d   1      25.907 -11.173  -3.581  0.00  0.00    -0.062 Cl
ATOM     17  N   UNL d   1      28.870 -12.730  -5.529  0.00  0.00    -0.176 NA
ATOM     18  C   UNL d   1      28.546 -10.345  -4.835  0.00  0.00     0.181 C 
ATOM     19  C   UNL d   1      28.119 -13.846  -5.366  0.00  0.00     0.070 A 
ATOM     20  C   UNL d   1      28.536 -15.200  -5.881  0.00  0.00     0.073 C 
ENDBRANCH  10  13
ENDBRANCH   8   9
ENDBRANCH   1   8
BRANCH   6  21
ATOM     21  N   UNL d   1      26.904 -15.086  -0.726  0.00  0.00    -0.367 N 
ATOM     22  C   UNL d   1      26.763 -13.988   0.254  0.00  0.00     0.124 C 
ATOM     23  C   UNL d   1      27.226 -12.695  -0.448  0.00  0.00     0.020 C 
ATOM     24  C   UNL d   1      28.646 -12.827  -1.021  0.00  0.00     0.003 C 
ATOM     25  C   UNL d   1      28.797 -14.095  -1.858  0.00  0.00     0.020 C 
ATOM     26  C   UNL d   1      28.314 -15.308  -1.084  0.00  0.00     0.124 C 
ENDBRANCH   6  21
TORSDOF 4
ENDMDL
