MODEL 1
REMARK VINA RESULT:    -9.664      0.000      0.000
REMARK INTER + INTRA:         -12.642
REMARK INTER:                 -11.453
REMARK INTRA:                  -1.188
REMARK CONF_INDEPENDENT:        1.790
REMARK UNBOUND:                -1.188
REMARK  6 active torsions:
REMARK  status: ('A' for Active; 'I' for Inactive)
REMARK    1  A    between atoms: O_2  and  C_3 
REMARK    2  A    between atoms: C_3  and  C_4 
REMARK    3  A    between atoms: C_3  and  C_26 
REMARK       I    between atoms: C_4  and  N_6 
REMARK    4  A    between atoms: N_6  and  C_7 
REMARK    5  A    between atoms: N_11  and  C_12 
REMARK    6  A    between atoms: C_15  and  C_16 
ROOT
ATOM      1  C   UNL d   1      26.978 -15.966  -2.413  0.00  0.00     0.043 A 
ATOM      2  C   UNL d   1      25.575 -15.975  -2.678  0.00  0.00     0.066 A 
ATOM      3  C   UNL d   1      24.805 -16.823  -1.832  0.00  0.00     0.111 A 
ATOM      4  N   UNL d   1      23.496 -17.156  -1.859  0.00  0.00    -0.147 NA
ATOM      5  N   UNL d   1      23.350 -17.916  -0.737  0.00  0.00    -0.150 N 
ATOM      6  N   UNL d   1      24.463 -18.148  -0.009  0.00  0.00    -0.147 NA
ATOM      7  C   UNL d   1      25.420 -17.536  -0.716  0.00  0.00     0.110 A 
ATOM      8  C   UNL d   1      26.801 -17.494  -0.463  0.00  0.00     0.045 A 
ATOM      9  C   UNL d   1      27.568 -16.683  -1.325  0.00  0.00    -0.033 A 
ATOM     10  C   UNL d   1      29.034 -16.504  -0.992  0.00  0.00     0.050 C 
ENDROOT
BRANCH   1  11
ATOM     11  N   UNL d   1      27.855 -15.187  -3.221  0.00  0.00    -0.324 N 
ATOM     12  C   UNL d   1      27.625 -15.043  -4.600  0.00  0.00     0.255 C 
ATOM     13  O   UNL d   1      26.652 -15.575  -5.159  0.00  0.00    -0.270 OA
ATOM     14  H   UNL d   1      28.446 -14.530  -2.733  0.00  0.00     0.169 HD
BRANCH  12  15
ATOM     15  C   UNL d   1      28.637 -14.160  -5.415  0.00  0.00     0.246 C 
BRANCH  15  16
ATOM     16  O   UNL d   1      28.020 -13.514  -6.536  0.00  0.00    -0.377 OA
ATOM     17  C   UNL d   1      27.906 -12.110  -6.420  0.00  0.00     0.203 C 
ENDBRANCH  15  16
BRANCH  15  18
ATOM     18  C   UNL d   1      29.796 -15.037  -5.946  0.00  0.00    -0.020 A 
ATOM     19  C   UNL d   1      30.650 -14.567  -6.962  0.00  0.00     0.012 A 
ATOM     20  C   UNL d   1      31.511 -15.435  -7.643  0.00  0.00     0.024 A 
ATOM     21  C   UNL d   1      31.611 -16.763  -7.245  0.00  0.00     0.034 A 
ATOM     22 CL   UNL d   1      32.616 -17.847  -8.127  0.00  0.00    -0.084 Cl
ATOM     23  C   UNL d   1      30.876 -17.222  -6.154  0.00  0.00     0.024 A 
ATOM     24  C   UNL d   1      29.941 -16.377  -5.537  0.00  0.00     0.012 A 
ENDBRANCH  15  18
ENDBRANCH  12  15
ENDBRANCH   1  11
BRANCH   5  25
ATOM     25  C   UNL d   1      22.119 -18.504  -0.342  0.00  0.00     0.079 A 
ATOM     26  C   UNL d   1      21.782 -18.575   1.018  0.00  0.00     0.034 A 
ATOM     27  C   UNL d   1      20.673 -19.325   1.433  0.00  0.00     0.010 A 
ATOM     28  C   UNL d   1      19.851 -19.973   0.499  0.00  0.00    -0.055 A 
ATOM     29  C   UNL d   1      20.154 -19.803  -0.866  0.00  0.00     0.010 A 
ATOM     30  C   UNL d   1      21.293 -19.106  -1.288  0.00  0.00     0.034 A 
BRANCH  28  31
ATOM     31  C   UNL d   1      18.711 -20.871   0.978  0.00  0.00     0.010 C 
ATOM     32  C   UNL d   1      18.020 -20.304   2.223  0.00  0.00     0.015 C 
ATOM     33  C   UNL d   1      17.655 -21.138  -0.102  0.00  0.00     0.015 C 
ENDBRANCH  28  31
ENDBRANCH   5  25
TORSDOF 6
ENDMDL
MODEL 2
REMARK VINA RESULT:    -9.276      2.604      3.709
REMARK INTER + INTRA:         -12.645
REMARK INTER:                 -11.066
REMARK INTRA:                  -1.579
REMARK CONF_INDEPENDENT:        1.790
REMARK UNBOUND:                -1.579
REMARK  6 active torsions:
REMARK  status: ('A' for Active; 'I' for Inactive)
REMARK    1  A    between atoms: O_2  and  C_3 
REMARK    2  A    between atoms: C_3  and  C_4 
REMARK    3  A    between atoms: C_3  and  C_26 
REMARK       I    between atoms: C_4  and  N_6 
REMARK    4  A    between atoms: N_6  and  C_7 
REMARK    5  A    between atoms: N_11  and  C_12 
REMARK    6  A    between atoms: C_15  and  C_16 
ROOT
ATOM      1  C   UNL d   1      26.742 -15.548  -2.318  0.00  0.00     0.043 A 
ATOM      2  C   UNL d   1      25.319 -15.466  -2.407  0.00  0.00     0.066 A 
ATOM      3  C   UNL d   1      24.610 -16.477  -1.697  0.00  0.00     0.111 A 
ATOM      4  N   UNL d   1      23.291 -16.768  -1.644  0.00  0.00    -0.147 NA
ATOM      5  N   UNL d   1      23.237 -17.770  -0.722  0.00  0.00    -0.150 N 
ATOM      6  N   UNL d   1      24.412 -18.191  -0.208  0.00  0.00    -0.147 NA
ATOM      7  C   UNL d   1      25.312 -17.447  -0.862  0.00  0.00     0.110 A 
ATOM      8  C   UNL d   1      26.713 -17.494  -0.773  0.00  0.00     0.045 A 
ATOM      9  C   UNL d   1      27.416 -16.515  -1.507  0.00  0.00    -0.033 A 
ATOM     10  C   UNL d   1      28.917 -16.449  -1.321  0.00  0.00     0.050 C 
ENDROOT
BRANCH   1  11
ATOM     11  N   UNL d   1      27.559 -14.617  -3.021  0.00  0.00    -0.324 N 
ATOM     12  C   UNL d   1      27.705 -14.696  -4.416  0.00  0.00     0.255 C 
ATOM     13  O   UNL d   1      27.124 -15.567  -5.085  0.00  0.00    -0.270 OA
ATOM     14  H   UNL d   1      27.775 -13.758  -2.536  0.00  0.00     0.169 HD
BRANCH  12  15
ATOM     15  C   UNL d   1      28.618 -13.623  -5.112  0.00  0.00     0.246 C 
BRANCH  15  16
ATOM     16  O   UNL d   1      29.805 -13.344  -4.358  0.00  0.00    -0.377 OA
ATOM     17  C   UNL d   1      30.581 -14.481  -4.036  0.00  0.00     0.203 C 
ENDBRANCH  15  16
BRANCH  15  18
ATOM     18  C   UNL d   1      27.838 -12.298  -5.284  0.00  0.00    -0.020 A 
ATOM     19  C   UNL d   1      27.172 -11.705  -4.193  0.00  0.00     0.012 A 
ATOM     20  C   UNL d   1      26.243 -10.676  -4.385  0.00  0.00     0.024 A 
ATOM     21  C   UNL d   1      26.047 -10.150  -5.656  0.00  0.00     0.034 A 
ATOM     22 CL   UNL d   1      24.854  -8.934  -5.904  0.00  0.00    -0.084 Cl
ATOM     23  C   UNL d   1      26.793 -10.627  -6.732  0.00  0.00     0.024 A 
ATOM     24  C   UNL d   1      27.650 -11.724  -6.556  0.00  0.00     0.012 A 
ENDBRANCH  15  18
ENDBRANCH  12  15
ENDBRANCH   1  11
BRANCH   5  25
ATOM     25  C   UNL d   1      22.032 -18.412  -0.330  0.00  0.00     0.079 A 
ATOM     26  C   UNL d   1      21.736 -18.575   1.030  0.00  0.00     0.034 A 
ATOM     27  C   UNL d   1      20.657 -19.376   1.429  0.00  0.00     0.010 A 
ATOM     28  C   UNL d   1      19.822 -19.984   0.478  0.00  0.00    -0.055 A 
ATOM     29  C   UNL d   1      20.082 -19.723  -0.881  0.00  0.00     0.010 A 
ATOM     30  C   UNL d   1      21.192 -18.973  -1.289  0.00  0.00     0.034 A 
BRANCH  28  31
ATOM     31  C   UNL d   1      18.718 -20.938   0.932  0.00  0.00     0.010 C 
ATOM     32  C   UNL d   1      18.027 -20.449   2.209  0.00  0.00     0.015 C 
ATOM     33  C   UNL d   1      17.655 -21.190  -0.146  0.00  0.00     0.015 C 
ENDBRANCH  28  31
ENDBRANCH   5  25
TORSDOF 6
ENDMDL
MODEL 3
REMARK VINA RESULT:    -8.904      7.472     10.296
REMARK INTER + INTRA:         -12.387
REMARK INTER:                 -10.694
REMARK INTRA:                  -1.693
REMARK CONF_INDEPENDENT:        1.790
REMARK UNBOUND:                -1.693
REMARK  6 active torsions:
REMARK  status: ('A' for Active; 'I' for Inactive)
REMARK    1  A    between atoms: O_2  and  C_3 
REMARK    2  A    between atoms: C_3  and  C_4 
REMARK    3  A    between atoms: C_3  and  C_26 
REMARK       I    between atoms: C_4  and  N_6 
REMARK    4  A    between atoms: N_6  and  C_7 
REMARK    5  A    between atoms: N_11  and  C_12 
REMARK    6  A    between atoms: C_15  and  C_16 
ROOT
ATOM      1  C   UNL d   1      28.112 -14.628   1.640  0.00  0.00     0.043 A 
ATOM      2  C   UNL d   1      27.405 -14.438   2.866  0.00  0.00     0.066 A 
ATOM      3  C   UNL d   1      28.224 -14.168   4.000  0.00  0.00     0.111 A 
ATOM      4  N   UNL d   1      27.915 -14.043   5.310  0.00  0.00    -0.147 NA
ATOM      5  N   UNL d   1      29.106 -13.691   5.872  0.00  0.00    -0.150 N 
ATOM      6  N   UNL d   1      30.173 -13.625   5.048  0.00  0.00    -0.147 NA
ATOM      7  C   UNL d   1      29.668 -14.000   3.867  0.00  0.00     0.110 A 
ATOM      8  C   UNL d   1      30.338 -14.171   2.645  0.00  0.00     0.045 A 
ATOM      9  C   UNL d   1      29.530 -14.475   1.529  0.00  0.00    -0.033 A 
ATOM     10  C   UNL d   1      30.204 -14.525   0.174  0.00  0.00     0.050 C 
ENDROOT
BRANCH   1  11
ATOM     11  N   UNL d   1      27.404 -14.945   0.446  0.00  0.00    -0.324 N 
ATOM     12  C   UNL d   1      26.897 -16.238   0.231  0.00  0.00     0.255 C 
ATOM     13  O   UNL d   1      27.037 -17.142   1.071  0.00  0.00    -0.270 OA
ATOM     14  H   UNL d   1      27.037 -14.162  -0.076  0.00  0.00     0.169 HD
BRANCH  12  15
ATOM     15  C   UNL d   1      26.121 -16.498  -1.110  0.00  0.00     0.246 C 
BRANCH  15  16
ATOM     16  O   UNL d   1      25.931 -15.299  -1.873  0.00  0.00    -0.377 OA
ATOM     17  C   UNL d   1      25.923 -15.486  -3.274  0.00  0.00     0.203 C 
ENDBRANCH  15  16
BRANCH  15  18
ATOM     18  C   UNL d   1      24.726 -17.096  -0.806  0.00  0.00    -0.020 A 
ATOM     19  C   UNL d   1      24.576 -18.467  -0.520  0.00  0.00     0.012 A 
ATOM     20  C   UNL d   1      23.314 -19.072  -0.520  0.00  0.00     0.024 A 
ATOM     21  C   UNL d   1      22.175 -18.297  -0.698  0.00  0.00     0.034 A 
ATOM     22 CL   UNL d   1      20.630 -19.050  -0.771  0.00  0.00    -0.084 Cl
ATOM     23  C   UNL d   1      22.288 -16.916  -0.848  0.00  0.00     0.024 A 
ATOM     24  C   UNL d   1      23.556 -16.325  -0.947  0.00  0.00     0.012 A 
ENDBRANCH  15  18
ENDBRANCH  12  15
ENDBRANCH   1  11
BRANCH   5  25
ATOM     25  C   UNL d   1      29.278 -13.449   7.260  0.00  0.00     0.079 A 
ATOM     26  C   UNL d   1      30.304 -14.097   7.962  0.00  0.00     0.034 A 
ATOM     27  C   UNL d   1      30.361 -14.023   9.361  0.00  0.00     0.010 A 
ATOM     28  C   UNL d   1      29.429 -13.259  10.080  0.00  0.00    -0.055 A 
ATOM     29  C   UNL d   1      28.469 -12.538   9.344  0.00  0.00     0.010 A 
ATOM     30  C   UNL d   1      28.367 -12.653   7.951  0.00  0.00     0.034 A 
BRANCH  28  31
ATOM     31  C   UNL d   1      29.444 -13.277  11.608  0.00  0.00     0.010 C 
ATOM     32  C   UNL d   1      28.530 -12.200  12.203  0.00  0.00     0.015 C 
ATOM     33  C   UNL d   1      29.062 -14.639  12.202  0.00  0.00     0.015 C 
ENDBRANCH  28  31
ENDBRANCH   5  25
TORSDOF 6
ENDMDL
MODEL 4
REMARK VINA RESULT:    -8.274      7.522     10.521
REMARK INTER + INTRA:         -11.781
REMARK INTER:                 -10.064
REMARK INTRA:                  -1.716
REMARK CONF_INDEPENDENT:        1.790
REMARK UNBOUND:                -1.716
REMARK  6 active torsions:
REMARK  status: ('A' for Active; 'I' for Inactive)
REMARK    1  A    between atoms: O_2  and  C_3 
REMARK    2  A    between atoms: C_3  and  C_4 
REMARK    3  A    between atoms: C_3  and  C_26 
REMARK       I    between atoms: C_4  and  N_6 
REMARK    4  A    between atoms: N_6  and  C_7 
REMARK    5  A    between atoms: N_11  and  C_12 
REMARK    6  A    between atoms: C_15  and  C_16 
ROOT
ATOM      1  C   UNL d   1      28.065 -14.601   1.700  0.00  0.00     0.043 A 
ATOM      2  C   UNL d   1      27.405 -14.444   2.957  0.00  0.00     0.066 A 
ATOM      3  C   UNL d   1      28.269 -14.243   4.072  0.00  0.00     0.111 A 
ATOM      4  N   UNL d   1      28.009 -14.165   5.396  0.00  0.00    -0.147 NA
ATOM      5  N   UNL d   1      29.227 -13.867   5.930  0.00  0.00    -0.150 N 
ATOM      6  N   UNL d   1      30.267 -13.795   5.072  0.00  0.00    -0.147 NA
ATOM      7  C   UNL d   1      29.711 -14.107   3.895  0.00  0.00     0.110 A 
ATOM      8  C   UNL d   1      30.335 -14.244   2.644  0.00  0.00     0.045 A 
ATOM      9  C   UNL d   1      29.482 -14.480   1.546  0.00  0.00    -0.033 A 
ATOM     10  C   UNL d   1      30.107 -14.491   0.167  0.00  0.00     0.050 C 
ENDROOT
BRANCH   1  11
ATOM     11  N   UNL d   1      27.308 -14.850   0.520  0.00  0.00    -0.324 N 
ATOM     12  C   UNL d   1      26.848 -16.143   0.218  0.00  0.00     0.255 C 
ATOM     13  O   UNL d   1      27.073 -17.107   0.967  0.00  0.00    -0.270 OA
ATOM     14  H   UNL d   1      26.879 -14.044   0.087  0.00  0.00     0.169 HD
BRANCH  12  15
ATOM     15  C   UNL d   1      26.013 -16.325  -1.100  0.00  0.00     0.246 C 
BRANCH  15  16
ATOM     16  O   UNL d   1      25.727 -15.077  -1.743  0.00  0.00    -0.377 OA
ATOM     17  C   UNL d   1      26.659 -14.695  -2.734  0.00  0.00     0.203 C 
ENDBRANCH  15  16
BRANCH  15  18
ATOM     18  C   UNL d   1      24.666 -17.018  -0.781  0.00  0.00    -0.020 A 
ATOM     19  C   UNL d   1      24.611 -18.399  -0.512  0.00  0.00     0.012 A 
ATOM     20  C   UNL d   1      23.391 -19.086  -0.500  0.00  0.00     0.024 A 
ATOM     21  C   UNL d   1      22.201 -18.384  -0.647  0.00  0.00     0.034 A 
ATOM     22 CL   UNL d   1      20.707 -19.236  -0.704  0.00  0.00    -0.084 Cl
ATOM     23  C   UNL d   1      22.221 -16.997  -0.778  0.00  0.00     0.024 A 
ATOM     24  C   UNL d   1      23.446 -16.323  -0.890  0.00  0.00     0.012 A 
ENDBRANCH  15  18
ENDBRANCH  12  15
ENDBRANCH   1  11
BRANCH   5  25
ATOM     25  C   UNL d   1      29.452 -13.688   7.320  0.00  0.00     0.079 A 
ATOM     26  C   UNL d   1      28.460 -13.103   8.120  0.00  0.00     0.034 A 
ATOM     27  C   UNL d   1      28.743 -12.740   9.445  0.00  0.00     0.010 A 
ATOM     28  C   UNL d   1      30.001 -13.002  10.010  0.00  0.00    -0.055 A 
ATOM     29  C   UNL d   1      30.945 -13.679   9.216  0.00  0.00     0.010 A 
ATOM     30  C   UNL d   1      30.693 -13.993   7.874  0.00  0.00     0.034 A 
BRANCH  28  31
ATOM     31  C   UNL d   1      30.322 -12.503  11.418  0.00  0.00     0.010 C 
ATOM     32  C   UNL d   1      29.054 -12.202  12.224  0.00  0.00     0.015 C 
ATOM     33  C   UNL d   1      31.203 -13.473  12.218  0.00  0.00     0.015 C 
ENDBRANCH  28  31
ENDBRANCH   5  25
TORSDOF 6
ENDMDL
MODEL 5
REMARK VINA RESULT:    -8.272      7.656     10.370
REMARK INTER + INTRA:         -11.667
REMARK INTER:                 -10.062
REMARK INTRA:                  -1.605
REMARK CONF_INDEPENDENT:        1.790
REMARK UNBOUND:                -1.605
REMARK  6 active torsions:
REMARK  status: ('A' for Active; 'I' for Inactive)
REMARK    1  A    between atoms: O_2  and  C_3 
REMARK    2  A    between atoms: C_3  and  C_4 
REMARK    3  A    between atoms: C_3  and  C_26 
REMARK       I    between atoms: C_4  and  N_6 
REMARK    4  A    between atoms: N_6  and  C_7 
REMARK    5  A    between atoms: N_11  and  C_12 
REMARK    6  A    between atoms: C_15  and  C_16 
ROOT
ATOM      1  C   UNL d   1      27.275 -13.440   1.595  0.00  0.00     0.043 A 
ATOM      2  C   UNL d   1      27.032 -14.075   2.851  0.00  0.00     0.066 A 
ATOM      3  C   UNL d   1      27.733 -13.515   3.957  0.00  0.00     0.111 A 
ATOM      4  N   UNL d   1      27.826 -13.913   5.245  0.00  0.00    -0.147 NA
ATOM      5  N   UNL d   1      28.553 -12.915   5.822  0.00  0.00    -0.150 N 
ATOM      6  N   UNL d   1      28.983 -11.926   5.010  0.00  0.00    -0.147 NA
ATOM      7  C   UNL d   1      28.549 -12.314   3.805  0.00  0.00     0.110 A 
ATOM      8  C   UNL d   1      28.756 -11.695   2.562  0.00  0.00     0.045 A 
ATOM      9  C   UNL d   1      28.091 -12.273   1.460  0.00  0.00    -0.033 A 
ATOM     10  C   UNL d   1      28.179 -11.547   0.134  0.00  0.00     0.050 C 
ENDROOT
BRANCH   1  11
ATOM     11  N   UNL d   1      26.663 -13.938   0.410  0.00  0.00    -0.324 N 
ATOM     12  C   UNL d   1      26.620 -15.318   0.146  0.00  0.00     0.255 C 
ATOM     13  O   UNL d   1      27.102 -16.148   0.935  0.00  0.00    -0.270 OA
ATOM     14  H   UNL d   1      26.026 -13.311  -0.060  0.00  0.00     0.169 HD
BRANCH  12  15
ATOM     15  C   UNL d   1      25.918 -15.781  -1.180  0.00  0.00     0.246 C 
BRANCH  15  16
ATOM     16  O   UNL d   1      25.503 -14.675  -1.994  0.00  0.00    -0.377 OA
ATOM     17  C   UNL d   1      25.674 -14.868  -3.383  0.00  0.00     0.203 C 
ENDBRANCH  15  16
BRANCH  15  18
ATOM     18  C   UNL d   1      24.665 -16.626  -0.848  0.00  0.00    -0.020 A 
ATOM     19  C   UNL d   1      24.781 -17.991  -0.524  0.00  0.00     0.012 A 
ATOM     20  C   UNL d   1      23.658 -18.827  -0.498  0.00  0.00     0.024 A 
ATOM     21  C   UNL d   1      22.391 -18.288  -0.685  0.00  0.00     0.034 A 
ATOM     22 CL   UNL d   1      21.018 -19.324  -0.724  0.00  0.00    -0.084 Cl
ATOM     23  C   UNL d   1      22.237 -16.916  -0.872  0.00  0.00     0.024 A 
ATOM     24  C   UNL d   1      23.369 -16.096  -0.998  0.00  0.00     0.012 A 
ENDBRANCH  15  18
ENDBRANCH  12  15
ENDBRANCH   1  11
BRANCH   5  25
ATOM     25  C   UNL d   1      28.913 -12.899   7.196  0.00  0.00     0.079 A 
ATOM     26  C   UNL d   1      29.358 -14.075   7.817  0.00  0.00     0.034 A 
ATOM     27  C   UNL d   1      29.524 -14.121   9.208  0.00  0.00     0.010 A 
ATOM     28  C   UNL d   1      29.302 -12.982   9.998  0.00  0.00    -0.055 A 
ATOM     29  C   UNL d   1      28.953 -11.788   9.338  0.00  0.00     0.010 A 
ATOM     30  C   UNL d   1      28.726 -11.747   7.956  0.00  0.00     0.034 A 
BRANCH  28  31
ATOM     31  C   UNL d   1      29.387 -13.082  11.520  0.00  0.00     0.010 C 
ATOM     32  C   UNL d   1      29.613 -11.714  12.173  0.00  0.00     0.015 C 
ATOM     33  C   UNL d   1      28.154 -13.740  12.154  0.00  0.00     0.015 C 
ENDBRANCH  28  31
ENDBRANCH   5  25
TORSDOF 6
ENDMDL
MODEL 6
REMARK VINA RESULT:    -8.232      7.855     10.466
REMARK INTER + INTRA:         -11.556
REMARK INTER:                 -10.022
REMARK INTRA:                  -1.534
REMARK CONF_INDEPENDENT:        1.790
REMARK UNBOUND:                -1.534
REMARK  6 active torsions:
REMARK  status: ('A' for Active; 'I' for Inactive)
REMARK    1  A    between atoms: O_2  and  C_3 
REMARK    2  A    between atoms: C_3  and  C_4 
REMARK    3  A    between atoms: C_3  and  C_26 
REMARK       I    between atoms: C_4  and  N_6 
REMARK    4  A    between atoms: N_6  and  C_7 
REMARK    5  A    between atoms: N_11  and  C_12 
REMARK    6  A    between atoms: C_15  and  C_16 
ROOT
ATOM      1  C   UNL d   1      27.402 -13.570   2.548  0.00  0.00     0.043 A 
ATOM      2  C   UNL d   1      27.788 -14.602   3.458  0.00  0.00     0.066 A 
ATOM      3  C   UNL d   1      28.234 -14.148   4.732  0.00  0.00     0.111 A 
ATOM      4  N   UNL d   1      28.763 -14.817   5.780  0.00  0.00    -0.147 NA
ATOM      5  N   UNL d   1      28.888 -13.849   6.731  0.00  0.00    -0.150 N 
ATOM      6  N   UNL d   1      28.531 -12.596   6.375  0.00  0.00    -0.147 NA
ATOM      7  C   UNL d   1      28.186 -12.733   5.089  0.00  0.00     0.110 A 
ATOM      8  C   UNL d   1      27.781 -11.739   4.183  0.00  0.00     0.045 A 
ATOM      9  C   UNL d   1      27.375 -12.186   2.909  0.00  0.00    -0.033 A 
ATOM     10  C   UNL d   1      26.800 -11.157   1.960  0.00  0.00     0.050 C 
ENDROOT
BRANCH   1  11
ATOM     11  N   UNL d   1      26.978 -13.900   1.230  0.00  0.00    -0.324 N 
ATOM     12  C   UNL d   1      27.678 -14.848   0.464  0.00  0.00     0.255 C 
ATOM     13  O   UNL d   1      28.677 -15.437   0.909  0.00  0.00    -0.270 OA
ATOM     14  H   UNL d   1      26.026 -13.659   0.993  0.00  0.00     0.169 HD
BRANCH  12  15
ATOM     15  C   UNL d   1      27.136 -15.158  -0.977  0.00  0.00     0.246 C 
BRANCH  15  16
ATOM     16  O   UNL d   1      26.556 -14.006  -1.603  0.00  0.00    -0.377 OA
ATOM     17  C   UNL d   1      27.486 -13.021  -2.005  0.00  0.00     0.203 C 
ENDBRANCH  15  16
BRANCH  15  18
ATOM     18  C   UNL d   1      26.054 -16.262  -0.910  0.00  0.00    -0.020 A 
ATOM     19  C   UNL d   1      24.908 -16.201  -1.726  0.00  0.00     0.012 A 
ATOM     20  C   UNL d   1      23.802 -17.022  -1.483  0.00  0.00     0.024 A 
ATOM     21  C   UNL d   1      23.865 -17.993  -0.491  0.00  0.00     0.034 A 
ATOM     22 CL   UNL d   1      22.481 -18.955  -0.145  0.00  0.00    -0.084 Cl
ATOM     23  C   UNL d   1      25.038 -18.166   0.242  0.00  0.00     0.024 A 
ATOM     24  C   UNL d   1      26.109 -17.277   0.065  0.00  0.00     0.012 A 
ENDBRANCH  15  18
ENDBRANCH  12  15
ENDBRANCH   1  11
BRANCH   5  25
ATOM     25  C   UNL d   1      29.414 -14.085   8.028  0.00  0.00     0.079 A 
ATOM     26  C   UNL d   1      30.782 -14.345   8.192  0.00  0.00     0.034 A 
ATOM     27  C   UNL d   1      31.277 -14.774   9.432  0.00  0.00     0.010 A 
ATOM     28  C   UNL d   1      30.427 -14.900  10.542  0.00  0.00    -0.055 A 
ATOM     29  C   UNL d   1      29.077 -14.537  10.375  0.00  0.00     0.010 A 
ATOM     30  C   UNL d   1      28.561 -14.165   9.127  0.00  0.00     0.034 A 
BRANCH  28  31
ATOM     31  C   UNL d   1      30.965 -15.470  11.853  0.00  0.00     0.010 C 
ATOM     32  C   UNL d   1      31.024 -17.001  11.833  0.00  0.00     0.015 C 
ATOM     33  C   UNL d   1      32.349 -14.923  12.230  0.00  0.00     0.015 C 
ENDBRANCH  28  31
ENDBRANCH   5  25
TORSDOF 6
ENDMDL
MODEL 7
REMARK VINA RESULT:    -7.893      2.772      4.044
REMARK INTER + INTRA:         -11.176
REMARK INTER:                  -9.683
REMARK INTRA:                  -1.493
REMARK CONF_INDEPENDENT:        1.790
REMARK UNBOUND:                -1.493
REMARK  6 active torsions:
REMARK  status: ('A' for Active; 'I' for Inactive)
REMARK    1  A    between atoms: O_2  and  C_3 
REMARK    2  A    between atoms: C_3  and  C_4 
REMARK    3  A    between atoms: C_3  and  C_26 
REMARK       I    between atoms: C_4  and  N_6 
REMARK    4  A    between atoms: N_6  and  C_7 
REMARK    5  A    between atoms: N_11  and  C_12 
REMARK    6  A    between atoms: C_15  and  C_16 
ROOT
ATOM      1  C   UNL d   1      28.235 -14.204  -4.191  0.00  0.00     0.043 A 
ATOM      2  C   UNL d   1      26.958 -14.800  -4.421  0.00  0.00     0.066 A 
ATOM      3  C   UNL d   1      26.357 -15.402  -3.278  0.00  0.00     0.111 A 
ATOM      4  N   UNL d   1      25.229 -16.134  -3.148  0.00  0.00    -0.147 NA
ATOM      5  N   UNL d   1      25.147 -16.334  -1.802  0.00  0.00    -0.150 N 
ATOM      6  N   UNL d   1      26.152 -15.837  -1.050  0.00  0.00    -0.147 NA
ATOM      7  C   UNL d   1      26.979 -15.309  -1.960  0.00  0.00     0.110 A 
ATOM      8  C   UNL d   1      28.227 -14.698  -1.756  0.00  0.00     0.045 A 
ATOM      9  C   UNL d   1      28.838 -14.134  -2.895  0.00  0.00    -0.033 A 
ATOM     10  C   UNL d   1      30.113 -13.346  -2.683  0.00  0.00     0.050 C 
ENDROOT
BRANCH   1  11
ATOM     11  N   UNL d   1      28.951 -13.607  -5.267  0.00  0.00    -0.324 N 
ATOM     12  C   UNL d   1      29.372 -14.375  -6.366  0.00  0.00     0.255 C 
ATOM     13  O   UNL d   1      29.129 -15.591  -6.444  0.00  0.00    -0.270 OA
ATOM     14  H   UNL d   1      28.883 -12.603  -5.346  0.00  0.00     0.169 HD
BRANCH  12  15
ATOM     15  C   UNL d   1      30.149 -13.634  -7.513  0.00  0.00     0.246 C 
BRANCH  15  16
ATOM     16  O   UNL d   1      31.207 -12.808  -7.011  0.00  0.00    -0.377 OA
ATOM     17  C   UNL d   1      32.226 -13.505  -6.323  0.00  0.00     0.203 C 
ENDBRANCH  15  16
BRANCH  15  18
ATOM     18  C   UNL d   1      29.178 -12.734  -8.313  0.00  0.00    -0.020 A 
ATOM     19  C   UNL d   1      29.551 -12.199  -9.561  0.00  0.00     0.012 A 
ATOM     20  C   UNL d   1      28.812 -11.173 -10.159  0.00  0.00     0.024 A 
ATOM     21  C   UNL d   1      27.628 -10.741  -9.573  0.00  0.00     0.034 A 
ATOM     22 CL   UNL d   1      26.756  -9.431 -10.270  0.00  0.00    -0.084 Cl
ATOM     23  C   UNL d   1      27.165 -11.348  -8.408  0.00  0.00     0.024 A 
ATOM     24  C   UNL d   1      27.956 -12.306  -7.757  0.00  0.00     0.012 A 
ENDBRANCH  15  18
ENDBRANCH  12  15
ENDBRANCH   1  11
BRANCH   5  25
ATOM     25  C   UNL d   1      24.104 -17.069  -1.180  0.00  0.00     0.079 A 
ATOM     26  C   UNL d   1      24.305 -18.413  -0.834  0.00  0.00     0.034 A 
ATOM     27  C   UNL d   1      23.228 -19.202  -0.405  0.00  0.00     0.010 A 
ATOM     28  C   UNL d   1      21.945 -18.652  -0.262  0.00  0.00    -0.055 A 
ATOM     29  C   UNL d   1      21.792 -17.276  -0.521  0.00  0.00     0.010 A 
ATOM     30  C   UNL d   1      22.847 -16.494  -1.006  0.00  0.00     0.034 A 
BRANCH  28  31
ATOM     31  C   UNL d   1      20.766 -19.552   0.104  0.00  0.00     0.010 C 
ATOM     32  C   UNL d   1      20.307 -19.337   1.550  0.00  0.00     0.015 C 
ATOM     33  C   UNL d   1      19.561 -19.384  -0.832  0.00  0.00     0.015 C 
ENDBRANCH  28  31
ENDBRANCH   5  25
TORSDOF 6
ENDMDL
MODEL 8
REMARK VINA RESULT:    -7.541      6.974      9.228
REMARK INTER + INTRA:         -10.737
REMARK INTER:                  -9.331
REMARK INTRA:                  -1.406
REMARK CONF_INDEPENDENT:        1.790
REMARK UNBOUND:                -1.406
REMARK  6 active torsions:
REMARK  status: ('A' for Active; 'I' for Inactive)
REMARK    1  A    between atoms: O_2  and  C_3 
REMARK    2  A    between atoms: C_3  and  C_4 
REMARK    3  A    between atoms: C_3  and  C_26 
REMARK       I    between atoms: C_4  and  N_6 
REMARK    4  A    between atoms: N_6  and  C_7 
REMARK    5  A    between atoms: N_11  and  C_12 
REMARK    6  A    between atoms: C_15  and  C_16 
ROOT
ATOM      1  C   UNL d   1      27.606 -14.208   1.302  0.00  0.00     0.043 A 
ATOM      2  C   UNL d   1      26.944 -13.699   2.461  0.00  0.00     0.066 A 
ATOM      3  C   UNL d   1      27.747 -13.635   3.636  0.00  0.00     0.111 A 
ATOM      4  N   UNL d   1      27.433 -13.314   4.911  0.00  0.00    -0.147 NA
ATOM      5  N   UNL d   1      28.643 -13.341   5.539  0.00  0.00    -0.150 N 
ATOM      6  N   UNL d   1      29.709 -13.700   4.793  0.00  0.00    -0.147 NA
ATOM      7  C   UNL d   1      29.167 -13.972   3.600  0.00  0.00     0.110 A 
ATOM      8  C   UNL d   1      29.801 -14.450   2.442  0.00  0.00     0.045 A 
ATOM      9  C   UNL d   1      28.996 -14.548   1.287  0.00  0.00    -0.033 A 
ATOM     10  C   UNL d   1      29.680 -14.924  -0.009  0.00  0.00     0.050 C 
ENDROOT
BRANCH   1  11
ATOM     11  N   UNL d   1      26.894 -14.358   0.079  0.00  0.00    -0.324 N 
ATOM     12  C   UNL d   1      26.272 -15.575  -0.249  0.00  0.00     0.255 C 
ATOM     13  O   UNL d   1      26.312 -16.554   0.515  0.00  0.00    -0.270 OA
ATOM     14  H   UNL d   1      26.612 -13.505  -0.381  0.00  0.00     0.169 HD
BRANCH  12  15
ATOM     15  C   UNL d   1      25.501 -15.651  -1.615  0.00  0.00     0.246 C 
BRANCH  15  16
ATOM     16  O   UNL d   1      24.935 -16.946  -1.852  0.00  0.00    -0.377 OA
ATOM     17  C   UNL d   1      23.829 -17.267  -1.033  0.00  0.00     0.203 C 
ENDBRANCH  15  16
BRANCH  15  18
ATOM     18  C   UNL d   1      26.462 -15.328  -2.784  0.00  0.00    -0.020 A 
ATOM     19  C   UNL d   1      25.969 -14.853  -4.014  0.00  0.00     0.012 A 
ATOM     20  C   UNL d   1      26.778 -14.825  -5.156  0.00  0.00     0.024 A 
ATOM     21  C   UNL d   1      28.122 -15.166  -5.060  0.00  0.00     0.034 A 
ATOM     22 CL   UNL d   1      29.099 -15.200  -6.476  0.00  0.00    -0.084 Cl
ATOM     23  C   UNL d   1      28.668 -15.509  -3.825  0.00  0.00     0.024 A 
ATOM     24  C   UNL d   1      27.835 -15.634  -2.703  0.00  0.00     0.012 A 
ENDBRANCH  15  18
ENDBRANCH  12  15
ENDBRANCH   1  11
BRANCH   5  25
ATOM     25  C   UNL d   1      28.815 -13.067   6.921  0.00  0.00     0.079 A 
ATOM     26  C   UNL d   1      29.177 -14.098   7.800  0.00  0.00     0.034 A 
ATOM     27  C   UNL d   1      29.156 -13.886   9.186  0.00  0.00     0.010 A 
ATOM     28  C   UNL d   1      28.827 -12.629   9.718  0.00  0.00    -0.055 A 
ATOM     29  C   UNL d   1      28.565 -11.585   8.810  0.00  0.00     0.010 A 
ATOM     30  C   UNL d   1      28.525 -11.801   7.427  0.00  0.00     0.034 A 
BRANCH  28  31
ATOM     31  C   UNL d   1      28.707 -12.449  11.230  0.00  0.00     0.010 C 
ATOM     32  C   UNL d   1      28.374 -13.765  11.941  0.00  0.00     0.015 C 
ATOM     33  C   UNL d   1      29.963 -11.840  11.869  0.00  0.00     0.015 C 
ENDBRANCH  28  31
ENDBRANCH   5  25
TORSDOF 6
ENDMDL
