MODEL 1
REMARK VINA RESULT:    -8.220      0.000      0.000
REMARK INTER + INTRA:         -11.956
REMARK INTER:                 -10.010
REMARK INTRA:                  -1.946
REMARK CONF_INDEPENDENT:        1.790
REMARK UNBOUND:                -1.946
REMARK  6 active torsions:
REMARK  status: ('A' for Active; 'I' for Inactive)
REMARK    1  A    between atoms: C_2  and  N_14 
REMARK    2  A    between atoms: C_3  and  C_4 
REMARK       I    between atoms: C_4  and  N_6 
REMARK    3  A    between atoms: N_6  and  C_7 
REMARK    4  A    between atoms: N_14  and  N_15 
REMARK       I    between atoms: N_15  and  C_16 
REMARK    5  A    between atoms: C_16  and  C_18 
REMARK       I    between atoms: C_18  and  N_20 
REMARK    6  A    between atoms: N_20  and  C_21 
ROOT
ATOM      1  N   UNL d   1      26.814 -16.005  -1.157  0.00  0.00    -0.302 N 
ATOM      2  H   UNL d   1      27.549 -15.845  -0.459  0.00  0.00     0.186 HD
ENDROOT
BRANCH   1   3
ATOM      3  C   UNL d   1      26.883 -15.239  -2.340  0.00  0.00     0.027 C 
ATOM      4  C   UNL d   1      26.211 -13.862  -2.231  0.00  0.00     0.070 C 
ATOM      5  C   UNL d   1      27.494 -15.648  -3.485  0.00  0.00     0.100 C 
BRANCH   5   6
ATOM      6  C   UNL d   1      27.528 -14.874  -4.773  0.00  0.00     0.247 C 
ATOM      7  O   UNL d   1      27.123 -15.358  -5.827  0.00  0.00    -0.268 OA
ATOM      8  N   UNL d   1      28.127 -13.623  -4.742  0.00  0.00    -0.322 N 
ATOM      9  H   UNL d   1      28.845 -13.440  -4.053  0.00  0.00     0.169 HD
BRANCH   8  10
ATOM     10  C   UNL d   1      28.074 -12.806  -5.914  0.00  0.00     0.052 A 
ATOM     11  C   UNL d   1      28.943 -13.076  -6.985  0.00  0.00     0.031 A 
ATOM     12  C   UNL d   1      28.855 -12.333  -8.175  0.00  0.00     0.002 A 
ATOM     13  C   UNL d   1      27.928 -11.299  -8.298  0.00  0.00     0.002 A 
ATOM     14  C   UNL d   1      27.082 -11.004  -7.234  0.00  0.00     0.021 A 
ATOM     15  C   UNL d   1      27.157 -11.740  -6.047  0.00  0.00     0.037 A 
ATOM     16 BR   UNL d   1      26.080 -11.078  -4.613  0.00  0.00    -0.049 Br
ENDBRANCH   8  10
ENDBRANCH   5   6
ENDBRANCH   1   3
BRANCH   1  17
ATOM     17  N   UNL d   1      25.787 -16.899  -0.775  0.00  0.00    -0.262 N 
ATOM     18  C   UNL d   1      24.447 -16.712  -1.138  0.00  0.00     0.328 C 
ATOM     19  O   UNL d   1      24.002 -15.816  -1.853  0.00  0.00    -0.261 OA
ATOM     20  H   UNL d   1      26.028 -17.683  -0.177  0.00  0.00     0.190 HD
BRANCH  18  21
ATOM     21  C   UNL d   1      23.490 -17.798  -0.533  0.00  0.00     0.315 C 
ATOM     22  O   UNL d   1      24.007 -18.676   0.153  0.00  0.00    -0.262 OA
ATOM     23  N   UNL d   1      22.130 -17.720  -0.872  0.00  0.00    -0.319 N 
ATOM     24  H   UNL d   1      21.872 -17.068  -1.610  0.00  0.00     0.169 HD
BRANCH  23  25
ATOM     25  C   UNL d   1      21.149 -18.645  -0.400  0.00  0.00     0.036 A 
ATOM     26  C   UNL d   1      20.184 -19.171  -1.264  0.00  0.00     0.030 A 
ATOM     27  C   UNL d   1      19.206 -20.074  -0.814  0.00  0.00     0.011 A 
ATOM     28  C   UNL d   1      19.142 -20.462   0.529  0.00  0.00    -0.040 A 
ATOM     29  C   UNL d   1      18.056 -21.405   0.981  0.00  0.00     0.050 C 
ATOM     30  C   UNL d   1      20.111 -19.939   1.400  0.00  0.00     0.042 A 
ATOM     31 CL   UNL d   1      20.068 -20.324   3.089  0.00  0.00    -0.084 Cl
ATOM     32  C   UNL d   1      21.125 -19.068   0.937  0.00  0.00     0.053 A 
ENDBRANCH  23  25
ENDBRANCH  18  21
ENDBRANCH   1  17
TORSDOF 6
ENDMDL
MODEL 2
REMARK VINA RESULT:    -8.129      9.046     11.582
REMARK INTER + INTRA:         -11.075
REMARK INTER:                  -9.918
REMARK INTRA:                  -1.157
REMARK CONF_INDEPENDENT:        1.790
REMARK UNBOUND:                -1.157
REMARK  6 active torsions:
REMARK  status: ('A' for Active; 'I' for Inactive)
REMARK    1  A    between atoms: C_2  and  N_14 
REMARK    2  A    between atoms: C_3  and  C_4 
REMARK       I    between atoms: C_4  and  N_6 
REMARK    3  A    between atoms: N_6  and  C_7 
REMARK    4  A    between atoms: N_14  and  N_15 
REMARK       I    between atoms: N_15  and  C_16 
REMARK    5  A    between atoms: C_16  and  C_18 
REMARK       I    between atoms: C_18  and  N_20 
REMARK    6  A    between atoms: N_20  and  C_21 
ROOT
ATOM      1  N   UNL d   1      32.936 -18.545   0.398  0.00  0.00    -0.302 N 
ATOM      2  H   UNL d   1      33.671 -18.423  -0.307  0.00  0.00     0.186 HD
ENDROOT
BRANCH   1   3
ATOM      3  C   UNL d   1      33.346 -18.985   1.675  0.00  0.00     0.027 C 
ATOM      4  C   UNL d   1      32.909 -18.060   2.822  0.00  0.00     0.070 C 
ATOM      5  C   UNL d   1      34.051 -20.126   1.905  0.00  0.00     0.100 C 
BRANCH   5   6
ATOM      6  C   UNL d   1      34.547 -20.582   3.248  0.00  0.00     0.247 C 
ATOM      7  O   UNL d   1      35.548 -20.091   3.766  0.00  0.00    -0.268 OA
ATOM      8  N   UNL d   1      33.885 -21.648   3.838  0.00  0.00    -0.322 N 
ATOM      9  H   UNL d   1      33.415 -22.322   3.247  0.00  0.00     0.169 HD
BRANCH   8  10
ATOM     10  C   UNL d   1      34.247 -22.035   5.166  0.00  0.00     0.052 A 
ATOM     11  C   UNL d   1      35.549 -22.499   5.419  0.00  0.00     0.031 A 
ATOM     12  C   UNL d   1      35.948 -22.812   6.730  0.00  0.00     0.002 A 
ATOM     13  C   UNL d   1      35.051 -22.696   7.791  0.00  0.00     0.002 A 
ATOM     14  C   UNL d   1      33.752 -22.264   7.548  0.00  0.00     0.021 A 
ATOM     15  C   UNL d   1      33.344 -21.945   6.249  0.00  0.00     0.037 A 
ATOM     16 BR   UNL d   1      31.480 -21.574   6.051  0.00  0.00    -0.049 Br
ENDBRANCH   8  10
ENDBRANCH   5   6
ENDBRANCH   1   3
BRANCH   1  17
ATOM     17  N   UNL d   1      31.611 -18.350  -0.054  0.00  0.00    -0.262 N 
ATOM     18  C   UNL d   1      31.300 -17.577  -1.180  0.00  0.00     0.328 C 
ATOM     19  O   UNL d   1      32.103 -17.028  -1.933  0.00  0.00    -0.261 OA
ATOM     20  H   UNL d   1      30.852 -18.753   0.489  0.00  0.00     0.190 HD
BRANCH  18  21
ATOM     21  C   UNL d   1      29.757 -17.453  -1.433  0.00  0.00     0.315 C 
ATOM     22  O   UNL d   1      29.396 -17.259  -2.592  0.00  0.00    -0.262 OA
ATOM     23  N   UNL d   1      28.913 -17.508  -0.312  0.00  0.00    -0.319 N 
ATOM     24  H   UNL d   1      29.354 -17.465   0.603  0.00  0.00     0.169 HD
BRANCH  23  25
ATOM     25  C   UNL d   1      27.491 -17.401  -0.395  0.00  0.00     0.036 A 
ATOM     26  C   UNL d   1      26.663 -18.272   0.319  0.00  0.00     0.030 A 
ATOM     27  C   UNL d   1      25.263 -18.186   0.241  0.00  0.00     0.011 A 
ATOM     28  C   UNL d   1      24.640 -17.240  -0.579  0.00  0.00    -0.040 A 
ATOM     29  C   UNL d   1      23.134 -17.202  -0.664  0.00  0.00     0.050 C 
ATOM     30  C   UNL d   1      25.466 -16.360  -1.296  0.00  0.00     0.042 A 
ATOM     31 CL   UNL d   1      24.776 -15.194  -2.377  0.00  0.00    -0.084 Cl
ATOM     32  C   UNL d   1      26.876 -16.414  -1.179  0.00  0.00     0.053 A 
ENDBRANCH  23  25
ENDBRANCH  18  21
ENDBRANCH   1  17
TORSDOF 6
ENDMDL
MODEL 3
REMARK VINA RESULT:    -8.043      4.572      6.639
REMARK INTER + INTRA:         -11.739
REMARK INTER:                  -9.833
REMARK INTRA:                  -1.906
REMARK CONF_INDEPENDENT:        1.790
REMARK UNBOUND:                -1.906
REMARK  6 active torsions:
REMARK  status: ('A' for Active; 'I' for Inactive)
REMARK    1  A    between atoms: C_2  and  N_14 
REMARK    2  A    between atoms: C_3  and  C_4 
REMARK       I    between atoms: C_4  and  N_6 
REMARK    3  A    between atoms: N_6  and  C_7 
REMARK    4  A    between atoms: N_14  and  N_15 
REMARK       I    between atoms: N_15  and  C_16 
REMARK    5  A    between atoms: C_16  and  C_18 
REMARK       I    between atoms: C_18  and  N_20 
REMARK    6  A    between atoms: N_20  and  C_21 
ROOT
ATOM      1  N   UNL d   1      27.137 -16.625  -0.939  0.00  0.00    -0.302 N 
ATOM      2  H   UNL d   1      27.625 -16.795  -1.825  0.00  0.00     0.186 HD
ENDROOT
BRANCH   1   3
ATOM      3  C   UNL d   1      27.701 -15.662  -0.076  0.00  0.00     0.027 C 
ATOM      4  C   UNL d   1      29.162 -15.313  -0.402  0.00  0.00     0.070 C 
ATOM      5  C   UNL d   1      27.035 -15.066   0.950  0.00  0.00     0.100 C 
BRANCH   5   6
ATOM      6  C   UNL d   1      27.634 -14.082   1.916  0.00  0.00     0.247 C 
ATOM      7  O   UNL d   1      27.489 -12.870   1.774  0.00  0.00    -0.268 OA
ATOM      8  N   UNL d   1      28.440 -14.594   2.922  0.00  0.00    -0.322 N 
ATOM      9  H   UNL d   1      28.926 -15.468   2.764  0.00  0.00     0.169 HD
BRANCH   8  10
ATOM     10  C   UNL d   1      28.931 -13.708   3.930  0.00  0.00     0.052 A 
ATOM     11  C   UNL d   1      28.032 -13.139   4.848  0.00  0.00     0.031 A 
ATOM     12  C   UNL d   1      28.504 -12.326   5.893  0.00  0.00     0.002 A 
ATOM     13  C   UNL d   1      29.864 -12.048   6.015  0.00  0.00     0.002 A 
ATOM     14  C   UNL d   1      30.760 -12.582   5.096  0.00  0.00     0.021 A 
ATOM     15  C   UNL d   1      30.304 -13.396   4.055  0.00  0.00     0.037 A 
ATOM     16 BR   UNL d   1      31.624 -13.876   2.759  0.00  0.00    -0.049 Br
ENDBRANCH   8  10
ENDBRANCH   5   6
ENDBRANCH   1   3
BRANCH   1  17
ATOM     17  N   UNL d   1      26.027 -17.461  -0.677  0.00  0.00    -0.262 N 
ATOM     18  C   UNL d   1      24.723 -17.134  -1.069  0.00  0.00     0.328 C 
ATOM     19  O   UNL d   1      24.381 -16.145  -1.715  0.00  0.00    -0.261 OA
ATOM     20  H   UNL d   1      26.180 -18.312  -0.144  0.00  0.00     0.190 HD
BRANCH  18  21
ATOM     21  C   UNL d   1      23.658 -18.186  -0.600  0.00  0.00     0.315 C 
ATOM     22  O   UNL d   1      24.081 -19.275  -0.219  0.00  0.00    -0.262 OA
ATOM     23  N   UNL d   1      22.305 -17.828  -0.710  0.00  0.00    -0.319 N 
ATOM     24  H   UNL d   1      22.091 -16.980  -1.230  0.00  0.00     0.169 HD
BRANCH  23  25
ATOM     25  C   UNL d   1      21.231 -18.689  -0.327  0.00  0.00     0.036 A 
ATOM     26  C   UNL d   1      20.264 -19.085  -1.255  0.00  0.00     0.030 A 
ATOM     27  C   UNL d   1      19.196 -19.923  -0.893  0.00  0.00     0.011 A 
ATOM     28  C   UNL d   1      19.043 -20.373   0.423  0.00  0.00    -0.040 A 
ATOM     29  C   UNL d   1      17.864 -21.243   0.781  0.00  0.00     0.050 C 
ATOM     30  C   UNL d   1      20.014 -19.981   1.358  0.00  0.00     0.042 A 
ATOM     31 CL   UNL d   1      19.868 -20.449   3.020  0.00  0.00    -0.084 Cl
ATOM     32  C   UNL d   1      21.116 -19.177   0.982  0.00  0.00     0.053 A 
ENDBRANCH  23  25
ENDBRANCH  18  21
ENDBRANCH   1  17
TORSDOF 6
ENDMDL
MODEL 4
REMARK VINA RESULT:    -7.977      2.234      2.733
REMARK INTER + INTRA:         -11.611
REMARK INTER:                  -9.767
REMARK INTRA:                  -1.844
REMARK CONF_INDEPENDENT:        1.790
REMARK UNBOUND:                -1.844
REMARK  6 active torsions:
REMARK  status: ('A' for Active; 'I' for Inactive)
REMARK    1  A    between atoms: C_2  and  N_14 
REMARK    2  A    between atoms: C_3  and  C_4 
REMARK       I    between atoms: C_4  and  N_6 
REMARK    3  A    between atoms: N_6  and  C_7 
REMARK    4  A    between atoms: N_14  and  N_15 
REMARK       I    between atoms: N_15  and  C_16 
REMARK    5  A    between atoms: C_16  and  C_18 
REMARK       I    between atoms: C_18  and  N_20 
REMARK    6  A    between atoms: N_20  and  C_21 
ROOT
ATOM      1  N   UNL d   1      27.007 -15.983  -1.158  0.00  0.00    -0.302 N 
ATOM      2  H   UNL d   1      27.185 -15.216  -0.500  0.00  0.00     0.186 HD
ENDROOT
BRANCH   1   3
ATOM      3  C   UNL d   1      27.736 -15.968  -2.366  0.00  0.00     0.027 C 
ATOM      4  C   UNL d   1      29.037 -16.785  -2.318  0.00  0.00     0.070 C 
ATOM      5  C   UNL d   1      27.343 -15.313  -3.492  0.00  0.00     0.100 C 
BRANCH   5   6
ATOM      6  C   UNL d   1      28.132 -15.236  -4.769  0.00  0.00     0.247 C 
ATOM      7  O   UNL d   1      27.612 -15.451  -5.861  0.00  0.00    -0.268 OA
ATOM      8  N   UNL d   1      29.495 -15.006  -4.657  0.00  0.00    -0.322 N 
ATOM      9  H   UNL d   1      29.974 -15.298  -3.814  0.00  0.00     0.169 HD
BRANCH   8  10
ATOM     10  C   UNL d   1      30.261 -14.807  -5.847  0.00  0.00     0.052 A 
ATOM     11  C   UNL d   1      30.316 -13.529  -6.428  0.00  0.00     0.031 A 
ATOM     12  C   UNL d   1      31.124 -13.296  -7.555  0.00  0.00     0.002 A 
ATOM     13  C   UNL d   1      31.856 -14.334  -8.129  0.00  0.00     0.002 A 
ATOM     14  C   UNL d   1      31.786 -15.609  -7.580  0.00  0.00     0.021 A 
ATOM     15  C   UNL d   1      30.990 -15.853  -6.456  0.00  0.00     0.037 A 
ATOM     16 BR   UNL d   1      30.836 -17.690  -5.953  0.00  0.00    -0.049 Br
ENDBRANCH   8  10
ENDBRANCH   5   6
ENDBRANCH   1   3
BRANCH   1  17
ATOM     17  N   UNL d   1      25.980 -16.882  -0.790  0.00  0.00    -0.262 N 
ATOM     18  C   UNL d   1      24.685 -16.811  -1.321  0.00  0.00     0.328 C 
ATOM     19  O   UNL d   1      24.291 -16.027  -2.183  0.00  0.00    -0.261 OA
ATOM     20  H   UNL d   1      26.180 -17.579  -0.079  0.00  0.00     0.190 HD
BRANCH  18  21
ATOM     21  C   UNL d   1      23.708 -17.871  -0.702  0.00  0.00     0.315 C 
ATOM     22  O   UNL d   1      24.218 -18.818  -0.108  0.00  0.00    -0.262 OA
ATOM     23  N   UNL d   1      22.334 -17.691  -0.928  0.00  0.00    -0.319 N 
ATOM     24  H   UNL d   1      22.064 -16.982  -1.606  0.00  0.00     0.169 HD
BRANCH  23  25
ATOM     25  C   UNL d   1      21.334 -18.581  -0.431  0.00  0.00     0.036 A 
ATOM     26  C   UNL d   1      20.368 -19.125  -1.284  0.00  0.00     0.030 A 
ATOM     27  C   UNL d   1      19.372 -19.994  -0.809  0.00  0.00     0.011 A 
ATOM     28  C   UNL d   1      19.290 -20.329   0.547  0.00  0.00    -0.040 A 
ATOM     29  C   UNL d   1      18.184 -21.238   1.024  0.00  0.00     0.050 C 
ATOM     30  C   UNL d   1      20.259 -19.790   1.407  0.00  0.00     0.042 A 
ATOM     31 CL   UNL d   1      20.195 -20.110   3.109  0.00  0.00    -0.084 Cl
ATOM     32  C   UNL d   1      21.292 -18.953   0.921  0.00  0.00     0.053 A 
ENDBRANCH  23  25
ENDBRANCH  18  21
ENDBRANCH   1  17
TORSDOF 6
ENDMDL
MODEL 5
REMARK VINA RESULT:    -7.835     11.583     13.537
REMARK INTER + INTRA:         -10.788
REMARK INTER:                  -9.625
REMARK INTRA:                  -1.164
REMARK CONF_INDEPENDENT:        1.790
REMARK UNBOUND:                -1.164
REMARK  6 active torsions:
REMARK  status: ('A' for Active; 'I' for Inactive)
REMARK    1  A    between atoms: C_2  and  N_14 
REMARK    2  A    between atoms: C_3  and  C_4 
REMARK       I    between atoms: C_4  and  N_6 
REMARK    3  A    between atoms: N_6  and  C_7 
REMARK    4  A    between atoms: N_14  and  N_15 
REMARK       I    between atoms: N_15  and  C_16 
REMARK    5  A    between atoms: C_16  and  C_18 
REMARK       I    between atoms: C_18  and  N_20 
REMARK    6  A    between atoms: N_20  and  C_21 
ROOT
ATOM      1  N   UNL d   1      30.510 -21.614   2.319  0.00  0.00    -0.302 N 
ATOM      2  H   UNL d   1      29.708 -20.976   2.303  0.00  0.00     0.186 HD
ENDROOT
BRANCH   1   3
ATOM      3  C   UNL d   1      30.768 -22.341   1.137  0.00  0.00     0.027 C 
ATOM      4  C   UNL d   1      31.933 -21.782   0.304  0.00  0.00     0.070 C 
ATOM      5  C   UNL d   1      30.078 -23.447   0.749  0.00  0.00     0.100 C 
BRANCH   5   6
ATOM      6  C   UNL d   1      30.297 -24.200  -0.533  0.00  0.00     0.247 C 
ATOM      7  O   UNL d   1      31.078 -25.147  -0.599  0.00  0.00    -0.268 OA
ATOM      8  N   UNL d   1      29.655 -23.722  -1.665  0.00  0.00    -0.322 N 
ATOM      9  H   UNL d   1      29.426 -22.738  -1.721  0.00  0.00     0.169 HD
BRANCH   8  10
ATOM     10  C   UNL d   1      29.741 -24.476  -2.877  0.00  0.00     0.052 A 
ATOM     11  C   UNL d   1      28.685 -25.332  -3.235  0.00  0.00     0.031 A 
ATOM     12  C   UNL d   1      28.716 -26.023  -4.458  0.00  0.00     0.002 A 
ATOM     13  C   UNL d   1      29.806 -25.894  -5.318  0.00  0.00     0.002 A 
ATOM     14  C   UNL d   1      30.869 -25.072  -4.961  0.00  0.00     0.021 A 
ATOM     15  C   UNL d   1      30.848 -24.375  -3.749  0.00  0.00     0.037 A 
ATOM     16 BR   UNL d   1      32.467 -23.460  -3.310  0.00  0.00    -0.049 Br
ENDBRANCH   8  10
ENDBRANCH   5   6
ENDBRANCH   1   3
BRANCH   1  17
ATOM     17  N   UNL d   1      31.173 -21.741   3.561  0.00  0.00    -0.262 N 
ATOM     18  C   UNL d   1      30.499 -21.683   4.788  0.00  0.00     0.328 C 
ATOM     19  O   UNL d   1      29.285 -21.574   4.950  0.00  0.00    -0.261 OA
ATOM     20  H   UNL d   1      32.184 -21.833   3.562  0.00  0.00     0.190 HD
BRANCH  18  21
ATOM     21  C   UNL d   1      31.462 -21.775   6.023  0.00  0.00     0.315 C 
ATOM     22  O   UNL d   1      30.969 -21.576   7.131  0.00  0.00    -0.262 OA
ATOM     23  N   UNL d   1      32.822 -22.014   5.764  0.00  0.00    -0.319 N 
ATOM     24  H   UNL d   1      33.126 -21.955   4.795  0.00  0.00     0.169 HD
BRANCH  23  25
ATOM     25  C   UNL d   1      33.810 -22.114   6.790  0.00  0.00     0.036 A 
ATOM     26  C   UNL d   1      34.267 -23.361   7.227  0.00  0.00     0.030 A 
ATOM     27  C   UNL d   1      35.232 -23.478   8.242  0.00  0.00     0.011 A 
ATOM     28  C   UNL d   1      35.754 -22.346   8.877  0.00  0.00    -0.040 A 
ATOM     29  C   UNL d   1      36.762 -22.513   9.987  0.00  0.00     0.050 C 
ATOM     30  C   UNL d   1      35.302 -21.091   8.440  0.00  0.00     0.042 A 
ATOM     31 CL   UNL d   1      35.857 -19.642   9.211  0.00  0.00    -0.084 Cl
ATOM     32  C   UNL d   1      34.367 -20.972   7.384  0.00  0.00     0.053 A 
ENDBRANCH  23  25
ENDBRANCH  18  21
ENDBRANCH   1  17
TORSDOF 6
ENDMDL
MODEL 6
REMARK VINA RESULT:    -7.803     11.885     14.146
REMARK INTER + INTRA:         -11.434
REMARK INTER:                  -9.592
REMARK INTRA:                  -1.842
REMARK CONF_INDEPENDENT:        1.790
REMARK UNBOUND:                -1.842
REMARK  6 active torsions:
REMARK  status: ('A' for Active; 'I' for Inactive)
REMARK    1  A    between atoms: C_2  and  N_14 
REMARK    2  A    between atoms: C_3  and  C_4 
REMARK       I    between atoms: C_4  and  N_6 
REMARK    3  A    between atoms: N_6  and  C_7 
REMARK    4  A    between atoms: N_14  and  N_15 
REMARK       I    between atoms: N_15  and  C_16 
REMARK    5  A    between atoms: C_16  and  C_18 
REMARK       I    between atoms: C_18  and  N_20 
REMARK    6  A    between atoms: N_20  and  C_21 
ROOT
ATOM      1  N   UNL d   1      31.621 -20.844   2.622  0.00  0.00    -0.302 N 
ATOM      2  H   UNL d   1      31.176 -19.920   2.588  0.00  0.00     0.186 HD
ENDROOT
BRANCH   1   3
ATOM      3  C   UNL d   1      32.345 -21.159   3.792  0.00  0.00     0.027 C 
ATOM      4  C   UNL d   1      33.803 -21.566   3.531  0.00  0.00     0.070 C 
ATOM      5  C   UNL d   1      31.831 -21.104   5.051  0.00  0.00     0.100 C 
BRANCH   5   6
ATOM      6  C   UNL d   1      32.566 -21.491   6.304  0.00  0.00     0.247 C 
ATOM      7  O   UNL d   1      31.980 -21.966   7.274  0.00  0.00    -0.268 OA
ATOM      8  N   UNL d   1      33.921 -21.200   6.357  0.00  0.00    -0.322 N 
ATOM      9  H   UNL d   1      34.278 -20.426   5.812  0.00  0.00     0.169 HD
BRANCH   8  10
ATOM     10  C   UNL d   1      34.680 -21.658   7.478  0.00  0.00     0.052 A 
ATOM     11  C   UNL d   1      35.032 -20.751   8.492  0.00  0.00     0.031 A 
ATOM     12  C   UNL d   1      35.711 -21.196   9.639  0.00  0.00     0.002 A 
ATOM     13  C   UNL d   1      36.073 -22.536   9.772  0.00  0.00     0.002 A 
ATOM     14  C   UNL d   1      35.756 -23.438   8.763  0.00  0.00     0.021 A 
ATOM     15  C   UNL d   1      35.075 -23.007   7.619  0.00  0.00     0.037 A 
ATOM     16 BR   UNL d   1      34.901 -24.316   6.237  0.00  0.00    -0.049 Br
ENDBRANCH   8  10
ENDBRANCH   5   6
ENDBRANCH   1   3
BRANCH   1  17
ATOM     17  N   UNL d   1      31.523 -21.618   1.443  0.00  0.00    -0.262 N 
ATOM     18  C   UNL d   1      30.365 -22.326   1.095  0.00  0.00     0.328 C 
ATOM     19  O   UNL d   1      29.300 -22.330   1.710  0.00  0.00    -0.261 OA
ATOM     20  H   UNL d   1      32.342 -21.698   0.849  0.00  0.00     0.190 HD
BRANCH  18  21
ATOM     21  C   UNL d   1      30.529 -23.165  -0.219  0.00  0.00     0.315 C 
ATOM     22  O   UNL d   1      31.626 -23.127  -0.771  0.00  0.00    -0.262 OA
ATOM     23  N   UNL d   1      29.397 -23.843  -0.697  0.00  0.00    -0.319 N 
ATOM     24  H   UNL d   1      28.505 -23.625  -0.258  0.00  0.00     0.169 HD
BRANCH  23  25
ATOM     25  C   UNL d   1      29.400 -24.638  -1.885  0.00  0.00     0.036 A 
ATOM     26  C   UNL d   1      28.496 -25.691  -2.046  0.00  0.00     0.030 A 
ATOM     27  C   UNL d   1      28.492 -26.488  -3.203  0.00  0.00     0.011 A 
ATOM     28  C   UNL d   1      29.418 -26.276  -4.231  0.00  0.00    -0.040 A 
ATOM     29  C   UNL d   1      29.406 -27.175  -5.442  0.00  0.00     0.050 C 
ATOM     30  C   UNL d   1      30.326 -25.217  -4.076  0.00  0.00     0.042 A 
ATOM     31 CL   UNL d   1      31.540 -24.921  -5.276  0.00  0.00    -0.084 Cl
ATOM     32  C   UNL d   1      30.297 -24.383  -2.933  0.00  0.00     0.053 A 
ENDBRANCH  23  25
ENDBRANCH  18  21
ENDBRANCH   1  17
TORSDOF 6
ENDMDL
MODEL 7
REMARK VINA RESULT:    -7.476      2.933      3.640
REMARK INTER + INTRA:         -11.093
REMARK INTER:                  -9.266
REMARK INTRA:                  -1.828
REMARK CONF_INDEPENDENT:        1.790
REMARK UNBOUND:                -1.828
REMARK  6 active torsions:
REMARK  status: ('A' for Active; 'I' for Inactive)
REMARK    1  A    between atoms: C_2  and  N_14 
REMARK    2  A    between atoms: C_3  and  C_4 
REMARK       I    between atoms: C_4  and  N_6 
REMARK    3  A    between atoms: N_6  and  C_7 
REMARK    4  A    between atoms: N_14  and  N_15 
REMARK       I    between atoms: N_15  and  C_16 
REMARK    5  A    between atoms: C_16  and  C_18 
REMARK       I    between atoms: C_18  and  N_20 
REMARK    6  A    between atoms: N_20  and  C_21 
ROOT
ATOM      1  N   UNL d   1      27.105 -15.951  -0.907  0.00  0.00    -0.302 N 
ATOM      2  H   UNL d   1      27.204 -15.102  -0.339  0.00  0.00     0.186 HD
ENDROOT
BRANCH   1   3
ATOM      3  C   UNL d   1      27.968 -16.078  -2.016  0.00  0.00     0.027 C 
ATOM      4  C   UNL d   1      27.490 -15.326  -3.267  0.00  0.00     0.070 C 
ATOM      5  C   UNL d   1      29.132 -16.783  -2.006  0.00  0.00     0.100 C 
BRANCH   5   6
ATOM      6  C   UNL d   1      30.035 -16.980  -3.191  0.00  0.00     0.247 C 
ATOM      7  O   UNL d   1      31.257 -16.886  -3.094  0.00  0.00    -0.268 OA
ATOM      8  N   UNL d   1      29.428 -17.178  -4.422  0.00  0.00    -0.322 N 
ATOM      9  H   UNL d   1      28.505 -16.795  -4.581  0.00  0.00     0.169 HD
BRANCH   8  10
ATOM     10  C   UNL d   1      30.247 -17.488  -5.552  0.00  0.00     0.052 A 
ATOM     11  C   UNL d   1      30.696 -18.807  -5.740  0.00  0.00     0.031 A 
ATOM     12  C   UNL d   1      31.438 -19.148  -6.884  0.00  0.00     0.002 A 
ATOM     13  C   UNL d   1      31.764 -18.178  -7.832  0.00  0.00     0.002 A 
ATOM     14  C   UNL d   1      31.350 -16.865  -7.642  0.00  0.00     0.021 A 
ATOM     15  C   UNL d   1      30.607 -16.514  -6.511  0.00  0.00     0.037 A 
ATOM     16 BR   UNL d   1      30.297 -14.641  -6.291  0.00  0.00    -0.049 Br
ENDBRANCH   8  10
ENDBRANCH   5   6
ENDBRANCH   1   3
BRANCH   1  17
ATOM     17  N   UNL d   1      26.046 -16.814  -0.544  0.00  0.00    -0.262 N 
ATOM     18  C   UNL d   1      24.755 -16.695  -1.076  0.00  0.00     0.328 C 
ATOM     19  O   UNL d   1      24.391 -15.894  -1.935  0.00  0.00    -0.261 OA
ATOM     20  H   UNL d   1      26.221 -17.520   0.165  0.00  0.00     0.190 HD
BRANCH  18  21
ATOM     21  C   UNL d   1      23.741 -17.722  -0.462  0.00  0.00     0.315 C 
ATOM     22  O   UNL d   1      24.198 -18.570   0.301  0.00  0.00    -0.262 OA
ATOM     23  N   UNL d   1      22.403 -17.634  -0.878  0.00  0.00    -0.319 N 
ATOM     24  H   UNL d   1      22.201 -17.021  -1.665  0.00  0.00     0.169 HD
BRANCH  23  25
ATOM     25  C   UNL d   1      21.375 -18.508  -0.408  0.00  0.00     0.036 A 
ATOM     26  C   UNL d   1      20.371 -18.964  -1.267  0.00  0.00     0.030 A 
ATOM     27  C   UNL d   1      19.348 -19.815  -0.819  0.00  0.00     0.011 A 
ATOM     28  C   UNL d   1      19.278 -20.220   0.519  0.00  0.00    -0.040 A 
ATOM     29  C   UNL d   1      18.144 -21.106   0.971  0.00  0.00     0.050 C 
ATOM     30  C   UNL d   1      20.285 -19.768   1.386  0.00  0.00     0.042 A 
ATOM     31 CL   UNL d   1      20.241 -20.176   3.069  0.00  0.00    -0.084 Cl
ATOM     32  C   UNL d   1      21.343 -18.950   0.923  0.00  0.00     0.053 A 
ENDBRANCH  23  25
ENDBRANCH  18  21
ENDBRANCH   1  17
TORSDOF 6
ENDMDL
MODEL 8
REMARK VINA RESULT:    -7.284      4.262     10.992
REMARK INTER + INTRA:         -10.625
REMARK INTER:                  -9.074
REMARK INTRA:                  -1.551
REMARK CONF_INDEPENDENT:        1.790
REMARK UNBOUND:                -1.551
REMARK  6 active torsions:
REMARK  status: ('A' for Active; 'I' for Inactive)
REMARK    1  A    between atoms: C_2  and  N_14 
REMARK    2  A    between atoms: C_3  and  C_4 
REMARK       I    between atoms: C_4  and  N_6 
REMARK    3  A    between atoms: N_6  and  C_7 
REMARK    4  A    between atoms: N_14  and  N_15 
REMARK       I    between atoms: N_15  and  C_16 
REMARK    5  A    between atoms: C_16  and  C_18 
REMARK       I    between atoms: C_18  and  N_20 
REMARK    6  A    between atoms: N_20  and  C_21 
ROOT
ATOM      1  N   UNL d   1      25.051 -16.461  -0.042  0.00  0.00    -0.302 N 
ATOM      2  H   UNL d   1      25.451 -16.573   0.897  0.00  0.00     0.186 HD
ENDROOT
BRANCH   1   3
ATOM      3  C   UNL d   1      23.794 -17.060  -0.273  0.00  0.00     0.027 C 
ATOM      4  C   UNL d   1      22.741 -16.096  -0.841  0.00  0.00     0.070 C 
ATOM      5  C   UNL d   1      23.513 -18.371  -0.040  0.00  0.00     0.100 C 
BRANCH   5   6
ATOM      6  C   UNL d   1      22.168 -19.014  -0.224  0.00  0.00     0.247 C 
ATOM      7  O   UNL d   1      21.802 -19.443  -1.315  0.00  0.00    -0.268 OA
ATOM      8  N   UNL d   1      21.314 -19.017   0.870  0.00  0.00    -0.322 N 
ATOM      9  H   UNL d   1      21.406 -18.289   1.566  0.00  0.00     0.169 HD
BRANCH   8  10
ATOM     10  C   UNL d   1      20.075 -19.723   0.774  0.00  0.00     0.052 A 
ATOM     11  C   UNL d   1      19.348 -19.684  -0.429  0.00  0.00     0.031 A 
ATOM     12  C   UNL d   1      18.167 -20.433  -0.568  0.00  0.00     0.002 A 
ATOM     13  C   UNL d   1      17.683 -21.197   0.492  0.00  0.00     0.002 A 
ATOM     14  C   UNL d   1      18.378 -21.221   1.696  0.00  0.00     0.021 A 
ATOM     15  C   UNL d   1      19.557 -20.485   1.846  0.00  0.00     0.037 A 
ATOM     16 BR   UNL d   1      20.275 -20.452   3.617  0.00  0.00    -0.049 Br
ENDBRANCH   8  10
ENDBRANCH   5   6
ENDBRANCH   1   3
BRANCH   1  17
ATOM     17  N   UNL d   1      25.874 -15.808  -0.988  0.00  0.00    -0.262 N 
ATOM     18  C   UNL d   1      25.712 -15.966  -2.371  0.00  0.00     0.328 C 
ATOM     19  O   UNL d   1      24.836 -16.622  -2.933  0.00  0.00    -0.261 OA
ATOM     20  H   UNL d   1      26.641 -15.237  -0.647  0.00  0.00     0.190 HD
BRANCH  18  21
ATOM     21  C   UNL d   1      26.792 -15.197  -3.208  0.00  0.00     0.315 C 
ATOM     22  O   UNL d   1      27.484 -14.378  -2.607  0.00  0.00    -0.262 OA
ATOM     23  N   UNL d   1      26.844 -15.456  -4.587  0.00  0.00    -0.319 N 
ATOM     24  H   UNL d   1      26.082 -16.000  -4.986  0.00  0.00     0.169 HD
BRANCH  23  25
ATOM     25  C   UNL d   1      27.771 -14.823  -5.470  0.00  0.00     0.036 A 
ATOM     26  C   UNL d   1      27.515 -13.548  -5.986  0.00  0.00     0.030 A 
ATOM     27  C   UNL d   1      28.412 -12.916  -6.863  0.00  0.00     0.011 A 
ATOM     28  C   UNL d   1      29.587 -13.550  -7.279  0.00  0.00    -0.040 A 
ATOM     29  C   UNL d   1      30.507 -12.853  -8.250  0.00  0.00     0.050 C 
ATOM     30  C   UNL d   1      29.850 -14.829  -6.762  0.00  0.00     0.042 A 
ATOM     31 CL   UNL d   1      31.256 -15.707  -7.270  0.00  0.00    -0.084 Cl
ATOM     32  C   UNL d   1      28.972 -15.445  -5.840  0.00  0.00     0.053 A 
ENDBRANCH  23  25
ENDBRANCH  18  21
ENDBRANCH   1  17
TORSDOF 6
ENDMDL
MODEL 9
REMARK VINA RESULT:    -7.251      4.562      6.232
REMARK INTER + INTRA:         -10.857
REMARK INTER:                  -9.041
REMARK INTRA:                  -1.816
REMARK CONF_INDEPENDENT:        1.790
REMARK UNBOUND:                -1.816
REMARK  6 active torsions:
REMARK  status: ('A' for Active; 'I' for Inactive)
REMARK    1  A    between atoms: C_2  and  N_14 
REMARK    2  A    between atoms: C_3  and  C_4 
REMARK       I    between atoms: C_4  and  N_6 
REMARK    3  A    between atoms: N_6  and  C_7 
REMARK    4  A    between atoms: N_14  and  N_15 
REMARK       I    between atoms: N_15  and  C_16 
REMARK    5  A    between atoms: C_16  and  C_18 
REMARK       I    between atoms: C_18  and  N_20 
REMARK    6  A    between atoms: N_20  and  C_21 
ROOT
ATOM      1  N   UNL d   1      27.361 -16.167  -0.258  0.00  0.00    -0.302 N 
ATOM      2  H   UNL d   1      28.163 -16.550  -0.770  0.00  0.00     0.186 HD
ENDROOT
BRANCH   1   3
ATOM      3  C   UNL d   1      27.517 -14.880   0.298  0.00  0.00     0.027 C 
ATOM      4  C   UNL d   1      26.687 -13.794  -0.405  0.00  0.00     0.070 C 
ATOM      5  C   UNL d   1      28.309 -14.595   1.367  0.00  0.00     0.100 C 
BRANCH   5   6
ATOM      6  C   UNL d   1      28.534 -13.223   1.937  0.00  0.00     0.247 C 
ATOM      7  O   UNL d   1      29.561 -12.589   1.705  0.00  0.00    -0.268 OA
ATOM      8  N   UNL d   1      27.577 -12.740   2.817  0.00  0.00    -0.322 N 
ATOM      9  H   UNL d   1      27.028 -13.398   3.355  0.00  0.00     0.169 HD
BRANCH   8  10
ATOM     10  C   UNL d   1      27.691 -11.395   3.289  0.00  0.00     0.052 A 
ATOM     11  C   UNL d   1      27.602 -10.332   2.374  0.00  0.00     0.031 A 
ATOM     12  C   UNL d   1      27.635  -9.001   2.827  0.00  0.00     0.002 A 
ATOM     13  C   UNL d   1      27.788  -8.718   4.183  0.00  0.00     0.002 A 
ATOM     14  C   UNL d   1      27.905  -9.762   5.095  0.00  0.00     0.021 A 
ATOM     15  C   UNL d   1      27.869 -11.090   4.657  0.00  0.00     0.037 A 
ATOM     16 BR   UNL d   1      28.254 -12.397   5.997  0.00  0.00    -0.049 Br
ENDBRANCH   8  10
ENDBRANCH   5   6
ENDBRANCH   1   3
BRANCH   1  17
ATOM     17  N   UNL d   1      26.258 -17.037  -0.103  0.00  0.00    -0.262 N 
ATOM     18  C   UNL d   1      24.988 -16.750  -0.620  0.00  0.00     0.328 C 
ATOM     19  O   UNL d   1      24.680 -15.771  -1.298  0.00  0.00    -0.261 OA
ATOM     20  H   UNL d   1      26.384 -17.884   0.444  0.00  0.00     0.190 HD
BRANCH  18  21
ATOM     21  C   UNL d   1      23.915 -17.834  -0.254  0.00  0.00     0.315 C 
ATOM     22  O   UNL d   1      24.330 -18.898   0.201  0.00  0.00    -0.262 OA
ATOM     23  N   UNL d   1      22.572 -17.533  -0.531  0.00  0.00    -0.319 N 
ATOM     24  H   UNL d   1      22.389 -16.705  -1.094  0.00  0.00     0.169 HD
BRANCH  23  25
ATOM     25  C   UNL d   1      21.494 -18.429  -0.257  0.00  0.00     0.036 A 
ATOM     26  C   UNL d   1      20.616 -18.827  -1.270  0.00  0.00     0.030 A 
ATOM     27  C   UNL d   1      19.545 -19.699  -1.015  0.00  0.00     0.011 A 
ATOM     28  C   UNL d   1      19.297 -20.184   0.274  0.00  0.00    -0.040 A 
ATOM     29  C   UNL d   1      18.116 -21.091   0.515  0.00  0.00     0.050 C 
ATOM     30  C   UNL d   1      20.177 -19.791   1.294  0.00  0.00     0.042 A 
ATOM     31 CL   UNL d   1      19.909 -20.301   2.928  0.00  0.00    -0.084 Cl
ATOM     32  C   UNL d   1      21.285 -18.952   1.027  0.00  0.00     0.053 A 
ENDBRANCH  23  25
ENDBRANCH  18  21
ENDBRANCH   1  17
TORSDOF 6
ENDMDL
