MODEL 1
REMARK VINA RESULT:   -10.249      0.000      0.000
REMARK INTER + INTRA:         -13.608
REMARK INTER:                 -12.039
REMARK INTRA:                  -1.569
REMARK CONF_INDEPENDENT:        1.790
REMARK UNBOUND:                -1.569
REMARK  6 active torsions:
REMARK  status: ('A' for Active; 'I' for Inactive)
REMARK    1  A    between atoms: C_2  and  C_3 
REMARK    2  A    between atoms: C_2  and  N_17 
REMARK    3  A    between atoms: C_3  and  C_4 
REMARK       I    between atoms: C_4  and  N_6 
REMARK    4  A    between atoms: N_6  and  N_7 
REMARK       I    between atoms: N_7  and  C_8 
REMARK    5  A    between atoms: C_8  and  C_10 
REMARK       I    between atoms: N_17  and  C_18 
REMARK    6  A    between atoms: C_18  and  C_20 
ROOT
ATOM      1  C   UNL d   1      25.925 -17.206  -1.124  0.00  0.00     0.237 C 
ATOM      2  O   UNL d   1      27.138 -17.290  -0.931  0.00  0.00    -0.272 OA
ATOM      3  N   UNL d   1      25.428 -16.517  -2.215  0.00  0.00    -0.267 N 
ATOM      4  H   UNL d   1      24.440 -16.322  -2.375  0.00  0.00     0.190 HD
ENDROOT
BRANCH   1   5
ATOM      5  C   UNL d   1      24.879 -17.854  -0.222  0.00  0.00     0.129 C 
BRANCH   5   6
ATOM      6  C   UNL d   1      23.444 -17.736  -0.780  0.00  0.00     0.089 C 
ATOM      7  C   UNL d   1      22.873 -16.327  -0.551  0.00  0.00     0.032 C 
BRANCH   6   8
ATOM      8  N   UNL d   1      22.547 -18.720  -0.152  0.00  0.00    -0.356 N 
ATOM      9  C   UNL d   1      21.191 -18.778  -0.409  0.00  0.00     0.222 C 
ATOM     10  O   UNL d   1      20.640 -18.057  -1.238  0.00  0.00    -0.273 OA
ATOM     11  H   UNL d   1      22.926 -19.289   0.595  0.00  0.00     0.162 HD
BRANCH   9  12
ATOM     12  C   UNL d   1      20.405 -19.844   0.357  0.00  0.00     0.078 C 
ATOM     13  C   UNL d   1      20.281 -19.475   1.841  0.00  0.00     0.014 C 
ATOM     14  C   UNL d   1      19.394 -20.450   2.614  0.00  0.00     0.001 C 
ATOM     15  C   UNL d   1      18.030 -20.608   1.951  0.00  0.00     0.000 C 
ATOM     16  C   UNL d   1      18.180 -21.067   0.505  0.00  0.00     0.001 C 
ATOM     17  C   UNL d   1      19.039 -20.095  -0.292  0.00  0.00     0.014 C 
ENDBRANCH   9  12
ENDBRANCH   6   8
ENDBRANCH   5   6
ENDBRANCH   1   5
BRANCH   3  18
ATOM     18  N   UNL d   1      26.358 -15.948  -3.128  0.00  0.00    -0.263 N 
ATOM     19  C   UNL d   1      25.940 -14.942  -3.981  0.00  0.00     0.270 C 
ATOM     20  O   UNL d   1      24.780 -14.523  -3.989  0.00  0.00    -0.266 OA
ATOM     21  H   UNL d   1      27.328 -16.234  -3.007  0.00  0.00     0.190 HD
BRANCH  19  22
ATOM     22  C   UNL d   1      26.943 -14.343  -4.920  0.00  0.00     0.033 A 
ATOM     23  C   UNL d   1      28.031 -15.066  -5.429  0.00  0.00     0.019 A 
ATOM     24  C   UNL d   1      28.868 -14.491  -6.403  0.00  0.00     0.025 A 
ATOM     25  C   UNL d   1      28.629 -13.193  -6.862  0.00  0.00     0.034 A 
ATOM     26 CL   UNL d   1      29.653 -12.499  -8.059  0.00  0.00    -0.084 Cl
ATOM     27  C   UNL d   1      27.556 -12.464  -6.358  0.00  0.00     0.025 A 
ATOM     28  C   UNL d   1      26.716 -13.039  -5.395  0.00  0.00     0.019 A 
ENDBRANCH  19  22
ENDBRANCH   3  18
TORSDOF 6
ENDMDL
MODEL 2
REMARK VINA RESULT:    -8.948      5.688      9.544
REMARK INTER + INTRA:         -12.397
REMARK INTER:                 -10.738
REMARK INTRA:                  -1.659
REMARK CONF_INDEPENDENT:        1.790
REMARK UNBOUND:                -1.659
REMARK  6 active torsions:
REMARK  status: ('A' for Active; 'I' for Inactive)
REMARK    1  A    between atoms: C_2  and  C_3 
REMARK    2  A    between atoms: C_2  and  N_17 
REMARK    3  A    between atoms: C_3  and  C_4 
REMARK       I    between atoms: C_4  and  N_6 
REMARK    4  A    between atoms: N_6  and  N_7 
REMARK       I    between atoms: N_7  and  C_8 
REMARK    5  A    between atoms: C_8  and  C_10 
REMARK       I    between atoms: N_17  and  C_18 
REMARK    6  A    between atoms: C_18  and  C_20 
ROOT
ATOM      1  C   UNL d   1      26.643 -17.773   0.326  0.00  0.00     0.237 C 
ATOM      2  O   UNL d   1      26.760 -18.957   0.646  0.00  0.00    -0.272 OA
ATOM      3  N   UNL d   1      25.397 -17.227   0.079  0.00  0.00    -0.267 N 
ATOM      4  H   UNL d   1      25.240 -16.289  -0.289  0.00  0.00     0.190 HD
ENDROOT
BRANCH   1   5
ATOM      5  C   UNL d   1      27.822 -16.814   0.197  0.00  0.00     0.129 C 
BRANCH   5   6
ATOM      6  C   UNL d   1      27.466 -15.364   0.596  0.00  0.00     0.089 C 
ATOM      7  C   UNL d   1      27.895 -14.368  -0.494  0.00  0.00     0.032 C 
BRANCH   6   8
ATOM      8  N   UNL d   1      28.110 -14.988   1.864  0.00  0.00    -0.356 N 
ATOM      9  C   UNL d   1      27.628 -13.992   2.690  0.00  0.00     0.222 C 
ATOM     10  O   UNL d   1      26.581 -13.390   2.465  0.00  0.00    -0.273 OA
ATOM     11  H   UNL d   1      29.016 -15.393   2.067  0.00  0.00     0.162 HD
BRANCH   9  12
ATOM     12  C   UNL d   1      28.443 -13.711   3.955  0.00  0.00     0.078 C 
ATOM     13  C   UNL d   1      28.253 -12.261   4.420  0.00  0.00     0.014 C 
ATOM     14  C   UNL d   1      28.949 -11.979   5.751  0.00  0.00     0.001 C 
ATOM     15  C   UNL d   1      28.531 -12.980   6.822  0.00  0.00     0.000 C 
ATOM     16  C   UNL d   1      28.818 -14.408   6.372  0.00  0.00     0.001 C 
ATOM     17  C   UNL d   1      28.112 -14.721   5.060  0.00  0.00     0.014 C 
ENDBRANCH   9  12
ENDBRANCH   6   8
ENDBRANCH   5   6
ENDBRANCH   1   5
BRANCH   3  18
ATOM     18  N   UNL d   1      24.256 -18.058   0.248  0.00  0.00    -0.263 N 
ATOM     19  C   UNL d   1      23.044 -17.661  -0.287  0.00  0.00     0.270 C 
ATOM     20  O   UNL d   1      22.910 -16.599  -0.902  0.00  0.00    -0.266 OA
ATOM     21  H   UNL d   1      24.433 -18.976   0.653  0.00  0.00     0.190 HD
BRANCH  19  22
ATOM     22  C   UNL d   1      21.860 -18.563  -0.114  0.00  0.00     0.033 A 
ATOM     23  C   UNL d   1      21.377 -18.947   1.145  0.00  0.00     0.019 A 
ATOM     24  C   UNL d   1      20.187 -19.691   1.248  0.00  0.00     0.025 A 
ATOM     25  C   UNL d   1      19.486 -20.064   0.099  0.00  0.00     0.034 A 
ATOM     26 CL   UNL d   1      18.027 -20.970   0.234  0.00  0.00    -0.084 Cl
ATOM     27  C   UNL d   1      19.960 -19.695  -1.156  0.00  0.00     0.025 A 
ATOM     28  C   UNL d   1      21.139 -18.944  -1.260  0.00  0.00     0.019 A 
ENDBRANCH  19  22
ENDBRANCH   3  18
TORSDOF 6
ENDMDL
MODEL 3
REMARK VINA RESULT:    -8.034      3.768      9.691
REMARK INTER + INTRA:         -12.035
REMARK INTER:                  -9.824
REMARK INTRA:                  -2.211
REMARK CONF_INDEPENDENT:        1.790
REMARK UNBOUND:                -2.211
REMARK  6 active torsions:
REMARK  status: ('A' for Active; 'I' for Inactive)
REMARK    1  A    between atoms: C_2  and  C_3 
REMARK    2  A    between atoms: C_2  and  N_17 
REMARK    3  A    between atoms: C_3  and  C_4 
REMARK       I    between atoms: C_4  and  N_6 
REMARK    4  A    between atoms: N_6  and  N_7 
REMARK       I    between atoms: N_7  and  C_8 
REMARK    5  A    between atoms: C_8  and  C_10 
REMARK       I    between atoms: N_17  and  C_18 
REMARK    6  A    between atoms: C_18  and  C_20 
ROOT
ATOM      1  C   UNL d   1      25.839 -17.461  -0.050  0.00  0.00     0.237 C 
ATOM      2  O   UNL d   1      26.071 -18.444   0.655  0.00  0.00    -0.272 OA
ATOM      3  N   UNL d   1      24.581 -17.256  -0.588  0.00  0.00    -0.267 N 
ATOM      4  H   UNL d   1      24.352 -16.525  -1.260  0.00  0.00     0.190 HD
ENDROOT
BRANCH   1   5
ATOM      5  C   UNL d   1      26.877 -16.390  -0.372  0.00  0.00     0.129 C 
BRANCH   5   6
ATOM      6  C   UNL d   1      27.712 -16.718  -1.630  0.00  0.00     0.089 C 
ATOM      7  C   UNL d   1      29.195 -16.911  -1.277  0.00  0.00     0.032 C 
BRANCH   6   8
ATOM      8  N   UNL d   1      27.597 -15.651  -2.637  0.00  0.00    -0.356 N 
ATOM      9  C   UNL d   1      26.459 -15.441  -3.390  0.00  0.00     0.222 C 
ATOM     10  O   UNL d   1      25.425 -16.085  -3.226  0.00  0.00    -0.273 OA
ATOM     11  H   UNL d   1      28.438 -15.138  -2.872  0.00  0.00     0.162 HD
BRANCH   9  12
ATOM     12  C   UNL d   1      26.527 -14.307  -4.415  0.00  0.00     0.078 C 
ATOM     13  C   UNL d   1      26.736 -12.953  -3.723  0.00  0.00     0.014 C 
ATOM     14  C   UNL d   1      26.937 -11.813  -4.719  0.00  0.00     0.001 C 
ATOM     15  C   UNL d   1      28.056 -12.125  -5.707  0.00  0.00     0.000 C 
ATOM     16  C   UNL d   1      27.776 -13.427  -6.448  0.00  0.00     0.001 C 
ATOM     17  C   UNL d   1      27.599 -14.585  -5.475  0.00  0.00     0.014 C 
ENDBRANCH   9  12
ENDBRANCH   6   8
ENDBRANCH   5   6
ENDBRANCH   1   5
BRANCH   3  18
ATOM     18  N   UNL d   1      23.556 -18.187  -0.267  0.00  0.00    -0.263 N 
ATOM     19  C   UNL d   1      22.233 -17.830  -0.458  0.00  0.00     0.270 C 
ATOM     20  O   UNL d   1      21.905 -16.722  -0.889  0.00  0.00    -0.266 OA
ATOM     21  H   UNL d   1      23.871 -19.128  -0.031  0.00  0.00     0.190 HD
BRANCH  19  22
ATOM     22  C   UNL d   1      21.171 -18.836  -0.133  0.00  0.00     0.033 A 
ATOM     23  C   UNL d   1      20.961 -19.325   1.165  0.00  0.00     0.019 A 
ATOM     24  C   UNL d   1      19.869 -20.171   1.433  0.00  0.00     0.025 A 
ATOM     25  C   UNL d   1      18.994 -20.540   0.409  0.00  0.00     0.034 A 
ATOM     26 CL   UNL d   1      17.656 -21.570   0.746  0.00  0.00    -0.084 Cl
ATOM     27  C   UNL d   1      19.197 -20.067  -0.884  0.00  0.00     0.025 A 
ATOM     28  C   UNL d   1      20.278 -19.216  -1.151  0.00  0.00     0.019 A 
ENDBRANCH  19  22
ENDBRANCH   3  18
TORSDOF 6
ENDMDL
MODEL 4
REMARK VINA RESULT:    -7.988      4.148      6.535
REMARK INTER + INTRA:         -11.373
REMARK INTER:                  -9.778
REMARK INTRA:                  -1.595
REMARK CONF_INDEPENDENT:        1.790
REMARK UNBOUND:                -1.595
REMARK  6 active torsions:
REMARK  status: ('A' for Active; 'I' for Inactive)
REMARK    1  A    between atoms: C_2  and  C_3 
REMARK    2  A    between atoms: C_2  and  N_17 
REMARK    3  A    between atoms: C_3  and  C_4 
REMARK       I    between atoms: C_4  and  N_6 
REMARK    4  A    between atoms: N_6  and  N_7 
REMARK       I    between atoms: N_7  and  C_8 
REMARK    5  A    between atoms: C_8  and  C_10 
REMARK       I    between atoms: N_17  and  C_18 
REMARK    6  A    between atoms: C_18  and  C_20 
ROOT
ATOM      1  C   UNL d   1      27.695 -14.462  -5.802  0.00  0.00     0.237 C 
ATOM      2  O   UNL d   1      27.081 -15.529  -5.764  0.00  0.00    -0.272 OA
ATOM      3  N   UNL d   1      29.007 -14.416  -6.238  0.00  0.00    -0.267 N 
ATOM      4  H   UNL d   1      29.601 -13.589  -6.194  0.00  0.00     0.190 HD
ENDROOT
BRANCH   1   5
ATOM      5  C   UNL d   1      27.084 -13.122  -5.406  0.00  0.00     0.129 C 
BRANCH   5   6
ATOM      6  C   UNL d   1      25.923 -13.263  -4.396  0.00  0.00     0.089 C 
ATOM      7  C   UNL d   1      25.931 -12.113  -3.376  0.00  0.00     0.032 C 
BRANCH   6   8
ATOM      8  N   UNL d   1      26.000 -14.542  -3.672  0.00  0.00    -0.356 N 
ATOM      9  C   UNL d   1      24.978 -15.023  -2.878  0.00  0.00     0.222 C 
ATOM     10  O   UNL d   1      23.895 -14.453  -2.770  0.00  0.00    -0.273 OA
ATOM     11  H   UNL d   1      26.893 -15.018  -3.659  0.00  0.00     0.162 HD
BRANCH   9  12
ATOM     12  C   UNL d   1      25.242 -16.355  -2.173  0.00  0.00     0.078 C 
ATOM     13  C   UNL d   1      26.529 -16.291  -1.340  0.00  0.00     0.014 C 
ATOM     14  C   UNL d   1      26.759 -17.559  -0.520  0.00  0.00     0.001 C 
ATOM     15  C   UNL d   1      25.543 -17.898   0.336  0.00  0.00     0.000 C 
ATOM     16  C   UNL d   1      24.297 -18.050  -0.529  0.00  0.00     0.001 C 
ATOM     17  C   UNL d   1      24.033 -16.785  -1.335  0.00  0.00     0.014 C 
ENDBRANCH   9  12
ENDBRANCH   6   8
ENDBRANCH   5   6
ENDBRANCH   1   5
BRANCH   3  18
ATOM     18  N   UNL d   1      29.608 -15.625  -6.682  0.00  0.00    -0.263 N 
ATOM     19  C   UNL d   1      29.890 -16.619  -5.763  0.00  0.00     0.270 C 
ATOM     20  O   UNL d   1      29.648 -16.493  -4.560  0.00  0.00    -0.266 OA
ATOM     21  H   UNL d   1      29.680 -15.737  -7.693  0.00  0.00     0.190 HD
BRANCH  19  22
ATOM     22  C   UNL d   1      30.505 -17.893  -6.258  0.00  0.00     0.033 A 
ATOM     23  C   UNL d   1      30.403 -19.105  -5.561  0.00  0.00     0.019 A 
ATOM     24  C   UNL d   1      30.890 -20.294  -6.135  0.00  0.00     0.025 A 
ATOM     25  C   UNL d   1      31.490 -20.274  -7.396  0.00  0.00     0.034 A 
ATOM     26 CL   UNL d   1      32.078 -21.734  -8.095  0.00  0.00    -0.084 Cl
ATOM     27  C   UNL d   1      31.603 -19.075  -8.094  0.00  0.00     0.025 A 
ATOM     28  C   UNL d   1      31.109 -17.892  -7.528  0.00  0.00     0.019 A 
ENDBRANCH  19  22
ENDBRANCH   3  18
TORSDOF 6
ENDMDL
MODEL 5
REMARK VINA RESULT:    -7.617      4.442      9.924
REMARK INTER + INTRA:         -11.680
REMARK INTER:                  -9.407
REMARK INTRA:                  -2.274
REMARK CONF_INDEPENDENT:        1.790
REMARK UNBOUND:                -2.274
REMARK  6 active torsions:
REMARK  status: ('A' for Active; 'I' for Inactive)
REMARK    1  A    between atoms: C_2  and  C_3 
REMARK    2  A    between atoms: C_2  and  N_17 
REMARK    3  A    between atoms: C_3  and  C_4 
REMARK       I    between atoms: C_4  and  N_6 
REMARK    4  A    between atoms: N_6  and  N_7 
REMARK       I    between atoms: N_7  and  C_8 
REMARK    5  A    between atoms: C_8  and  C_10 
REMARK       I    between atoms: N_17  and  C_18 
REMARK    6  A    between atoms: C_18  and  C_20 
ROOT
ATOM      1  C   UNL d   1      27.550 -15.004  -4.285  0.00  0.00     0.237 C 
ATOM      2  O   UNL d   1      26.876 -15.580  -5.140  0.00  0.00    -0.272 OA
ATOM      3  N   UNL d   1      27.225 -15.099  -2.945  0.00  0.00    -0.267 N 
ATOM      4  H   UNL d   1      27.676 -14.566  -2.201  0.00  0.00     0.190 HD
ENDROOT
BRANCH   1   5
ATOM      5  C   UNL d   1      28.787 -14.171  -4.607  0.00  0.00     0.129 C 
BRANCH   5   6
ATOM      6  C   UNL d   1      29.519 -14.645  -5.883  0.00  0.00     0.089 C 
ATOM      7  C   UNL d   1      28.843 -14.092  -7.148  0.00  0.00     0.032 C 
BRANCH   6   8
ATOM      8  N   UNL d   1      29.550 -16.114  -5.963  0.00  0.00    -0.356 N 
ATOM      9  C   UNL d   1      30.550 -16.814  -6.608  0.00  0.00     0.222 C 
ATOM     10  O   UNL d   1      31.532 -16.266  -7.104  0.00  0.00    -0.273 OA
ATOM     11  H   UNL d   1      28.733 -16.617  -5.641  0.00  0.00     0.162 HD
BRANCH   9  12
ATOM     12  C   UNL d   1      30.406 -18.338  -6.622  0.00  0.00     0.078 C 
ATOM     13  C   UNL d   1      31.299 -18.964  -7.701  0.00  0.00     0.014 C 
ATOM     14  C   UNL d   1      31.279 -20.492  -7.660  0.00  0.00     0.001 C 
ATOM     15  C   UNL d   1      31.613 -21.018  -6.269  0.00  0.00     0.000 C 
ATOM     16  C   UNL d   1      30.651 -20.452  -5.230  0.00  0.00     0.001 C 
ATOM     17  C   UNL d   1      30.674 -18.929  -5.234  0.00  0.00     0.014 C 
ENDBRANCH   9  12
ENDBRANCH   6   8
ENDBRANCH   5   6
ENDBRANCH   1   5
BRANCH   3  18
ATOM     18  N   UNL d   1      26.121 -15.916  -2.579  0.00  0.00    -0.263 N 
ATOM     19  C   UNL d   1      25.718 -15.959  -1.257  0.00  0.00     0.270 C 
ATOM     20  O   UNL d   1      26.291 -15.318  -0.372  0.00  0.00    -0.266 OA
ATOM     21  H   UNL d   1      25.603 -16.331  -3.353  0.00  0.00     0.190 HD
BRANCH  19  22
ATOM     22  C   UNL d   1      24.538 -16.810  -0.899  0.00  0.00     0.033 A 
ATOM     23  C   UNL d   1      23.232 -16.304  -0.826  0.00  0.00     0.019 A 
ATOM     24  C   UNL d   1      22.148 -17.174  -0.610  0.00  0.00     0.025 A 
ATOM     25  C   UNL d   1      22.364 -18.546  -0.455  0.00  0.00     0.034 A 
ATOM     26 CL   UNL d   1      21.031 -19.606  -0.198  0.00  0.00    -0.084 Cl
ATOM     27  C   UNL d   1      23.656 -19.058  -0.519  0.00  0.00     0.025 A 
ATOM     28  C   UNL d   1      24.736 -18.193  -0.744  0.00  0.00     0.019 A 
ENDBRANCH  19  22
ENDBRANCH   3  18
TORSDOF 6
ENDMDL
MODEL 6
REMARK VINA RESULT:    -7.296      5.569      8.858
REMARK INTER + INTRA:         -11.637
REMARK INTER:                  -9.085
REMARK INTRA:                  -2.551
REMARK CONF_INDEPENDENT:        1.790
REMARK UNBOUND:                -2.551
REMARK  6 active torsions:
REMARK  status: ('A' for Active; 'I' for Inactive)
REMARK    1  A    between atoms: C_2  and  C_3 
REMARK    2  A    between atoms: C_2  and  N_17 
REMARK    3  A    between atoms: C_3  and  C_4 
REMARK       I    between atoms: C_4  and  N_6 
REMARK    4  A    between atoms: N_6  and  N_7 
REMARK       I    between atoms: N_7  and  C_8 
REMARK    5  A    between atoms: C_8  and  C_10 
REMARK       I    between atoms: N_17  and  C_18 
REMARK    6  A    between atoms: C_18  and  C_20 
ROOT
ATOM      1  C   UNL d   1      29.381 -16.990  -0.412  0.00  0.00     0.237 C 
ATOM      2  O   UNL d   1      29.385 -18.081  -0.983  0.00  0.00    -0.272 OA
ATOM      3  N   UNL d   1      28.193 -16.402  -0.016  0.00  0.00    -0.267 N 
ATOM      4  H   UNL d   1      28.113 -15.460   0.364  0.00  0.00     0.190 HD
ENDROOT
BRANCH   1   5
ATOM      5  C   UNL d   1      30.648 -16.211  -0.073  0.00  0.00     0.129 C 
BRANCH   5   6
ATOM      6  C   UNL d   1      30.358 -14.788   0.456  0.00  0.00     0.089 C 
ATOM      7  C   UNL d   1      31.612 -13.902   0.381  0.00  0.00     0.032 C 
BRANCH   6   8
ATOM      8  N   UNL d   1      29.883 -14.824   1.848  0.00  0.00    -0.356 N 
ATOM      9  C   UNL d   1      28.729 -14.194   2.270  0.00  0.00     0.222 C 
ATOM     10  O   UNL d   1      27.969 -13.613   1.498  0.00  0.00    -0.273 OA
ATOM     11  H   UNL d   1      30.504 -15.220   2.543  0.00  0.00     0.162 HD
BRANCH   9  12
ATOM     12  C   UNL d   1      28.404 -14.309   3.761  0.00  0.00     0.078 C 
ATOM     13  C   UNL d   1      29.672 -14.582   4.580  0.00  0.00     0.014 C 
ATOM     14  C   UNL d   1      29.408 -14.576   6.085  0.00  0.00     0.001 C 
ATOM     15  C   UNL d   1      28.712 -13.292   6.524  0.00  0.00     0.000 C 
ATOM     16  C   UNL d   1      27.408 -13.094   5.761  0.00  0.00     0.001 C 
ATOM     17  C   UNL d   1      27.651 -13.070   4.257  0.00  0.00     0.014 C 
ENDBRANCH   9  12
ENDBRANCH   6   8
ENDBRANCH   5   6
ENDBRANCH   1   5
BRANCH   3  18
ATOM     18  N   UNL d   1      26.984 -17.113  -0.248  0.00  0.00    -0.263 N 
ATOM     19  C   UNL d   1      25.781 -16.432  -0.218  0.00  0.00     0.270 C 
ATOM     20  O   UNL d   1      25.714 -15.222   0.014  0.00  0.00    -0.266 OA
ATOM     21  H   UNL d   1      27.091 -18.080  -0.553  0.00  0.00     0.190 HD
BRANCH  19  22
ATOM     22  C   UNL d   1      24.522 -17.199  -0.486  0.00  0.00     0.033 A 
ATOM     23  C   UNL d   1      24.447 -18.595  -0.377  0.00  0.00     0.019 A 
ATOM     24  C   UNL d   1      23.208 -19.249  -0.516  0.00  0.00     0.025 A 
ATOM     25  C   UNL d   1      22.048 -18.515  -0.776  0.00  0.00     0.034 A 
ATOM     26 CL   UNL d   1      20.536 -19.322  -0.939  0.00  0.00    -0.084 Cl
ATOM     27  C   UNL d   1      22.112 -17.130  -0.893  0.00  0.00     0.025 A 
ATOM     28  C   UNL d   1      23.343 -16.476  -0.744  0.00  0.00     0.019 A 
ENDBRANCH  19  22
ENDBRANCH   3  18
TORSDOF 6
ENDMDL
