MODEL 1
REMARK VINA RESULT:    -9.173      0.000      0.000
REMARK INTER + INTRA:         -11.978
REMARK INTER:                 -10.665
REMARK INTRA:                  -1.314
REMARK CONF_INDEPENDENT:        1.492
REMARK UNBOUND:                -1.314
REMARK  5 active torsions:
REMARK  status: ('A' for Active; 'I' for Inactive)
REMARK    1  A    between atoms: O_2  and  C_3 
REMARK    2  A    between atoms: C_3  and  C_5 
REMARK    3  A    between atoms: C_13  and  N_14 
REMARK       I    between atoms: N_14  and  C_15 
REMARK       I    between atoms: C_15  and  N_17 
REMARK    4  A    between atoms: N_17  and  C_18 
REMARK    5  A    between atoms: C_22  and  C_21 
ROOT
ATOM      1  N   UNL d   1      30.600 -13.563   6.089  0.00  0.00    -0.325 N 
ATOM      2  C   UNL d   1      29.851 -13.440   4.910  0.00  0.00     0.321 C 
ATOM      3  O   UNL d   1      29.197 -12.448   4.612  0.00  0.00    -0.247 OA
ATOM      4  N   UNL d   1      29.872 -14.523   4.020  0.00  0.00    -0.309 N 
ATOM      5  H   UNL d   1      31.016 -14.448   6.336  0.00  0.00     0.165 HD
ATOM      6  H   UNL d   1      30.127 -15.427   4.398  0.00  0.00     0.170 HD
ENDROOT
BRANCH   4   7
ATOM      7  C   UNL d   1      29.173 -14.450   2.724  0.00  0.00     0.036 C 
ATOM      8  C   UNL d   1      29.803 -14.564   1.493  0.00  0.00     0.030 C 
ATOM      9  C   UNL d   1      29.055 -14.435   0.231  0.00  0.00     0.011 C 
ATOM     10  C   UNL d   1      27.594 -14.376   0.078  0.00  0.00    -0.036 C 
ATOM     11  C   UNL d   1      27.029 -14.133   1.343  0.00  0.00     0.011 C 
ATOM     12  C   UNL d   1      27.795 -14.180   2.608  0.00  0.00     0.030 C 
BRANCH  10  13
ATOM     13  C   UNL d   1      26.731 -14.327  -1.444  0.00  0.00     0.117 C 
ATOM     14  C   UNL d   1      25.176 -14.840  -2.155  0.00  0.00     0.011 C 
ATOM     15  C   UNL d   1      24.862 -16.136  -1.935  0.00  0.00    -0.015 C 
ATOM     16  C   UNL d   1      24.030 -17.341  -2.020  0.00  0.00     0.036 C 
ATOM     17  C   UNL d   1      26.177 -16.399  -1.417  0.00  0.00     0.019 C 
ATOM     18  C   UNL d   1      24.084 -18.096  -0.885  0.00  0.00     0.035 C 
ATOM     19 CL   UNL d   1      22.952 -19.325  -0.468  0.00  0.00    -0.084 Cl
ATOM     20  C   UNL d   1      25.013 -17.757   0.173  0.00  0.00     0.026 C 
ATOM     21  C   UNL d   1      26.019 -16.894  -0.054  0.00  0.00     0.026 C 
ATOM     22  N   UNL d   1      27.139 -15.660  -1.921  0.00  0.00    -0.280 NA
ATOM     23  H   UNL d   1      27.157 -15.451  -2.927  0.00  0.00     0.128 HD
ENDBRANCH  10  13
ENDBRANCH   4   7
BRANCH   1  24
ATOM     24  C   UNL d   1      30.558 -12.635   7.255  0.00  0.00     0.189 C 
ATOM     25  S   UNL d   1      31.558 -13.128   8.618  0.00  0.00    -0.129 SA
ATOM     26  C   UNL d   1      30.180 -14.034   9.456  0.00  0.00     0.079 C 
ATOM     27  C   UNL d   1      30.055 -14.803  10.795  0.00  0.00     0.020 C 
ATOM     28  C   UNL d   1      29.027 -13.062   9.128  0.00  0.00    -0.051 C 
ATOM     29  C   UNL d   1      28.751 -14.770  11.541  0.00  0.00     0.002 C 
ATOM     30  C   UNL d   1      28.134 -13.383  11.487  0.00  0.00     0.004 C 
ATOM     31  C   UNL d   1      27.791 -13.017  10.035  0.00  0.00     0.036 C 
ATOM     32  C   UNL d   1      29.197 -12.438   7.921  0.00  0.00     0.053 C 
BRANCH  32  33
ATOM     33  C   UNL d   1      28.300 -11.510   7.173  0.00  0.00     0.292 C 
ATOM     34  O   UNL d   1      27.405 -11.946   6.464  0.00  0.00    -0.260 OA
BRANCH  33  35
ATOM     35  O   UNL d   1      28.621 -10.195   7.303  0.00  0.00    -0.323 OA
ATOM     36  C   UNL d   1      28.924  -9.519   6.063  0.00  0.00     0.213 C 
ENDBRANCH  33  35
ENDBRANCH  32  33
ENDBRANCH   1  24
TORSDOF 5
ENDMDL
MODEL 2
REMARK VINA RESULT:    -9.157      4.466     10.374
REMARK INTER + INTRA:         -11.968
REMARK INTER:                 -10.649
REMARK INTRA:                  -1.320
REMARK CONF_INDEPENDENT:        1.492
REMARK UNBOUND:                -1.320
REMARK  5 active torsions:
REMARK  status: ('A' for Active; 'I' for Inactive)
REMARK    1  A    between atoms: O_2  and  C_3 
REMARK    2  A    between atoms: C_3  and  C_5 
REMARK    3  A    between atoms: C_13  and  N_14 
REMARK       I    between atoms: N_14  and  C_15 
REMARK       I    between atoms: C_15  and  N_17 
REMARK    4  A    between atoms: N_17  and  C_18 
REMARK    5  A    between atoms: C_22  and  C_21 
ROOT
ATOM      1  N   UNL d   1      27.100 -14.603  -0.383  0.00  0.00    -0.325 N 
ATOM      2  C   UNL d   1      27.415 -14.822   0.967  0.00  0.00     0.321 C 
ATOM      3  O   UNL d   1      27.553 -15.931   1.468  0.00  0.00    -0.247 OA
ATOM      4  N   UNL d   1      27.592 -13.691   1.776  0.00  0.00    -0.309 N 
ATOM      5  H   UNL d   1      26.878 -13.674  -0.708  0.00  0.00     0.165 HD
ATOM      6  H   UNL d   1      27.171 -12.825   1.460  0.00  0.00     0.170 HD
ENDROOT
BRANCH   4   7
ATOM      7  C   UNL d   1      27.995 -13.828   3.187  0.00  0.00     0.036 C 
ATOM      8  C   UNL d   1      29.232 -14.301   3.600  0.00  0.00     0.030 C 
ATOM      9  C   UNL d   1      29.559 -14.459   5.027  0.00  0.00     0.011 C 
ATOM     10  C   UNL d   1      28.764 -13.982   6.168  0.00  0.00    -0.036 C 
ATOM     11  C   UNL d   1      27.484 -13.639   5.698  0.00  0.00     0.011 C 
ATOM     12  C   UNL d   1      27.128 -13.559   4.264  0.00  0.00     0.030 C 
BRANCH  10  13
ATOM     13  C   UNL d   1      29.230 -14.094   7.851  0.00  0.00     0.117 C 
ATOM     14  C   UNL d   1      29.191 -13.128   9.352  0.00  0.00     0.011 C 
ATOM     15  C   UNL d   1      29.685 -11.877   9.223  0.00  0.00    -0.015 C 
ATOM     16  C   UNL d   1      30.048 -10.530   9.680  0.00  0.00     0.036 C 
ATOM     17  C   UNL d   1      30.193 -12.178   7.912  0.00  0.00     0.019 C 
ATOM     18  C   UNL d   1      29.838  -9.579   8.725  0.00  0.00     0.035 C 
ATOM     19 CL   UNL d   1      29.757  -7.885   9.028  0.00  0.00    -0.084 Cl
ATOM     20  C   UNL d   1      29.454  -9.964   7.384  0.00  0.00     0.026 C 
ATOM     21  C   UNL d   1      29.578 -11.240   6.979  0.00  0.00     0.026 C 
ATOM     22  N   UNL d   1      30.538 -13.430   7.717  0.00  0.00    -0.280 NA
ATOM     23  H   UNL d   1      31.036 -13.949   8.451  0.00  0.00     0.128 HD
ENDBRANCH  10  13
ENDBRANCH   4   7
BRANCH   1  24
ATOM     24  C   UNL d   1      26.673 -15.642  -1.362  0.00  0.00     0.189 C 
ATOM     25  S   UNL d   1      25.168 -15.278  -2.203  0.00  0.00    -0.129 SA
ATOM     26  C   UNL d   1      24.124 -16.190  -0.978  0.00  0.00     0.079 C 
ATOM     27  C   UNL d   1      22.607 -16.489  -0.869  0.00  0.00     0.020 C 
ATOM     28  C   UNL d   1      25.066 -17.381  -0.706  0.00  0.00    -0.051 C 
ATOM     29  C   UNL d   1      22.158 -17.791  -0.267  0.00  0.00     0.002 C 
ATOM     30  C   UNL d   1      23.051 -18.932  -0.723  0.00  0.00     0.004 C 
ATOM     31  C   UNL d   1      24.484 -18.712  -0.215  0.00  0.00     0.036 C 
ATOM     32  C   UNL d   1      26.387 -17.034  -0.800  0.00  0.00     0.053 C 
BRANCH  32  33
ATOM     33  C   UNL d   1      27.621 -17.826  -0.526  0.00  0.00     0.292 C 
ATOM     34  O   UNL d   1      27.597 -18.764   0.258  0.00  0.00    -0.260 OA
BRANCH  33  35
ATOM     35  O   UNL d   1      28.734 -17.364  -1.154  0.00  0.00    -0.323 OA
ATOM     36  C   UNL d   1      29.847 -17.070  -0.282  0.00  0.00     0.213 C 
ENDBRANCH  33  35
ENDBRANCH  32  33
ENDBRANCH   1  24
TORSDOF 5
ENDMDL
MODEL 3
REMARK VINA RESULT:    -8.830      4.396     10.419
REMARK INTER + INTRA:         -11.730
REMARK INTER:                 -10.321
REMARK INTRA:                  -1.409
REMARK CONF_INDEPENDENT:        1.492
REMARK UNBOUND:                -1.409
REMARK  5 active torsions:
REMARK  status: ('A' for Active; 'I' for Inactive)
REMARK    1  A    between atoms: O_2  and  C_3 
REMARK    2  A    between atoms: C_3  and  C_5 
REMARK    3  A    between atoms: C_13  and  N_14 
REMARK       I    between atoms: N_14  and  C_15 
REMARK       I    between atoms: C_15  and  N_17 
REMARK    4  A    between atoms: N_17  and  C_18 
REMARK    5  A    between atoms: C_22  and  C_21 
ROOT
ATOM      1  N   UNL d   1      27.732 -16.564  -0.645  0.00  0.00    -0.325 N 
ATOM      2  C   UNL d   1      27.792 -15.429   0.177  0.00  0.00     0.321 C 
ATOM      3  O   UNL d   1      27.196 -14.384  -0.053  0.00  0.00    -0.247 OA
ATOM      4  N   UNL d   1      28.574 -15.517   1.337  0.00  0.00    -0.309 N 
ATOM      5  H   UNL d   1      28.340 -17.350  -0.470  0.00  0.00     0.165 HD
ATOM      6  H   UNL d   1      29.296 -16.227   1.355  0.00  0.00     0.170 HD
ENDROOT
BRANCH   4   7
ATOM      7  C   UNL d   1      28.634 -14.397   2.294  0.00  0.00     0.036 C 
ATOM      8  C   UNL d   1      27.529 -13.665   2.703  0.00  0.00     0.030 C 
ATOM      9  C   UNL d   1      27.660 -12.526   3.627  0.00  0.00     0.011 C 
ATOM     10  C   UNL d   1      28.865 -12.135   4.375  0.00  0.00    -0.036 C 
ATOM     11  C   UNL d   1      29.964 -12.819   3.825  0.00  0.00     0.011 C 
ATOM     12  C   UNL d   1      29.840 -13.910   2.833  0.00  0.00     0.030 C 
BRANCH  10  13
ATOM     13  C   UNL d   1      28.961 -10.838   5.545  0.00  0.00     0.117 C 
ATOM     14  C   UNL d   1      29.554 -10.525   7.199  0.00  0.00     0.011 C 
ATOM     15  C   UNL d   1      29.140 -11.422   8.120  0.00  0.00    -0.015 C 
ATOM     16  C   UNL d   1      29.045 -12.016   9.459  0.00  0.00     0.036 C 
ATOM     17  C   UNL d   1      28.215 -12.002   7.185  0.00  0.00     0.019 C 
ATOM     18  C   UNL d   1      29.005 -13.379   9.426  0.00  0.00     0.035 C 
ATOM     19 CL   UNL d   1      29.305 -14.403  10.778  0.00  0.00    -0.084 Cl
ATOM     20  C   UNL d   1      28.905 -14.075   8.161  0.00  0.00     0.026 C 
ATOM     21  C   UNL d   1      28.563 -13.412   7.042  0.00  0.00     0.026 C 
ATOM     22  N   UNL d   1      27.732 -11.176   6.285  0.00  0.00    -0.280 NA
ATOM     23  H   UNL d   1      27.461 -10.222   6.552  0.00  0.00     0.128 HD
ENDBRANCH  10  13
ENDBRANCH   4   7
BRANCH   1  24
ATOM     24  C   UNL d   1      27.138 -16.627  -2.011  0.00  0.00     0.189 C 
ATOM     25  S   UNL d   1      28.152 -15.950  -3.281  0.00  0.00    -0.129 SA
ATOM     26  C   UNL d   1      27.384 -14.272  -3.166  0.00  0.00     0.079 C 
ATOM     27  C   UNL d   1      27.581 -12.942  -3.937  0.00  0.00     0.020 C 
ATOM     28  C   UNL d   1      25.920 -14.699  -2.925  0.00  0.00    -0.051 C 
ATOM     29  C   UNL d   1      26.398 -12.043  -4.163  0.00  0.00     0.002 C 
ATOM     30  C   UNL d   1      25.160 -12.855  -4.502  0.00  0.00     0.004 C 
ATOM     31  C   UNL d   1      24.780 -13.752  -3.315  0.00  0.00     0.036 C 
ATOM     32  C   UNL d   1      25.828 -15.869  -2.220  0.00  0.00     0.053 C 
BRANCH  32  33
ATOM     33  C   UNL d   1      24.635 -16.589  -1.687  0.00  0.00     0.292 C 
ATOM     34  O   UNL d   1      23.557 -16.022  -1.591  0.00  0.00    -0.260 OA
BRANCH  33  35
ATOM     35  O   UNL d   1      24.888 -17.858  -1.270  0.00  0.00    -0.323 OA
ATOM     36  C   UNL d   1      23.899 -18.411  -0.374  0.00  0.00     0.213 C 
ENDBRANCH  33  35
ENDBRANCH  32  33
ENDBRANCH   1  24
TORSDOF 5
ENDMDL
MODEL 4
REMARK VINA RESULT:    -8.681      7.390     10.101
REMARK INTER + INTRA:         -11.426
REMARK INTER:                 -10.173
REMARK INTRA:                  -1.253
REMARK CONF_INDEPENDENT:        1.492
REMARK UNBOUND:                -1.253
REMARK  5 active torsions:
REMARK  status: ('A' for Active; 'I' for Inactive)
REMARK    1  A    between atoms: O_2  and  C_3 
REMARK    2  A    between atoms: C_3  and  C_5 
REMARK    3  A    between atoms: C_13  and  N_14 
REMARK       I    between atoms: N_14  and  C_15 
REMARK       I    between atoms: C_15  and  N_17 
REMARK    4  A    between atoms: N_17  and  C_18 
REMARK    5  A    between atoms: C_22  and  C_21 
ROOT
ATOM      1  N   UNL d   1      28.768 -15.715  -1.967  0.00  0.00    -0.325 N 
ATOM      2  C   UNL d   1      29.325 -16.836  -1.335  0.00  0.00     0.321 C 
ATOM      3  O   UNL d   1      28.687 -17.621  -0.644  0.00  0.00    -0.247 OA
ATOM      4  N   UNL d   1      30.694 -17.068  -1.526  0.00  0.00    -0.309 N 
ATOM      5  H   UNL d   1      29.366 -15.039  -2.420  0.00  0.00     0.165 HD
ATOM      6  H   UNL d   1      31.262 -16.278  -1.807  0.00  0.00     0.170 HD
ENDROOT
BRANCH   4   7
ATOM      7  C   UNL d   1      31.344 -18.263  -0.959  0.00  0.00     0.036 C 
ATOM      8  C   UNL d   1      31.907 -18.314   0.309  0.00  0.00     0.030 C 
ATOM      9  C   UNL d   1      32.584 -19.524   0.803  0.00  0.00     0.011 C 
ATOM     10  C   UNL d   1      32.595 -20.848   0.162  0.00  0.00    -0.036 C 
ATOM     11  C   UNL d   1      32.133 -20.700  -1.158  0.00  0.00     0.011 C 
ATOM     12  C   UNL d   1      31.526 -19.457  -1.682  0.00  0.00     0.030 C 
BRANCH  10  13
ATOM     13  C   UNL d   1      33.324 -22.294   0.825  0.00  0.00     0.117 C 
ATOM     14  C   UNL d   1      33.335 -24.062   0.577  0.00  0.00     0.011 C 
ATOM     15  C   UNL d   1      32.107 -24.623   0.509  0.00  0.00    -0.015 C 
ATOM     16  C   UNL d   1      31.148 -25.723   0.352  0.00  0.00     0.036 C 
ATOM     17  C   UNL d   1      31.489 -23.398   0.939  0.00  0.00     0.019 C 
ATOM     18  C   UNL d   1      30.029 -25.348  -0.330  0.00  0.00     0.035 C 
ATOM     19 CL   UNL d   1      28.905 -26.438  -1.048  0.00  0.00    -0.084 Cl
ATOM     20  C   UNL d   1      29.819 -23.959  -0.680  0.00  0.00     0.026 C 
ATOM     21  C   UNL d   1      30.553 -22.991  -0.104  0.00  0.00     0.026 C 
ATOM     22  N   UNL d   1      32.218 -22.648   1.732  0.00  0.00    -0.280 NA
ATOM     23  H   UNL d   1      32.780 -23.078   2.478  0.00  0.00     0.128 HD
ENDBRANCH  10  13
ENDBRANCH   4   7
BRANCH   1  24
ATOM     24  C   UNL d   1      27.400 -15.168  -1.740  0.00  0.00     0.189 C 
ATOM     25  S   UNL d   1      26.846 -15.260  -0.070  0.00  0.00    -0.129 SA
ATOM     26  C   UNL d   1      26.012 -16.893  -0.311  0.00  0.00     0.079 C 
ATOM     27  C   UNL d   1      25.172 -17.818   0.605  0.00  0.00     0.020 C 
ATOM     28  C   UNL d   1      25.452 -16.664  -1.731  0.00  0.00    -0.051 C 
ATOM     29  C   UNL d   1      24.053 -18.624   0.007  0.00  0.00     0.002 C 
ATOM     30  C   UNL d   1      23.293 -17.808  -1.024  0.00  0.00     0.004 C 
ATOM     31  C   UNL d   1      24.219 -17.449  -2.196  0.00  0.00     0.036 C 
ATOM     32  C   UNL d   1      26.258 -15.856  -2.486  0.00  0.00     0.053 C 
BRANCH  32  33
ATOM     33  C   UNL d   1      26.161 -15.454  -3.919  0.00  0.00     0.292 C 
ATOM     34  O   UNL d   1      27.090 -15.656  -4.687  0.00  0.00    -0.260 OA
BRANCH  33  35
ATOM     35  O   UNL d   1      25.012 -14.801  -4.240  0.00  0.00    -0.323 OA
ATOM     36  C   UNL d   1      25.072 -13.365  -4.106  0.00  0.00     0.213 C 
ENDBRANCH  33  35
ENDBRANCH  32  33
ENDBRANCH   1  24
TORSDOF 5
ENDMDL
MODEL 5
REMARK VINA RESULT:    -8.580      8.289      9.482
REMARK INTER + INTRA:         -11.172
REMARK INTER:                 -10.072
REMARK INTRA:                  -1.100
REMARK CONF_INDEPENDENT:        1.492
REMARK UNBOUND:                -1.100
REMARK  5 active torsions:
REMARK  status: ('A' for Active; 'I' for Inactive)
REMARK    1  A    between atoms: O_2  and  C_3 
REMARK    2  A    between atoms: C_3  and  C_5 
REMARK    3  A    between atoms: C_13  and  N_14 
REMARK       I    between atoms: N_14  and  C_15 
REMARK       I    between atoms: C_15  and  N_17 
REMARK    4  A    between atoms: N_17  and  C_18 
REMARK    5  A    between atoms: C_22  and  C_21 
ROOT
ATOM      1  N   UNL d   1      32.877 -21.733   2.919  0.00  0.00    -0.325 N 
ATOM      2  C   UNL d   1      32.796 -21.310   1.584  0.00  0.00     0.321 C 
ATOM      3  O   UNL d   1      33.193 -20.222   1.184  0.00  0.00    -0.247 OA
ATOM      4  N   UNL d   1      32.235 -22.203   0.660  0.00  0.00    -0.309 N 
ATOM      5  H   UNL d   1      32.422 -22.586   3.209  0.00  0.00     0.165 HD
ATOM      6  H   UNL d   1      31.633 -22.930   1.027  0.00  0.00     0.170 HD
ENDROOT
BRANCH   4   7
ATOM      7  C   UNL d   1      32.178 -21.869  -0.774  0.00  0.00     0.036 C 
ATOM      8  C   UNL d   1      33.073 -21.021  -1.412  0.00  0.00     0.030 C 
ATOM      9  C   UNL d   1      32.935 -20.689  -2.839  0.00  0.00     0.011 C 
ATOM     10  C   UNL d   1      32.018 -21.315  -3.802  0.00  0.00    -0.036 C 
ATOM     11  C   UNL d   1      31.063 -22.055  -3.082  0.00  0.00     0.011 C 
ATOM     12  C   UNL d   1      31.155 -22.322  -1.629  0.00  0.00     0.030 C 
BRANCH  10  13
ATOM     13  C   UNL d   1      31.950 -20.970  -5.517  0.00  0.00     0.117 C 
ATOM     14  C   UNL d   1      31.968 -19.580  -6.637  0.00  0.00     0.011 C 
ATOM     15  C   UNL d   1      31.084 -18.605  -6.331  0.00  0.00    -0.015 C 
ATOM     16  C   UNL d   1      30.405 -17.316  -6.504  0.00  0.00     0.036 C 
ATOM     17  C   UNL d   1      30.455 -19.441  -5.345  0.00  0.00     0.019 C 
ATOM     18  C   UNL d   1      30.108 -16.717  -5.315  0.00  0.00     0.035 C 
ATOM     19 CL   UNL d   1      29.699 -15.054  -5.128  0.00  0.00    -0.084 Cl
ATOM     20  C   UNL d   1      30.326 -17.421  -4.069  0.00  0.00     0.026 C 
ATOM     21  C   UNL d   1      30.542 -18.748  -4.064  0.00  0.00     0.026 C 
ATOM     22  N   UNL d   1      30.498 -20.731  -5.591  0.00  0.00    -0.280 NA
ATOM     23  H   UNL d   1      30.346 -21.080  -6.545  0.00  0.00     0.128 HD
ENDBRANCH  10  13
ENDBRANCH   4   7
BRANCH   1  24
ATOM     24  C   UNL d   1      33.241 -20.883   4.087  0.00  0.00     0.189 C 
ATOM     25  S   UNL d   1      34.962 -20.537   4.231  0.00  0.00    -0.129 SA
ATOM     26  C   UNL d   1      35.281 -21.977   5.346  0.00  0.00     0.079 C 
ATOM     27  C   UNL d   1      36.537 -22.516   6.076  0.00  0.00     0.020 C 
ATOM     28  C   UNL d   1      33.989 -21.914   6.188  0.00  0.00    -0.051 C 
ATOM     29  C   UNL d   1      36.381 -23.172   7.419  0.00  0.00     0.002 C 
ATOM     30  C   UNL d   1      35.362 -22.430   8.266  0.00  0.00     0.004 C 
ATOM     31  C   UNL d   1      33.977 -22.502   7.604  0.00  0.00     0.036 C 
ATOM     32  C   UNL d   1      32.920 -21.450   5.470  0.00  0.00     0.053 C 
BRANCH  32  33
ATOM     33  C   UNL d   1      31.483 -21.318   5.845  0.00  0.00     0.292 C 
ATOM     34  O   UNL d   1      31.109 -21.575   6.980  0.00  0.00    -0.260 OA
BRANCH  33  35
ATOM     35  O   UNL d   1      30.665 -20.972   4.815  0.00  0.00    -0.323 OA
ATOM     36  C   UNL d   1      29.655 -21.950   4.486  0.00  0.00     0.213 C 
ENDBRANCH  33  35
ENDBRANCH  32  33
ENDBRANCH   1  24
TORSDOF 5
ENDMDL
MODEL 6
REMARK VINA RESULT:    -8.563      8.263     12.185
REMARK INTER + INTRA:         -11.682
REMARK INTER:                 -10.055
REMARK INTRA:                  -1.628
REMARK CONF_INDEPENDENT:        1.492
REMARK UNBOUND:                -1.628
REMARK  5 active torsions:
REMARK  status: ('A' for Active; 'I' for Inactive)
REMARK    1  A    between atoms: O_2  and  C_3 
REMARK    2  A    between atoms: C_3  and  C_5 
REMARK    3  A    between atoms: C_13  and  N_14 
REMARK       I    between atoms: N_14  and  C_15 
REMARK       I    between atoms: C_15  and  N_17 
REMARK    4  A    between atoms: N_17  and  C_18 
REMARK    5  A    between atoms: C_22  and  C_21 
ROOT
ATOM      1  N   UNL d   1      25.955 -10.288  -7.089  0.00  0.00    -0.325 N 
ATOM      2  C   UNL d   1      26.447 -11.270  -6.217  0.00  0.00     0.321 C 
ATOM      3  O   UNL d   1      27.621 -11.616  -6.167  0.00  0.00    -0.247 OA
ATOM      4  N   UNL d   1      25.530 -11.875  -5.346  0.00  0.00    -0.309 N 
ATOM      5  H   UNL d   1      24.960 -10.134  -7.171  0.00  0.00     0.165 HD
ATOM      6  H   UNL d   1      24.551 -11.832  -5.604  0.00  0.00     0.170 HD
ENDROOT
BRANCH   4   7
ATOM      7  C   UNL d   1      25.975 -12.864  -4.348  0.00  0.00     0.036 C 
ATOM      8  C   UNL d   1      26.392 -12.539  -3.065  0.00  0.00     0.030 C 
ATOM      9  C   UNL d   1      26.870 -13.569  -2.128  0.00  0.00     0.011 C 
ATOM     10  C   UNL d   1      26.795 -15.026  -2.310  0.00  0.00    -0.036 C 
ATOM     11  C   UNL d   1      26.494 -15.284  -3.660  0.00  0.00     0.011 C 
ATOM     12  C   UNL d   1      26.092 -14.239  -4.627  0.00  0.00     0.030 C 
BRANCH  10  13
ATOM     13  C   UNL d   1      27.278 -16.226  -1.132  0.00  0.00     0.117 C 
ATOM     14  C   UNL d   1      26.776 -17.826  -0.520  0.00  0.00     0.011 C 
ATOM     15  C   UNL d   1      25.472 -17.908  -0.176  0.00  0.00    -0.015 C 
ATOM     16  C   UNL d   1      24.259 -18.573   0.313  0.00  0.00     0.036 C 
ATOM     17  C   UNL d   1      25.316 -16.484  -0.305  0.00  0.00     0.019 C 
ATOM     18  C   UNL d   1      23.134 -18.152  -0.334  0.00  0.00     0.035 C 
ATOM     19 CL   UNL d   1      21.625 -18.983  -0.321  0.00  0.00    -0.084 Cl
ATOM     20  C   UNL d   1      23.200 -17.050  -1.270  0.00  0.00     0.026 C 
ATOM     21  C   UNL d   1      24.279 -16.247  -1.303  0.00  0.00     0.026 C 
ATOM     22  N   UNL d   1      26.391 -15.775  -0.047  0.00  0.00    -0.280 NA
ATOM     23  H   UNL d   1      26.997 -16.025   0.745  0.00  0.00     0.128 HD
ENDBRANCH  10  13
ENDBRANCH   4   7
BRANCH   1  24
ATOM     24  C   UNL d   1      26.698  -9.670  -8.224  0.00  0.00     0.189 C 
ATOM     25  S   UNL d   1      26.682 -10.618  -9.709  0.00  0.00    -0.129 SA
ATOM     26  C   UNL d   1      28.267 -11.485  -9.314  0.00  0.00     0.079 C 
ATOM     27  C   UNL d   1      29.138 -12.527 -10.060  0.00  0.00     0.020 C 
ATOM     28  C   UNL d   1      29.028 -10.305  -8.674  0.00  0.00    -0.051 C 
ATOM     29  C   UNL d   1      30.632 -12.483  -9.899  0.00  0.00     0.002 C 
ATOM     30  C   UNL d   1      31.132 -11.049  -9.893  0.00  0.00     0.004 C 
ATOM     31  C   UNL d   1      30.561 -10.300  -8.680  0.00  0.00     0.036 C 
ATOM     32  C   UNL d   1      28.194  -9.442  -8.015  0.00  0.00     0.053 C 
BRANCH  32  33
ATOM     33  C   UNL d   1      28.500  -8.241  -7.185  0.00  0.00     0.292 C 
ATOM     34  O   UNL d   1      29.054  -7.269  -7.677  0.00  0.00    -0.260 OA
BRANCH  33  35
ATOM     35  O   UNL d   1      28.178  -8.372  -5.871  0.00  0.00    -0.323 OA
ATOM     36  C   UNL d   1      29.130  -9.123  -5.085  0.00  0.00     0.213 C 
ENDBRANCH  33  35
ENDBRANCH  32  33
ENDBRANCH   1  24
TORSDOF 5
ENDMDL
MODEL 7
REMARK VINA RESULT:    -8.534      2.208      2.891
REMARK INTER + INTRA:         -11.417
REMARK INTER:                 -10.025
REMARK INTRA:                  -1.391
REMARK CONF_INDEPENDENT:        1.492
REMARK UNBOUND:                -1.391
REMARK  5 active torsions:
REMARK  status: ('A' for Active; 'I' for Inactive)
REMARK    1  A    between atoms: O_2  and  C_3 
REMARK    2  A    between atoms: C_3  and  C_5 
REMARK    3  A    between atoms: C_13  and  N_14 
REMARK       I    between atoms: N_14  and  C_15 
REMARK       I    between atoms: C_15  and  N_17 
REMARK    4  A    between atoms: N_17  and  C_18 
REMARK    5  A    between atoms: C_22  and  C_21 
ROOT
ATOM      1  N   UNL d   1      28.830 -13.140   7.315  0.00  0.00    -0.325 N 
ATOM      2  C   UNL d   1      28.456 -13.066   5.965  0.00  0.00     0.321 C 
ATOM      3  O   UNL d   1      27.881 -12.106   5.465  0.00  0.00    -0.247 OA
ATOM      4  N   UNL d   1      28.777 -14.158   5.148  0.00  0.00    -0.309 N 
ATOM      5  H   UNL d   1      29.188 -14.004   7.695  0.00  0.00     0.165 HD
ATOM      6  H   UNL d   1      28.944 -15.046   5.607  0.00  0.00     0.170 HD
ENDROOT
BRANCH   4   7
ATOM      7  C   UNL d   1      28.486 -14.133   3.703  0.00  0.00     0.036 C 
ATOM      8  C   UNL d   1      29.411 -14.448   2.718  0.00  0.00     0.030 C 
ATOM      9  C   UNL d   1      29.073 -14.358   1.288  0.00  0.00     0.011 C 
ATOM     10  C   UNL d   1      27.738 -14.136   0.713  0.00  0.00    -0.036 C 
ATOM     11  C   UNL d   1      26.885 -13.697   1.741  0.00  0.00     0.011 C 
ATOM     12  C   UNL d   1      27.252 -13.709   3.175  0.00  0.00     0.030 C 
BRANCH  10  13
ATOM     13  C   UNL d   1      27.352 -14.138  -0.994  0.00  0.00     0.117 C 
ATOM     14  C   UNL d   1      26.041 -14.629  -2.102  0.00  0.00     0.011 C 
ATOM     15  C   UNL d   1      25.611 -15.898  -1.929  0.00  0.00    -0.015 C 
ATOM     16  C   UNL d   1      24.776 -17.074  -2.201  0.00  0.00     0.036 C 
ATOM     17  C   UNL d   1      26.707 -16.183  -1.043  0.00  0.00     0.019 C 
ATOM     18  C   UNL d   1      24.463 -17.767  -1.069  0.00  0.00     0.035 C 
ATOM     19 CL   UNL d   1      23.197 -18.928  -0.947  0.00  0.00    -0.084 Cl
ATOM     20  C   UNL d   1      25.066 -17.406   0.197  0.00  0.00     0.026 C 
ATOM     21  C   UNL d   1      26.138 -16.596   0.236  0.00  0.00     0.026 C 
ATOM     22  N   UNL d   1      27.809 -15.509  -1.277  0.00  0.00    -0.280 NA
ATOM     23  H   UNL d   1      28.126 -15.355  -2.243  0.00  0.00     0.128 HD
ENDBRANCH  10  13
ENDBRANCH   4   7
BRANCH   1  24
ATOM     24  C   UNL d   1      28.414 -12.199   8.393  0.00  0.00     0.189 C 
ATOM     25  S   UNL d   1      28.961 -10.540   8.167  0.00  0.00    -0.129 SA
ATOM     26  C   UNL d   1      30.504 -10.787   9.156  0.00  0.00     0.079 C 
ATOM     27  C   UNL d   1      31.668  -9.858   9.585  0.00  0.00     0.020 C 
ATOM     28  C   UNL d   1      29.932 -11.702  10.260  0.00  0.00    -0.051 C 
ATOM     29  C   UNL d   1      32.329 -10.077  10.916  0.00  0.00     0.002 C 
ATOM     30  C   UNL d   1      31.300 -10.422  11.979  0.00  0.00     0.004 C 
ATOM     31  C   UNL d   1      30.613 -11.751  11.633  0.00  0.00     0.036 C 
ATOM     32  C   UNL d   1      28.924 -12.507   9.801  0.00  0.00     0.053 C 
BRANCH  32  33
ATOM     33  C   UNL d   1      28.164 -13.595  10.481  0.00  0.00     0.292 C 
ATOM     34  O   UNL d   1      27.404 -13.340  11.404  0.00  0.00    -0.260 OA
BRANCH  33  35
ATOM     35  O   UNL d   1      28.455 -14.845  10.034  0.00  0.00    -0.323 OA
ATOM     36  C   UNL d   1      29.864 -15.156   9.971  0.00  0.00     0.213 C 
ENDBRANCH  33  35
ENDBRANCH  32  33
ENDBRANCH   1  24
TORSDOF 5
ENDMDL
MODEL 8
REMARK VINA RESULT:    -8.524      4.166     10.765
REMARK INTER + INTRA:         -11.537
REMARK INTER:                 -10.016
REMARK INTRA:                  -1.521
REMARK CONF_INDEPENDENT:        1.492
REMARK UNBOUND:                -1.521
REMARK  5 active torsions:
REMARK  status: ('A' for Active; 'I' for Inactive)
REMARK    1  A    between atoms: O_2  and  C_3 
REMARK    2  A    between atoms: C_3  and  C_5 
REMARK    3  A    between atoms: C_13  and  N_14 
REMARK       I    between atoms: N_14  and  C_15 
REMARK       I    between atoms: C_15  and  N_17 
REMARK    4  A    between atoms: N_17  and  C_18 
REMARK    5  A    between atoms: C_22  and  C_21 
ROOT
ATOM      1  N   UNL d   1      28.402 -14.794   0.783  0.00  0.00    -0.325 N 
ATOM      2  C   UNL d   1      28.638 -14.016   1.926  0.00  0.00     0.321 C 
ATOM      3  O   UNL d   1      29.043 -12.860   1.897  0.00  0.00    -0.247 OA
ATOM      4  N   UNL d   1      28.378 -14.607   3.171  0.00  0.00    -0.309 N 
ATOM      5  H   UNL d   1      28.188 -15.777   0.873  0.00  0.00     0.165 HD
ATOM      6  H   UNL d   1      28.364 -15.619   3.208  0.00  0.00     0.170 HD
ENDROOT
BRANCH   4   7
ATOM      7  C   UNL d   1      28.529 -13.837   4.418  0.00  0.00     0.036 C 
ATOM      8  C   UNL d   1      27.571 -12.964   4.914  0.00  0.00     0.030 C 
ATOM      9  C   UNL d   1      27.801 -12.187   6.143  0.00  0.00     0.011 C 
ATOM     10  C   UNL d   1      28.914 -12.350   7.091  0.00  0.00    -0.036 C 
ATOM     11  C   UNL d   1      29.902 -13.139   6.475  0.00  0.00     0.011 C 
ATOM     12  C   UNL d   1      29.703 -13.856   5.196  0.00  0.00     0.030 C 
BRANCH  10  13
ATOM     13  C   UNL d   1      29.104 -11.481   8.598  0.00  0.00     0.117 C 
ATOM     14  C   UNL d   1      29.972 -11.606  10.152  0.00  0.00     0.011 C 
ATOM     15  C   UNL d   1      29.836 -12.798  10.773  0.00  0.00    -0.015 C 
ATOM     16  C   UNL d   1      30.062 -13.784  11.836  0.00  0.00     0.036 C 
ATOM     17  C   UNL d   1      28.810 -13.198   9.848  0.00  0.00     0.019 C 
ATOM     18  C   UNL d   1      30.154 -15.058  11.357  0.00  0.00     0.035 C 
ATOM     19 CL   UNL d   1      30.812 -16.390  12.230  0.00  0.00    -0.084 Cl
ATOM     20  C   UNL d   1      29.882 -15.335   9.963  0.00  0.00     0.026 C 
ATOM     21  C   UNL d   1      29.264 -14.421   9.194  0.00  0.00     0.026 C 
ATOM     22  N   UNL d   1      28.082 -12.221   9.358  0.00  0.00    -0.280 NA
ATOM     23  H   UNL d   1      27.774 -11.452   9.966  0.00  0.00     0.128 HD
ENDBRANCH  10  13
ENDBRANCH   4   7
BRANCH   1  24
ATOM     24  C   UNL d   1      28.798 -14.447  -0.611  0.00  0.00     0.189 C 
ATOM     25  S   UNL d   1      28.261 -12.858  -1.149  0.00  0.00    -0.129 SA
ATOM     26  C   UNL d   1      26.697 -13.506  -1.893  0.00  0.00     0.079 C 
ATOM     27  C   UNL d   1      25.527 -12.857  -2.675  0.00  0.00     0.020 C 
ATOM     28  C   UNL d   1      27.242 -14.828  -2.475  0.00  0.00    -0.051 C 
ATOM     29  C   UNL d   1      24.837 -13.646  -3.752  0.00  0.00     0.002 C 
ATOM     30  C   UNL d   1      25.841 -14.446  -4.562  0.00  0.00     0.004 C 
ATOM     31  C   UNL d   1      26.532 -15.484  -3.665  0.00  0.00     0.036 C 
ATOM     32  C   UNL d   1      28.257 -15.351  -1.719  0.00  0.00     0.053 C 
BRANCH  32  33
ATOM     33  C   UNL d   1      28.999 -16.639  -1.847  0.00  0.00     0.292 C 
ATOM     34  O   UNL d   1      29.337 -17.055  -2.946  0.00  0.00    -0.260 OA
BRANCH  33  35
ATOM     35  O   UNL d   1      29.180 -17.300  -0.674  0.00  0.00    -0.323 OA
ATOM     36  C   UNL d   1      27.993 -17.926  -0.140  0.00  0.00     0.213 C 
ENDBRANCH  33  35
ENDBRANCH  32  33
ENDBRANCH   1  24
TORSDOF 5
ENDMDL
MODEL 9
REMARK VINA RESULT:    -8.415      7.732     10.286
REMARK INTER + INTRA:         -11.339
REMARK INTER:                  -9.906
REMARK INTRA:                  -1.433
REMARK CONF_INDEPENDENT:        1.492
REMARK UNBOUND:                -1.433
REMARK  5 active torsions:
REMARK  status: ('A' for Active; 'I' for Inactive)
REMARK    1  A    between atoms: O_2  and  C_3 
REMARK    2  A    between atoms: C_3  and  C_5 
REMARK    3  A    between atoms: C_13  and  N_14 
REMARK       I    between atoms: N_14  and  C_15 
REMARK       I    between atoms: C_15  and  N_17 
REMARK    4  A    between atoms: N_17  and  C_18 
REMARK    5  A    between atoms: C_22  and  C_21 
ROOT
ATOM      1  N   UNL d   1      28.571 -15.192  -3.269  0.00  0.00    -0.325 N 
ATOM      2  C   UNL d   1      29.168 -16.456  -3.385  0.00  0.00     0.321 C 
ATOM      3  O   UNL d   1      28.905 -17.407  -2.660  0.00  0.00    -0.247 OA
ATOM      4  N   UNL d   1      30.111 -16.629  -4.407  0.00  0.00    -0.309 N 
ATOM      5  H   UNL d   1      28.916 -14.415  -3.813  0.00  0.00     0.165 HD
ATOM      6  H   UNL d   1      30.552 -15.794  -4.775  0.00  0.00     0.170 HD
ENDROOT
BRANCH   4   7
ATOM      7  C   UNL d   1      30.733 -17.943  -4.647  0.00  0.00     0.036 C 
ATOM      8  C   UNL d   1      31.749 -18.476  -3.867  0.00  0.00     0.030 C 
ATOM      9  C   UNL d   1      32.363 -19.776  -4.185  0.00  0.00     0.011 C 
ATOM     10  C   UNL d   1      31.894 -20.747  -5.185  0.00  0.00    -0.036 C 
ATOM     11  C   UNL d   1      30.962 -20.103  -6.019  0.00  0.00     0.011 C 
ATOM     12  C   UNL d   1      30.404 -18.761  -5.745  0.00  0.00     0.030 C 
BRANCH  10  13
ATOM     13  C   UNL d   1      32.584 -22.330  -5.469  0.00  0.00     0.117 C 
ATOM     14  C   UNL d   1      32.090 -24.042  -5.576  0.00  0.00     0.011 C 
ATOM     15  C   UNL d   1      31.344 -24.474  -4.536  0.00  0.00    -0.015 C 
ATOM     16  C   UNL d   1      30.565 -25.449  -3.764  0.00  0.00     0.036 C 
ATOM     17  C   UNL d   1      31.610 -23.266  -3.803  0.00  0.00     0.019 C 
ATOM     18  C   UNL d   1      29.494 -24.885  -3.135  0.00  0.00     0.035 C 
ATOM     19 CL   UNL d   1      28.155 -25.761  -2.498  0.00  0.00    -0.084 Cl
ATOM     20  C   UNL d   1      29.316 -23.448  -3.146  0.00  0.00     0.026 C 
ATOM     21  C   UNL d   1      30.325 -22.638  -3.512  0.00  0.00     0.026 C 
ATOM     22  N   UNL d   1      32.768 -22.699  -4.055  0.00  0.00    -0.280 NA
ATOM     23  H   UNL d   1      33.611 -23.274  -4.167  0.00  0.00     0.128 HD
ENDBRANCH  10  13
ENDBRANCH   4   7
BRANCH   1  24
ATOM     24  C   UNL d   1      27.707 -14.730  -2.145  0.00  0.00     0.189 C 
ATOM     25  S   UNL d   1      28.022 -15.529  -0.606  0.00  0.00    -0.129 SA
ATOM     26  C   UNL d   1      26.739 -16.831  -0.884  0.00  0.00     0.079 C 
ATOM     27  C   UNL d   1      26.213 -18.021  -0.042  0.00  0.00     0.020 C 
ATOM     28  C   UNL d   1      25.662 -15.960  -1.564  0.00  0.00    -0.051 C 
ATOM     29  C   UNL d   1      24.765 -18.409  -0.145  0.00  0.00     0.002 C 
ATOM     30  C   UNL d   1      23.880 -17.177  -0.218  0.00  0.00     0.004 C 
ATOM     31  C   UNL d   1      24.190 -16.384  -1.497  0.00  0.00     0.036 C 
ATOM     32  C   UNL d   1      26.203 -14.946  -2.307  0.00  0.00     0.053 C 
BRANCH  32  33
ATOM     33  C   UNL d   1      25.553 -13.939  -3.196  0.00  0.00     0.292 C 
ATOM     34  O   UNL d   1      25.446 -12.774  -2.842  0.00  0.00    -0.260 OA
BRANCH  33  35
ATOM     35  O   UNL d   1      25.052 -14.453  -4.350  0.00  0.00    -0.323 OA
ATOM     36  C   UNL d   1      25.907 -15.414  -5.008  0.00  0.00     0.213 C 
ENDBRANCH  33  35
ENDBRANCH  32  33
ENDBRANCH   1  24
TORSDOF 5
ENDMDL
