MODEL 1
REMARK VINA RESULT:   -30.152      0.000      0.000
REMARK INTER + INTRA:         -34.377
REMARK INTER:                 -32.538
REMARK INTRA:                  -1.839
REMARK CONF_INDEPENDENT:        2.386
REMARK UNBOUND:                -1.839
REMARK  8 active torsions:
REMARK  status: ('A' for Active; 'I' for Inactive)
REMARK    1  A    between atoms: C_2  and  C_5 
REMARK    2  A    between atoms: C_7  and  C_8 
REMARK    3  A    between atoms: C_11  and  N_12 
REMARK       I    between atoms: N_12  and  C_13 
REMARK    4  A    between atoms: C_13  and  C_15 
REMARK       I    between atoms: C_15  and  N_17 
REMARK    5  A    between atoms: N_17  and  C_18 
REMARK    6  A    between atoms: C_18  and  C_19 
REMARK    7  A    between atoms: C_19  and  C_20 
REMARK    8  A    between atoms: C_20  and  N_21 
ROOT
ATOM      1  N   UNL d   1      25.876 -16.172  -1.931  0.00  0.00    -0.319 N 
ATOM      2  C   UNL d   1      26.056 -15.488  -3.138  0.00  0.00     0.313 C 
ATOM      3  O   UNL d   1      25.219 -15.233  -4.000  0.00  0.00    -0.262 OA
ATOM      4  H   UNL d   1      26.703 -16.317  -1.355  0.00  0.00     0.169 HD
ENDROOT
BRANCH   1   5
ATOM      5  C   UNL d   1      24.648 -16.760  -1.499  0.00  0.00     0.035 A 
ATOM      6  C   UNL d   1      23.484 -15.987  -1.354  0.00  0.00     0.030 A 
ATOM      7  C   UNL d   1      22.297 -16.559  -0.834  0.00  0.00     0.017 A 
ATOM      8  C   UNL d   1      22.241 -17.924  -0.526  0.00  0.00     0.014 A 
ATOM      9  C   UNL d   1      23.389 -18.691  -0.681  0.00  0.00     0.017 A 
ATOM     10  C   UNL d   1      24.563 -18.117  -1.173  0.00  0.00     0.030 A 
BRANCH   8  11
ATOM     11  C   UNL d   1      21.008 -18.584  -0.133  0.00  0.00     0.189 A 
ATOM     12  N   UNL d   1      20.915 -19.343   1.009  0.00  0.00    -0.203 NA
ATOM     13  C   UNL d   1      19.676 -19.781   0.961  0.00  0.00     0.180 A 
ATOM     14  O   UNL d   1      19.018 -19.399  -0.174  0.00  0.00    -0.195 OA
ATOM     15  N   UNL d   1      19.905 -18.598  -0.895  0.00  0.00    -0.106 NA
BRANCH  13  16
ATOM     16  C   UNL d   1      18.887 -20.519   2.004  0.00  0.00     0.018 C 
ATOM     17  C   UNL d   1      19.797 -20.824   3.206  0.00  0.00     0.023 C 
ATOM     18  C   UNL d   1      18.384 -21.848   1.416  0.00  0.00     0.023 C 
ATOM     19  C   UNL d   1      17.678 -19.700   2.480  0.00  0.00     0.023 C 
ENDBRANCH  13  16
ENDBRANCH   8  11
ENDBRANCH   1   5
BRANCH   2  20
ATOM     20  C   UNL d   1      27.484 -14.986  -3.457  0.00  0.00     0.309 C 
ATOM     21  O   UNL d   1      28.281 -14.715  -2.565  0.00  0.00    -0.262 OA
ATOM     22  N   UNL d   1      27.748 -14.884  -4.822  0.00  0.00    -0.353 N 
ATOM     23  H   UNL d   1      26.979 -15.156  -5.437  0.00  0.00     0.162 HD
BRANCH  22  24
ATOM     24  C   UNL d   1      29.020 -14.425  -5.340  0.00  0.00     0.125 C 
BRANCH  24  25
ATOM     25  C   UNL d   1      30.148 -15.448  -5.191  0.00  0.00     0.040 C 
BRANCH  25  26
ATOM     26  C   UNL d   1      30.560 -16.028  -6.546  0.00  0.00     0.130 C 
BRANCH  26  27
ATOM     27  N   UNL d   1      30.592 -17.501  -6.515  0.00  0.00    -0.352 N 
ATOM     28  C   UNL d   1      30.848 -18.333  -7.602  0.00  0.00     0.108 A 
ATOM     29  C   UNL d   1      30.803 -19.617  -7.139  0.00  0.00     0.106 A 
ATOM     30  N   UNL d   1      30.498 -19.533  -5.802  0.00  0.00    -0.361 N 
ATOM     31  C   UNL d   1      30.360 -18.257  -5.428  0.00  0.00     0.182 A 
ATOM     32  H   UNL d   1      30.389 -20.328  -5.174  0.00  0.00     0.166 HD
ENDBRANCH  26  27
ENDBRANCH  25  26
ENDBRANCH  24  25
ENDBRANCH  22  24
ENDBRANCH   2  20
TORSDOF 8
ENDMDL
MODEL 2
REMARK VINA RESULT:   -29.959      2.287      3.409
REMARK INTER + INTRA:         -33.839
REMARK INTER:                 -32.345
REMARK INTRA:                  -1.494
REMARK CONF_INDEPENDENT:        2.386
REMARK UNBOUND:                -1.494
REMARK  8 active torsions:
REMARK  status: ('A' for Active; 'I' for Inactive)
REMARK    1  A    between atoms: C_2  and  C_5 
REMARK    2  A    between atoms: C_7  and  C_8 
REMARK    3  A    between atoms: C_11  and  N_12 
REMARK       I    between atoms: N_12  and  C_13 
REMARK    4  A    between atoms: C_13  and  C_15 
REMARK       I    between atoms: C_15  and  N_17 
REMARK    5  A    between atoms: N_17  and  C_18 
REMARK    6  A    between atoms: C_18  and  C_19 
REMARK    7  A    between atoms: C_19  and  C_20 
REMARK    8  A    between atoms: C_20  and  N_21 
ROOT
ATOM      1  N   UNL d   1      25.892 -16.034  -1.582  0.00  0.00    -0.319 N 
ATOM      2  C   UNL d   1      27.183 -16.464  -1.260  0.00  0.00     0.313 C 
ATOM      3  O   UNL d   1      27.519 -17.485  -0.665  0.00  0.00    -0.262 OA
ATOM      4  H   UNL d   1      25.809 -15.136  -2.055  0.00  0.00     0.169 HD
ENDROOT
BRANCH   1   5
ATOM      5  C   UNL d   1      24.688 -16.710  -1.213  0.00  0.00     0.035 A 
ATOM      6  C   UNL d   1      24.672 -18.097  -0.993  0.00  0.00     0.030 A 
ATOM      7  C   UNL d   1      23.457 -18.772  -0.723  0.00  0.00     0.017 A 
ATOM      8  C   UNL d   1      22.260 -18.057  -0.593  0.00  0.00     0.014 A 
ATOM      9  C   UNL d   1      22.278 -16.683  -0.798  0.00  0.00     0.017 A 
ATOM     10  C   UNL d   1      23.476 -16.026  -1.087  0.00  0.00     0.030 A 
BRANCH   8  11
ATOM     11  C   UNL d   1      21.020 -18.683  -0.170  0.00  0.00     0.189 A 
ATOM     12  N   UNL d   1      20.929 -19.426   0.983  0.00  0.00    -0.203 NA
ATOM     13  C   UNL d   1      19.679 -19.835   0.962  0.00  0.00     0.180 A 
ATOM     14  O   UNL d   1      19.010 -19.450  -0.165  0.00  0.00    -0.195 OA
ATOM     15  N   UNL d   1      19.902 -18.679  -0.912  0.00  0.00    -0.106 NA
BRANCH  13  16
ATOM     16  C   UNL d   1      18.892 -20.542   2.028  0.00  0.00     0.018 C 
ATOM     17  C   UNL d   1      19.804 -20.809   3.237  0.00  0.00     0.023 C 
ATOM     18  C   UNL d   1      18.390 -21.889   1.480  0.00  0.00     0.023 C 
ATOM     19  C   UNL d   1      17.682 -19.710   2.480  0.00  0.00     0.023 C 
ENDBRANCH  13  16
ENDBRANCH   8  11
ENDBRANCH   1   5
BRANCH   2  20
ATOM     20  C   UNL d   1      28.356 -15.553  -1.690  0.00  0.00     0.309 C 
ATOM     21  O   UNL d   1      28.854 -14.743  -0.915  0.00  0.00    -0.262 OA
ATOM     22  N   UNL d   1      28.765 -15.753  -3.008  0.00  0.00    -0.353 N 
ATOM     23  H   UNL d   1      28.252 -16.472  -3.520  0.00  0.00     0.162 HD
BRANCH  22  24
ATOM     24  C   UNL d   1      29.842 -14.998  -3.615  0.00  0.00     0.125 C 
BRANCH  24  25
ATOM     25  C   UNL d   1      29.457 -14.333  -4.938  0.00  0.00     0.040 C 
BRANCH  25  26
ATOM     26  C   UNL d   1      28.201 -14.968  -5.539  0.00  0.00     0.130 C 
BRANCH  26  27
ATOM     27  N   UNL d   1      26.978 -14.284  -5.083  0.00  0.00    -0.352 N 
ATOM     28  C   UNL d   1      25.918 -14.877  -4.401  0.00  0.00     0.108 A 
ATOM     29  C   UNL d   1      25.006 -13.893  -4.151  0.00  0.00     0.106 A 
ATOM     30  N   UNL d   1      25.517 -12.744  -4.705  0.00  0.00    -0.361 N 
ATOM     31  C   UNL d   1      26.702 -12.982  -5.276  0.00  0.00     0.182 A 
ATOM     32  H   UNL d   1      25.064 -11.832  -4.688  0.00  0.00     0.166 HD
ENDBRANCH  26  27
ENDBRANCH  25  26
ENDBRANCH  24  25
ENDBRANCH  22  24
ENDBRANCH   2  20
TORSDOF 8
ENDMDL
MODEL 3
REMARK VINA RESULT:   -29.649      2.218      3.983
REMARK INTER + INTRA:         -34.257
REMARK INTER:                 -32.035
REMARK INTRA:                  -2.222
REMARK CONF_INDEPENDENT:        2.386
REMARK UNBOUND:                -2.222
REMARK  8 active torsions:
REMARK  status: ('A' for Active; 'I' for Inactive)
REMARK    1  A    between atoms: C_2  and  C_5 
REMARK    2  A    between atoms: C_7  and  C_8 
REMARK    3  A    between atoms: C_11  and  N_12 
REMARK       I    between atoms: N_12  and  C_13 
REMARK    4  A    between atoms: C_13  and  C_15 
REMARK       I    between atoms: C_15  and  N_17 
REMARK    5  A    between atoms: N_17  and  C_18 
REMARK    6  A    between atoms: C_18  and  C_19 
REMARK    7  A    between atoms: C_19  and  C_20 
REMARK    8  A    between atoms: C_20  and  N_21 
ROOT
ATOM      1  N   UNL d   1      25.935 -16.151  -1.616  0.00  0.00    -0.319 N 
ATOM      2  C   UNL d   1      26.180 -15.578  -2.868  0.00  0.00     0.313 C 
ATOM      3  O   UNL d   1      25.416 -15.489  -3.827  0.00  0.00    -0.262 OA
ATOM      4  H   UNL d   1      26.709 -16.160  -0.954  0.00  0.00     0.169 HD
ENDROOT
BRANCH   1   5
ATOM      5  C   UNL d   1      24.723 -16.804  -1.238  0.00  0.00     0.035 A 
ATOM      6  C   UNL d   1      24.702 -18.174  -0.927  0.00  0.00     0.030 A 
ATOM      7  C   UNL d   1      23.481 -18.833  -0.646  0.00  0.00     0.017 A 
ATOM      8  C   UNL d   1      22.279 -18.115  -0.599  0.00  0.00     0.014 A 
ATOM      9  C   UNL d   1      22.302 -16.758  -0.895  0.00  0.00     0.017 A 
ATOM     10  C   UNL d   1      23.506 -16.117  -1.193  0.00  0.00     0.030 A 
BRANCH   8  11
ATOM     11  C   UNL d   1      21.028 -18.715  -0.171  0.00  0.00     0.189 A 
ATOM     12  N   UNL d   1      20.931 -19.468   0.976  0.00  0.00    -0.203 NA
ATOM     13  C   UNL d   1      19.671 -19.846   0.962  0.00  0.00     0.180 A 
ATOM     14  O   UNL d   1      19.001 -19.434  -0.155  0.00  0.00    -0.195 OA
ATOM     15  N   UNL d   1      19.905 -18.677  -0.902  0.00  0.00    -0.106 NA
BRANCH  13  16
ATOM     16  C   UNL d   1      18.876 -20.544   2.029  0.00  0.00     0.018 C 
ATOM     17  C   UNL d   1      19.786 -20.822   3.238  0.00  0.00     0.023 C 
ATOM     18  C   UNL d   1      18.360 -21.886   1.481  0.00  0.00     0.023 C 
ATOM     19  C   UNL d   1      17.676 -19.700   2.481  0.00  0.00     0.023 C 
ENDBRANCH  13  16
ENDBRANCH   8  11
ENDBRANCH   1   5
BRANCH   2  20
ATOM     20  C   UNL d   1      27.587 -14.980  -3.107  0.00  0.00     0.309 C 
ATOM     21  O   UNL d   1      28.331 -14.703  -2.173  0.00  0.00    -0.262 OA
ATOM     22  N   UNL d   1      27.896 -14.803  -4.456  0.00  0.00    -0.353 N 
ATOM     23  H   UNL d   1      27.169 -15.092  -5.112  0.00  0.00     0.162 HD
BRANCH  22  24
ATOM     24  C   UNL d   1      29.158 -14.249  -4.901  0.00  0.00     0.125 C 
BRANCH  24  25
ATOM     25  C   UNL d   1      29.646 -13.073  -4.052  0.00  0.00     0.040 C 
BRANCH  25  26
ATOM     26  C   UNL d   1      29.213 -11.732  -4.651  0.00  0.00     0.130 C 
BRANCH  26  27
ATOM     27  N   UNL d   1      27.805 -11.431  -4.339  0.00  0.00    -0.352 N 
ATOM     28  C   UNL d   1      27.278 -11.224  -3.066  0.00  0.00     0.108 A 
ATOM     29  C   UNL d   1      25.949 -10.954  -3.224  0.00  0.00     0.106 A 
ATOM     30  N   UNL d   1      25.699 -11.030  -4.573  0.00  0.00    -0.361 N 
ATOM     31  C   UNL d   1      26.816 -11.327  -5.244  0.00  0.00     0.182 A 
ATOM     32  H   UNL d   1      24.792 -10.881  -5.011  0.00  0.00     0.166 HD
ENDBRANCH  26  27
ENDBRANCH  25  26
ENDBRANCH  24  25
ENDBRANCH  22  24
ENDBRANCH   2  20
TORSDOF 8
ENDMDL
MODEL 4
REMARK VINA RESULT:   -29.646      0.938      1.492
REMARK INTER + INTRA:         -34.155
REMARK INTER:                 -32.032
REMARK INTRA:                  -2.122
REMARK CONF_INDEPENDENT:        2.386
REMARK UNBOUND:                -2.122
REMARK  8 active torsions:
REMARK  status: ('A' for Active; 'I' for Inactive)
REMARK    1  A    between atoms: C_2  and  C_5 
REMARK    2  A    between atoms: C_7  and  C_8 
REMARK    3  A    between atoms: C_11  and  N_12 
REMARK       I    between atoms: N_12  and  C_13 
REMARK    4  A    between atoms: C_13  and  C_15 
REMARK       I    between atoms: C_15  and  N_17 
REMARK    5  A    between atoms: N_17  and  C_18 
REMARK    6  A    between atoms: C_18  and  C_19 
REMARK    7  A    between atoms: C_19  and  C_20 
REMARK    8  A    between atoms: C_20  and  N_21 
ROOT
ATOM      1  N   UNL d   1      25.724 -16.081  -1.721  0.00  0.00    -0.319 N 
ATOM      2  C   UNL d   1      25.809 -15.192  -2.797  0.00  0.00     0.313 C 
ATOM      3  O   UNL d   1      24.915 -14.835  -3.561  0.00  0.00    -0.262 OA
ATOM      4  H   UNL d   1      26.587 -16.281  -1.218  0.00  0.00     0.169 HD
ENDROOT
BRANCH   1   5
ATOM      5  C   UNL d   1      24.547 -16.796  -1.340  0.00  0.00     0.035 A 
ATOM      6  C   UNL d   1      24.578 -18.185  -1.128  0.00  0.00     0.030 A 
ATOM      7  C   UNL d   1      23.388 -18.898  -0.845  0.00  0.00     0.017 A 
ATOM      8  C   UNL d   1      22.170 -18.222  -0.697  0.00  0.00     0.014 A 
ATOM      9  C   UNL d   1      22.143 -16.847  -0.895  0.00  0.00     0.017 A 
ATOM     10  C   UNL d   1      23.315 -16.151  -1.196  0.00  0.00     0.030 A 
BRANCH   8  11
ATOM     11  C   UNL d   1      20.956 -18.889  -0.261  0.00  0.00     0.189 A 
ATOM     12  N   UNL d   1      20.836 -19.452   0.987  0.00  0.00    -0.203 NA
ATOM     13  C   UNL d   1      19.629 -19.974   0.950  0.00  0.00     0.180 A 
ATOM     14  O   UNL d   1      19.022 -19.831  -0.266  0.00  0.00    -0.195 OA
ATOM     15  N   UNL d   1      19.905 -19.103  -1.066  0.00  0.00    -0.106 NA
BRANCH  13  16
ATOM     16  C   UNL d   1      18.820 -20.579   2.061  0.00  0.00     0.018 C 
ATOM     17  C   UNL d   1      19.732 -20.823   3.276  0.00  0.00     0.023 C 
ATOM     18  C   UNL d   1      18.245 -21.928   1.595  0.00  0.00     0.023 C 
ATOM     19  C   UNL d   1      17.659 -19.664   2.476  0.00  0.00     0.023 C 
ENDBRANCH  13  16
ENDBRANCH   8  11
ENDBRANCH   1   5
BRANCH   2  20
ATOM     20  C   UNL d   1      27.195 -14.571  -3.091  0.00  0.00     0.309 C 
ATOM     21  O   UNL d   1      28.204 -14.958  -2.512  0.00  0.00    -0.262 OA
ATOM     22  N   UNL d   1      27.162 -13.562  -4.052  0.00  0.00    -0.353 N 
ATOM     23  H   UNL d   1      26.240 -13.363  -4.445  0.00  0.00     0.162 HD
BRANCH  22  24
ATOM     24  C   UNL d   1      28.347 -12.842  -4.470  0.00  0.00     0.125 C 
BRANCH  24  25
ATOM     25  C   UNL d   1      29.119 -13.531  -5.597  0.00  0.00     0.040 C 
BRANCH  25  26
ATOM     26  C   UNL d   1      28.534 -14.908  -5.916  0.00  0.00     0.130 C 
BRANCH  26  27
ATOM     27  N   UNL d   1      29.559 -15.963  -5.833  0.00  0.00    -0.352 N 
ATOM     28  C   UNL d   1      30.334 -16.431  -6.891  0.00  0.00     0.108 A 
ATOM     29  C   UNL d   1      31.166 -17.386  -6.383  0.00  0.00     0.106 A 
ATOM     30  N   UNL d   1      30.860 -17.492  -5.048  0.00  0.00    -0.361 N 
ATOM     31  C   UNL d   1      29.883 -16.641  -4.718  0.00  0.00     0.182 A 
ATOM     32  H   UNL d   1      31.309 -18.128  -4.391  0.00  0.00     0.166 HD
ENDBRANCH  26  27
ENDBRANCH  25  26
ENDBRANCH  24  25
ENDBRANCH  22  24
ENDBRANCH   2  20
TORSDOF 8
ENDMDL
MODEL 5
REMARK VINA RESULT:   -29.642      2.122      3.757
REMARK INTER + INTRA:         -34.424
REMARK INTER:                 -32.029
REMARK INTRA:                  -2.395
REMARK CONF_INDEPENDENT:        2.386
REMARK UNBOUND:                -2.395
REMARK  8 active torsions:
REMARK  status: ('A' for Active; 'I' for Inactive)
REMARK    1  A    between atoms: C_2  and  C_5 
REMARK    2  A    between atoms: C_7  and  C_8 
REMARK    3  A    between atoms: C_11  and  N_12 
REMARK       I    between atoms: N_12  and  C_13 
REMARK    4  A    between atoms: C_13  and  C_15 
REMARK       I    between atoms: C_15  and  N_17 
REMARK    5  A    between atoms: N_17  and  C_18 
REMARK    6  A    between atoms: C_18  and  C_19 
REMARK    7  A    between atoms: C_19  and  C_20 
REMARK    8  A    between atoms: C_20  and  N_21 
ROOT
ATOM      1  N   UNL d   1      25.844 -16.214  -1.916  0.00  0.00    -0.319 N 
ATOM      2  C   UNL d   1      26.078 -15.705  -3.197  0.00  0.00     0.313 C 
ATOM      3  O   UNL d   1      25.293 -15.629  -4.141  0.00  0.00    -0.262 OA
ATOM      4  H   UNL d   1      26.633 -16.224  -1.273  0.00  0.00     0.169 HD
ENDROOT
BRANCH   1   5
ATOM      5  C   UNL d   1      24.618 -16.805  -1.481  0.00  0.00     0.035 A 
ATOM      6  C   UNL d   1      23.476 -16.020  -1.248  0.00  0.00     0.030 A 
ATOM      7  C   UNL d   1      22.295 -16.600  -0.726  0.00  0.00     0.017 A 
ATOM      8  C   UNL d   1      22.219 -17.981  -0.502  0.00  0.00     0.014 A 
ATOM      9  C   UNL d   1      23.345 -18.759  -0.744  0.00  0.00     0.017 A 
ATOM     10  C   UNL d   1      24.515 -18.178  -1.238  0.00  0.00     0.030 A 
BRANCH   8  11
ATOM     11  C   UNL d   1      20.986 -18.641  -0.111  0.00  0.00     0.189 A 
ATOM     12  N   UNL d   1      20.874 -19.347   1.064  0.00  0.00    -0.203 NA
ATOM     13  C   UNL d   1      19.642 -19.806   1.004  0.00  0.00     0.180 A 
ATOM     14  O   UNL d   1      19.009 -19.487  -0.164  0.00  0.00    -0.195 OA
ATOM     15  N   UNL d   1      19.903 -18.707  -0.899  0.00  0.00    -0.106 NA
BRANCH  13  16
ATOM     16  C   UNL d   1      18.836 -20.506   2.061  0.00  0.00     0.018 C 
ATOM     17  C   UNL d   1      18.274 -21.816   1.483  0.00  0.00     0.023 C 
ATOM     18  C   UNL d   1      17.661 -19.607   2.482  0.00  0.00     0.023 C 
ATOM     19  C   UNL d   1      19.685 -20.822   3.300  0.00  0.00     0.023 C 
ENDBRANCH  13  16
ENDBRANCH   8  11
ENDBRANCH   1   5
BRANCH   2  20
ATOM     20  C   UNL d   1      27.499 -15.171  -3.495  0.00  0.00     0.309 C 
ATOM     21  O   UNL d   1      28.314 -14.989  -2.598  0.00  0.00    -0.262 OA
ATOM     22  N   UNL d   1      27.733 -14.932  -4.849  0.00  0.00    -0.353 N 
ATOM     23  H   UNL d   1      26.951 -15.142  -5.471  0.00  0.00     0.162 HD
BRANCH  22  24
ATOM     24  C   UNL d   1      28.994 -14.422  -5.345  0.00  0.00     0.125 C 
BRANCH  24  25
ATOM     25  C   UNL d   1      28.841 -13.389  -6.463  0.00  0.00     0.040 C 
BRANCH  25  26
ATOM     26  C   UNL d   1      28.762 -11.966  -5.904  0.00  0.00     0.130 C 
BRANCH  26  27
ATOM     27  N   UNL d   1      27.610 -11.804  -5.001  0.00  0.00    -0.352 N 
ATOM     28  C   UNL d   1      27.673 -11.640  -3.619  0.00  0.00     0.108 A 
ATOM     29  C   UNL d   1      26.390 -11.506  -3.174  0.00  0.00     0.106 A 
ATOM     30  N   UNL d   1      25.585 -11.618  -4.283  0.00  0.00    -0.361 N 
ATOM     31  C   UNL d   1      26.320 -11.809  -5.383  0.00  0.00     0.182 A 
ATOM     32  H   UNL d   1      24.568 -11.565  -4.277  0.00  0.00     0.166 HD
ENDBRANCH  26  27
ENDBRANCH  25  26
ENDBRANCH  24  25
ENDBRANCH  22  24
ENDBRANCH   2  20
TORSDOF 8
ENDMDL
MODEL 6
REMARK VINA RESULT:   -29.552      1.787      2.694
REMARK INTER + INTRA:         -33.881
REMARK INTER:                 -31.939
REMARK INTRA:                  -1.943
REMARK CONF_INDEPENDENT:        2.386
REMARK UNBOUND:                -1.943
REMARK  8 active torsions:
REMARK  status: ('A' for Active; 'I' for Inactive)
REMARK    1  A    between atoms: C_2  and  C_5 
REMARK    2  A    between atoms: C_7  and  C_8 
REMARK    3  A    between atoms: C_11  and  N_12 
REMARK       I    between atoms: N_12  and  C_13 
REMARK    4  A    between atoms: C_13  and  C_15 
REMARK       I    between atoms: C_15  and  N_17 
REMARK    5  A    between atoms: N_17  and  C_18 
REMARK    6  A    between atoms: C_18  and  C_19 
REMARK    7  A    between atoms: C_19  and  C_20 
REMARK    8  A    between atoms: C_20  and  N_21 
ROOT
ATOM      1  N   UNL d   1      25.905 -16.183  -1.590  0.00  0.00    -0.319 N 
ATOM      2  C   UNL d   1      26.058 -15.382  -2.726  0.00  0.00     0.313 C 
ATOM      3  O   UNL d   1      25.207 -15.066  -3.555  0.00  0.00    -0.262 OA
ATOM      4  H   UNL d   1      26.740 -16.361  -1.035  0.00  0.00     0.169 HD
ENDROOT
BRANCH   1   5
ATOM      5  C   UNL d   1      24.696 -16.843  -1.210  0.00  0.00     0.035 A 
ATOM      6  C   UNL d   1      24.688 -18.206  -0.870  0.00  0.00     0.030 A 
ATOM      7  C   UNL d   1      23.472 -18.873  -0.588  0.00  0.00     0.017 A 
ATOM      8  C   UNL d   1      22.261 -18.169  -0.569  0.00  0.00     0.014 A 
ATOM      9  C   UNL d   1      22.271 -16.818  -0.894  0.00  0.00     0.017 A 
ATOM     10  C   UNL d   1      23.471 -16.170  -1.194  0.00  0.00     0.030 A 
BRANCH   8  11
ATOM     11  C   UNL d   1      21.013 -18.774  -0.141  0.00  0.00     0.189 A 
ATOM     12  N   UNL d   1      20.906 -19.481   1.034  0.00  0.00    -0.203 NA
ATOM     13  C   UNL d   1      19.653 -19.884   1.011  0.00  0.00     0.180 A 
ATOM     14  O   UNL d   1      18.999 -19.531  -0.136  0.00  0.00    -0.195 OA
ATOM     15  N   UNL d   1      19.904 -18.788  -0.895  0.00  0.00    -0.106 NA
BRANCH  13  16
ATOM     16  C   UNL d   1      18.850 -20.552   2.090  0.00  0.00     0.018 C 
ATOM     17  C   UNL d   1      18.292 -21.882   1.555  0.00  0.00     0.023 C 
ATOM     18  C   UNL d   1      17.671 -19.644   2.482  0.00  0.00     0.023 C 
ATOM     19  C   UNL d   1      19.700 -20.825   3.339  0.00  0.00     0.023 C 
ENDBRANCH  13  16
ENDBRANCH   8  11
ENDBRANCH   1   5
BRANCH   2  20
ATOM     20  C   UNL d   1      27.470 -14.814  -3.003  0.00  0.00     0.309 C 
ATOM     21  O   UNL d   1      28.229 -14.514  -2.088  0.00  0.00    -0.262 OA
ATOM     22  N   UNL d   1      27.765 -14.688  -4.360  0.00  0.00    -0.353 N 
ATOM     23  H   UNL d   1      27.025 -14.989  -4.997  0.00  0.00     0.162 HD
BRANCH  22  24
ATOM     24  C   UNL d   1      29.028 -14.169  -4.840  0.00  0.00     0.125 C 
BRANCH  24  25
ATOM     25  C   UNL d   1      30.246 -14.927  -4.308  0.00  0.00     0.040 C 
BRANCH  25  26
ATOM     26  C   UNL d   1      29.884 -16.361  -3.913  0.00  0.00     0.130 C 
BRANCH  26  27
ATOM     27  N   UNL d   1      30.186 -16.623  -2.496  0.00  0.00    -0.352 N 
ATOM     28  C   UNL d   1      31.249 -16.084  -1.775  0.00  0.00     0.108 A 
ATOM     29  C   UNL d   1      31.151 -16.565  -0.501  0.00  0.00     0.106 A 
ATOM     30  N   UNL d   1      30.058 -17.397  -0.487  0.00  0.00    -0.361 N 
ATOM     31  C   UNL d   1      29.482 -17.441  -1.693  0.00  0.00     0.182 A 
ATOM     32  H   UNL d   1      29.724 -17.915   0.324  0.00  0.00     0.166 HD
ENDBRANCH  26  27
ENDBRANCH  25  26
ENDBRANCH  24  25
ENDBRANCH  22  24
ENDBRANCH   2  20
TORSDOF 8
ENDMDL
MODEL 7
REMARK VINA RESULT:   -29.481      2.311      3.461
REMARK INTER + INTRA:         -33.735
REMARK INTER:                 -31.868
REMARK INTRA:                  -1.867
REMARK CONF_INDEPENDENT:        2.386
REMARK UNBOUND:                -1.867
REMARK  8 active torsions:
REMARK  status: ('A' for Active; 'I' for Inactive)
REMARK    1  A    between atoms: C_2  and  C_5 
REMARK    2  A    between atoms: C_7  and  C_8 
REMARK    3  A    between atoms: C_11  and  N_12 
REMARK       I    between atoms: N_12  and  C_13 
REMARK    4  A    between atoms: C_13  and  C_15 
REMARK       I    between atoms: C_15  and  N_17 
REMARK    5  A    between atoms: N_17  and  C_18 
REMARK    6  A    between atoms: C_18  and  C_19 
REMARK    7  A    between atoms: C_19  and  C_20 
REMARK    8  A    between atoms: C_20  and  N_21 
ROOT
ATOM      1  N   UNL d   1      25.741 -16.091  -2.031  0.00  0.00    -0.319 N 
ATOM      2  C   UNL d   1      25.823 -15.166  -3.076  0.00  0.00     0.313 C 
ATOM      3  O   UNL d   1      24.908 -14.700  -3.752  0.00  0.00    -0.262 OA
ATOM      4  H   UNL d   1      26.619 -16.387  -1.607  0.00  0.00     0.169 HD
ENDROOT
BRANCH   1   5
ATOM      5  C   UNL d   1      24.538 -16.718  -1.584  0.00  0.00     0.035 A 
ATOM      6  C   UNL d   1      23.393 -15.962  -1.285  0.00  0.00     0.030 A 
ATOM      7  C   UNL d   1      22.237 -16.582  -0.752  0.00  0.00     0.017 A 
ATOM      8  C   UNL d   1      22.187 -17.971  -0.584  0.00  0.00     0.014 A 
ATOM      9  C   UNL d   1      23.317 -18.720  -0.891  0.00  0.00     0.017 A 
ATOM     10  C   UNL d   1      24.462 -18.101  -1.395  0.00  0.00     0.030 A 
BRANCH   8  11
ATOM     11  C   UNL d   1      20.977 -18.666  -0.183  0.00  0.00     0.189 A 
ATOM     12  N   UNL d   1      20.880 -19.342   1.011  0.00  0.00    -0.203 NA
ATOM     13  C   UNL d   1      19.668 -19.849   0.955  0.00  0.00     0.180 A 
ATOM     14  O   UNL d   1      19.034 -19.588  -0.228  0.00  0.00    -0.195 OA
ATOM     15  N   UNL d   1      19.905 -18.796  -0.978  0.00  0.00    -0.106 NA
BRANCH  13  16
ATOM     16  C   UNL d   1      18.879 -20.548   2.024  0.00  0.00     0.018 C 
ATOM     17  C   UNL d   1      19.793 -20.819   3.231  0.00  0.00     0.023 C 
ATOM     18  C   UNL d   1      18.366 -21.893   1.481  0.00  0.00     0.023 C 
ATOM     19  C   UNL d   1      17.677 -19.708   2.478  0.00  0.00     0.023 C 
ENDBRANCH  13  16
ENDBRANCH   8  11
ENDBRANCH   1   5
BRANCH   2  20
ATOM     20  C   UNL d   1      27.232 -14.655  -3.457  0.00  0.00     0.309 C 
ATOM     21  O   UNL d   1      28.161 -14.684  -2.657  0.00  0.00    -0.262 OA
ATOM     22  N   UNL d   1      27.318 -14.176  -4.764  0.00  0.00    -0.353 N 
ATOM     23  H   UNL d   1      26.453 -14.228  -5.306  0.00  0.00     0.162 HD
BRANCH  22  24
ATOM     24  C   UNL d   1      28.543 -13.643  -5.321  0.00  0.00     0.125 C 
BRANCH  24  25
ATOM     25  C   UNL d   1      28.872 -14.185  -6.713  0.00  0.00     0.040 C 
BRANCH  25  26
ATOM     26  C   UNL d   1      29.480 -13.102  -7.607  0.00  0.00     0.130 C 
BRANCH  26  27
ATOM     27  N   UNL d   1      28.438 -12.265  -8.226  0.00  0.00    -0.352 N 
ATOM     28  C   UNL d   1      27.867 -12.469  -9.480  0.00  0.00     0.108 A 
ATOM     29  C   UNL d   1      26.936 -11.486  -9.658  0.00  0.00     0.106 A 
ATOM     30  N   UNL d   1      26.984 -10.703  -8.531  0.00  0.00    -0.361 N 
ATOM     31  C   UNL d   1      27.897 -11.166  -7.672  0.00  0.00     0.182 A 
ATOM     32  H   UNL d   1      26.407  -9.880  -8.362  0.00  0.00     0.166 HD
ENDBRANCH  26  27
ENDBRANCH  25  26
ENDBRANCH  24  25
ENDBRANCH  22  24
ENDBRANCH   2  20
TORSDOF 8
ENDMDL
MODEL 8
REMARK VINA RESULT:   -29.179      1.828      2.594
REMARK INTER + INTRA:         -33.592
REMARK INTER:                 -31.565
REMARK INTRA:                  -2.027
REMARK CONF_INDEPENDENT:        2.386
REMARK UNBOUND:                -2.027
REMARK  8 active torsions:
REMARK  status: ('A' for Active; 'I' for Inactive)
REMARK    1  A    between atoms: C_2  and  C_5 
REMARK    2  A    between atoms: C_7  and  C_8 
REMARK    3  A    between atoms: C_11  and  N_12 
REMARK       I    between atoms: N_12  and  C_13 
REMARK    4  A    between atoms: C_13  and  C_15 
REMARK       I    between atoms: C_15  and  N_17 
REMARK    5  A    between atoms: N_17  and  C_18 
REMARK    6  A    between atoms: C_18  and  C_19 
REMARK    7  A    between atoms: C_19  and  C_20 
REMARK    8  A    between atoms: C_20  and  N_21 
ROOT
ATOM      1  N   UNL d   1      25.817 -15.892  -1.556  0.00  0.00    -0.319 N 
ATOM      2  C   UNL d   1      27.118 -16.358  -1.341  0.00  0.00     0.313 C 
ATOM      3  O   UNL d   1      27.471 -17.432  -0.859  0.00  0.00    -0.262 OA
ATOM      4  H   UNL d   1      25.721 -14.953  -1.940  0.00  0.00     0.169 HD
ENDROOT
BRANCH   1   5
ATOM      5  C   UNL d   1      24.626 -16.590  -1.191  0.00  0.00     0.035 A 
ATOM      6  C   UNL d   1      24.644 -17.972  -0.937  0.00  0.00     0.030 A 
ATOM      7  C   UNL d   1      23.443 -18.673  -0.670  0.00  0.00     0.017 A 
ATOM      8  C   UNL d   1      22.224 -17.988  -0.579  0.00  0.00     0.014 A 
ATOM      9  C   UNL d   1      22.209 -16.619  -0.819  0.00  0.00     0.017 A 
ATOM     10  C   UNL d   1      23.394 -15.937  -1.104  0.00  0.00     0.030 A 
BRANCH   8  11
ATOM     11  C   UNL d   1      20.994 -18.637  -0.162  0.00  0.00     0.189 A 
ATOM     12  N   UNL d   1      20.911 -19.377   0.994  0.00  0.00    -0.203 NA
ATOM     13  C   UNL d   1      19.669 -19.811   0.966  0.00  0.00     0.180 A 
ATOM     14  O   UNL d   1      19.000 -19.445  -0.168  0.00  0.00    -0.195 OA
ATOM     15  N   UNL d   1      19.882 -18.659  -0.911  0.00  0.00    -0.106 NA
BRANCH  13  16
ATOM     16  C   UNL d   1      18.889 -20.529   2.030  0.00  0.00     0.018 C 
ATOM     17  C   UNL d   1      19.802 -20.785   3.241  0.00  0.00     0.023 C 
ATOM     18  C   UNL d   1      18.406 -21.882   1.480  0.00  0.00     0.023 C 
ATOM     19  C   UNL d   1      17.668 -19.713   2.480  0.00  0.00     0.023 C 
ENDBRANCH  13  16
ENDBRANCH   8  11
ENDBRANCH   1   5
BRANCH   2  20
ATOM     20  C   UNL d   1      28.279 -15.418  -1.743  0.00  0.00     0.309 C 
ATOM     21  O   UNL d   1      28.080 -14.396  -2.390  0.00  0.00    -0.262 OA
ATOM     22  N   UNL d   1      29.528 -15.853  -1.300  0.00  0.00    -0.353 N 
ATOM     23  H   UNL d   1      29.523 -16.723  -0.765  0.00  0.00     0.162 HD
BRANCH  22  24
ATOM     24  C   UNL d   1      30.750 -15.126  -1.575  0.00  0.00     0.125 C 
BRANCH  24  25
ATOM     25  C   UNL d   1      30.794 -14.505  -2.972  0.00  0.00     0.040 C 
BRANCH  25  26
ATOM     26  C   UNL d   1      30.872 -15.578  -4.061  0.00  0.00     0.130 C 
BRANCH  26  27
ATOM     27  N   UNL d   1      29.975 -15.270  -5.188  0.00  0.00    -0.352 N 
ATOM     28  C   UNL d   1      28.600 -15.065  -5.103  0.00  0.00     0.108 A 
ATOM     29  C   UNL d   1      28.159 -14.789  -6.365  0.00  0.00     0.106 A 
ATOM     30  N   UNL d   1      29.262 -14.858  -7.181  0.00  0.00    -0.361 N 
ATOM     31  C   UNL d   1      30.356 -15.159  -6.473  0.00  0.00     0.182 A 
ATOM     32  H   UNL d   1      29.258 -14.703  -8.187  0.00  0.00     0.166 HD
ENDBRANCH  26  27
ENDBRANCH  25  26
ENDBRANCH  24  25
ENDBRANCH  22  24
ENDBRANCH   2  20
TORSDOF 8
ENDMDL
MODEL 9
REMARK VINA RESULT:   -28.748      3.524      4.400
REMARK INTER + INTRA:         -33.338
REMARK INTER:                 -31.135
REMARK INTRA:                  -2.204
REMARK CONF_INDEPENDENT:        2.386
REMARK UNBOUND:                -2.204
REMARK  8 active torsions:
REMARK  status: ('A' for Active; 'I' for Inactive)
REMARK    1  A    between atoms: C_2  and  C_5 
REMARK    2  A    between atoms: C_7  and  C_8 
REMARK    3  A    between atoms: C_11  and  N_12 
REMARK       I    between atoms: N_12  and  C_13 
REMARK    4  A    between atoms: C_13  and  C_15 
REMARK       I    between atoms: C_15  and  N_17 
REMARK    5  A    between atoms: N_17  and  C_18 
REMARK    6  A    between atoms: C_18  and  C_19 
REMARK    7  A    between atoms: C_19  and  C_20 
REMARK    8  A    between atoms: C_20  and  N_21 
ROOT
ATOM      1  N   UNL d   1      25.829 -16.120  -1.688  0.00  0.00    -0.319 N 
ATOM      2  C   UNL d   1      26.535 -15.223  -0.880  0.00  0.00     0.313 C 
ATOM      3  O   UNL d   1      26.297 -14.895   0.280  0.00  0.00    -0.262 OA
ATOM      4  H   UNL d   1      26.161 -16.240  -2.643  0.00  0.00     0.169 HD
ENDROOT
BRANCH   1   5
ATOM      5  C   UNL d   1      24.632 -16.799  -1.305  0.00  0.00     0.035 A 
ATOM      6  C   UNL d   1      24.629 -18.181  -1.052  0.00  0.00     0.030 A 
ATOM      7  C   UNL d   1      23.421 -18.861  -0.768  0.00  0.00     0.017 A 
ATOM      8  C   UNL d   1      22.216 -18.156  -0.657  0.00  0.00     0.014 A 
ATOM      9  C   UNL d   1      22.221 -16.787  -0.895  0.00  0.00     0.017 A 
ATOM     10  C   UNL d   1      23.412 -16.124  -1.198  0.00  0.00     0.030 A 
BRANCH   8  11
ATOM     11  C   UNL d   1      20.981 -18.784  -0.221  0.00  0.00     0.189 A 
ATOM     12  N   UNL d   1      20.886 -19.466   0.969  0.00  0.00    -0.203 NA
ATOM     13  C   UNL d   1      19.645 -19.902   0.949  0.00  0.00     0.180 A 
ATOM     14  O   UNL d   1      18.988 -19.593  -0.208  0.00  0.00    -0.195 OA
ATOM     15  N   UNL d   1      19.878 -18.844  -0.981  0.00  0.00    -0.106 NA
BRANCH  13  16
ATOM     16  C   UNL d   1      18.853 -20.566   2.039  0.00  0.00     0.018 C 
ATOM     17  C   UNL d   1      19.770 -20.822   3.247  0.00  0.00     0.023 C 
ATOM     18  C   UNL d   1      18.320 -21.916   1.529  0.00  0.00     0.023 C 
ATOM     19  C   UNL d   1      17.664 -19.700   2.480  0.00  0.00     0.023 C 
ENDBRANCH  13  16
ENDBRANCH   8  11
ENDBRANCH   1   5
BRANCH   2  20
ATOM     20  C   UNL d   1      27.771 -14.534  -1.505  0.00  0.00     0.309 C 
ATOM     21  O   UNL d   1      28.276 -14.947  -2.544  0.00  0.00    -0.262 OA
ATOM     22  N   UNL d   1      28.224 -13.434  -0.778  0.00  0.00    -0.353 N 
ATOM     23  H   UNL d   1      27.688 -13.215   0.063  0.00  0.00     0.162 HD
BRANCH  22  24
ATOM     24  C   UNL d   1      29.374 -12.651  -1.182  0.00  0.00     0.125 C 
BRANCH  24  25
ATOM     25  C   UNL d   1      29.081 -11.157  -1.323  0.00  0.00     0.040 C 
BRANCH  25  26
ATOM     26  C   UNL d   1      27.579 -10.890  -1.447  0.00  0.00     0.130 C 
BRANCH  26  27
ATOM     27  N   UNL d   1      27.073 -11.261  -2.780  0.00  0.00    -0.352 N 
ATOM     28  C   UNL d   1      27.790 -11.935  -3.766  0.00  0.00     0.108 A 
ATOM     29  C   UNL d   1      26.950 -12.096  -4.830  0.00  0.00     0.106 A 
ATOM     30  N   UNL d   1      25.764 -11.498  -4.477  0.00  0.00    -0.361 N 
ATOM     31  C   UNL d   1      25.842 -10.985  -3.245  0.00  0.00     0.182 A 
ATOM     32  H   UNL d   1      24.935 -11.447  -5.066  0.00  0.00     0.166 HD
ENDBRANCH  26  27
ENDBRANCH  25  26
ENDBRANCH  24  25
ENDBRANCH  22  24
ENDBRANCH   2  20
TORSDOF 8
ENDMDL
