MODEL 1
REMARK VINA RESULT:    -8.200      0.000      0.000
REMARK INTER + INTRA:         -14.399
REMARK INTER:                 -10.885
REMARK INTRA:                  -3.515
REMARK CONF_INDEPENDENT:        2.685
REMARK UNBOUND:                -3.515
REMARK  9 active torsions:
REMARK  status: ('A' for Active; 'I' for Inactive)
REMARK    1  A    between atoms: O_2  and  C_3 
REMARK    2  A    between atoms: C_6  and  N_7 
REMARK       I    between atoms: N_7  and  C_8 
REMARK    3  A    between atoms: C_8  and  C_10 
REMARK    4  A    between atoms: C_10  and  S_11 
REMARK    5  A    between atoms: S_11  and  C_12 
REMARK    6  A    between atoms: C_15  and  C_16 
REMARK    7  A    between atoms: C_21  and  O_22 
REMARK    8  A    between atoms: N_23  and  C_24 
REMARK    9  A    between atoms: C_30  and  O_31 
ROOT
ATOM      1  C   UNL d   1      27.570 -13.506   0.171  0.00  0.00     0.197 A 
ATOM      2  N   UNL d   1      27.953 -14.769   0.134  0.00  0.00    -0.122 NA
ATOM      3  N   UNL d   1      28.458 -15.112   1.378  0.00  0.00    -0.128 NA
ATOM      4  C   UNL d   1      28.335 -14.061   2.166  0.00  0.00     0.172 A 
ATOM      5  N   UNL d   1      27.823 -13.010   1.419  0.00  0.00    -0.271 N 
ENDROOT
BRANCH   1   6
ATOM      6  S   UNL d   1      26.920 -12.654  -1.190  0.00  0.00    -0.080 SA
BRANCH   6   7
ATOM      7  C   UNL d   1      26.773 -13.736  -2.705  0.00  0.00     0.185 C 
BRANCH   7   8
ATOM      8  C   UNL d   1      25.612 -14.705  -2.509  0.00  0.00     0.232 C 
ATOM      9  N   UNL d   1      25.587 -15.496  -1.342  0.00  0.00    -0.324 N 
ATOM     10  H   UNL d   1      26.422 -15.524  -0.764  0.00  0.00     0.169 HD
ATOM     11  O   UNL d   1      24.850 -14.828  -3.478  0.00  0.00    -0.272 OA
BRANCH   9  12
ATOM     12  C   UNL d   1      24.557 -16.466  -1.005  0.00  0.00     0.068 A 
ATOM     13  C   UNL d   1      23.196 -16.196  -1.270  0.00  0.00     0.035 A 
ATOM     14  C   UNL d   1      22.176 -17.092  -0.850  0.00  0.00     0.039 A 
ATOM     15  C   UNL d   1      22.498 -18.271  -0.181  0.00  0.00     0.070 A 
ATOM     16  C   UNL d   1      23.831 -18.578  -0.001  0.00  0.00     0.075 A 
ATOM     17  C   UNL d   1      24.840 -17.719  -0.430  0.00  0.00     0.097 A 
BRANCH  15  18
ATOM     18  O   UNL d   1      21.506 -19.147   0.172  0.00  0.00    -0.356 OA
ATOM     19  C   UNL d   1      20.462 -19.272  -0.803  0.00  0.00     0.210 C 
ENDBRANCH  15  18
BRANCH  17  20
ATOM     20  O   UNL d   1      26.118 -18.172  -0.464  0.00  0.00    -0.354 OA
ATOM     21  C   UNL d   1      27.031 -17.843   0.562  0.00  0.00     0.210 C 
ENDBRANCH  17  20
ENDBRANCH   9  12
ENDBRANCH   7   8
ENDBRANCH   6   7
ENDBRANCH   1   6
BRANCH   5  22
ATOM     22  C   UNL d   1      27.599 -11.726   1.921  0.00  0.00     0.043 A 
ATOM     23  C   UNL d   1      26.280 -11.312   2.104  0.00  0.00     0.030 A 
ATOM     24  C   UNL d   1      26.047  -9.989   2.434  0.00  0.00     0.002 A 
ATOM     25  C   UNL d   1      27.123  -9.130   2.674  0.00  0.00     0.000 A 
ATOM     26  C   UNL d   1      28.439  -9.560   2.495  0.00  0.00     0.002 A 
ATOM     27  C   UNL d   1      28.682 -10.856   2.065  0.00  0.00     0.030 A 
ENDBRANCH   5  22
BRANCH   4  28
ATOM     28  C   UNL d   1      28.569 -13.974   3.613  0.00  0.00     0.045 A 
ATOM     29  C   UNL d   1      27.564 -13.521   4.475  0.00  0.00     0.018 A 
ATOM     30  C   UNL d   1      27.781 -13.497   5.857  0.00  0.00     0.001 A 
ATOM     31  C   UNL d   1      28.962 -14.009   6.396  0.00  0.00     0.003 A 
ATOM     32  C   UNL d   1      29.957 -14.499   5.557  0.00  0.00     0.037 A 
ATOM     33  C   UNL d   1      29.769 -14.451   4.178  0.00  0.00     0.079 A 
BRANCH  33  34
ATOM     34  O   UNL d   1      30.772 -14.896   3.355  0.00  0.00    -0.360 OA
ATOM     35  H   UNL d   1      30.389 -15.422   2.635  0.00  0.00     0.217 HD
ENDBRANCH  33  34
ENDBRANCH   4  28
TORSDOF 9
ENDMDL
MODEL 2
REMARK VINA RESULT:    -7.437      1.752      2.970
REMARK INTER + INTRA:         -13.621
REMARK INTER:                 -10.122
REMARK INTRA:                  -3.499
REMARK CONF_INDEPENDENT:        2.685
REMARK UNBOUND:                -3.499
REMARK  9 active torsions:
REMARK  status: ('A' for Active; 'I' for Inactive)
REMARK    1  A    between atoms: O_2  and  C_3 
REMARK    2  A    between atoms: C_6  and  N_7 
REMARK       I    between atoms: N_7  and  C_8 
REMARK    3  A    between atoms: C_8  and  C_10 
REMARK    4  A    between atoms: C_10  and  S_11 
REMARK    5  A    between atoms: S_11  and  C_12 
REMARK    6  A    between atoms: C_15  and  C_16 
REMARK    7  A    between atoms: C_21  and  O_22 
REMARK    8  A    between atoms: N_23  and  C_24 
REMARK    9  A    between atoms: C_30  and  O_31 
ROOT
ATOM      1  C   UNL d   1      27.538 -13.634   0.103  0.00  0.00     0.197 A 
ATOM      2  N   UNL d   1      26.336 -13.208   0.449  0.00  0.00    -0.122 NA
ATOM      3  N   UNL d   1      26.242 -13.232   1.830  0.00  0.00    -0.128 NA
ATOM      4  C   UNL d   1      27.406 -13.632   2.306  0.00  0.00     0.172 A 
ATOM      5  N   UNL d   1      28.233 -13.946   1.237  0.00  0.00    -0.271 N 
ENDROOT
BRANCH   1   6
ATOM      6  S   UNL d   1      28.065 -13.809  -1.538  0.00  0.00    -0.080 SA
BRANCH   6   7
ATOM      7  C   UNL d   1      26.686 -13.523  -2.764  0.00  0.00     0.185 C 
BRANCH   7   8
ATOM      8  C   UNL d   1      25.649 -14.630  -2.608  0.00  0.00     0.232 C 
ATOM      9  N   UNL d   1      25.529 -15.264  -1.354  0.00  0.00    -0.324 N 
ATOM     10  H   UNL d   1      26.247 -15.090  -0.658  0.00  0.00     0.169 HD
ATOM     11  O   UNL d   1      25.090 -14.989  -3.653  0.00  0.00    -0.272 OA
BRANCH   9  12
ATOM     12  C   UNL d   1      24.596 -16.335  -1.040  0.00  0.00     0.068 A 
ATOM     13  C   UNL d   1      23.211 -16.175  -1.266  0.00  0.00     0.035 A 
ATOM     14  C   UNL d   1      22.282 -17.175  -0.865  0.00  0.00     0.039 A 
ATOM     15  C   UNL d   1      22.722 -18.347  -0.255  0.00  0.00     0.070 A 
ATOM     16  C   UNL d   1      24.081 -18.543  -0.115  0.00  0.00     0.075 A 
ATOM     17  C   UNL d   1      25.000 -17.581  -0.526  0.00  0.00     0.097 A 
BRANCH  15  18
ATOM     18  O   UNL d   1      21.819 -19.322   0.079  0.00  0.00    -0.356 OA
ATOM     19  C   UNL d   1      20.641 -19.332  -0.738  0.00  0.00     0.210 C 
ENDBRANCH  15  18
BRANCH  17  20
ATOM     20  O   UNL d   1      26.312 -17.917  -0.606  0.00  0.00    -0.354 OA
ATOM     21  C   UNL d   1      27.200 -17.627   0.453  0.00  0.00     0.210 C 
ENDBRANCH  17  20
ENDBRANCH   9  12
ENDBRANCH   7   8
ENDBRANCH   6   7
ENDBRANCH   1   6
BRANCH   5  22
ATOM     22  C   UNL d   1      29.531 -14.443   1.368  0.00  0.00     0.043 A 
ATOM     23  C   UNL d   1      30.446 -13.706   2.118  0.00  0.00     0.030 A 
ATOM     24  C   UNL d   1      31.772 -14.101   2.109  0.00  0.00     0.002 A 
ATOM     25  C   UNL d   1      32.148 -15.270   1.442  0.00  0.00     0.000 A 
ATOM     26  C   UNL d   1      31.219 -16.004   0.702  0.00  0.00     0.002 A 
ATOM     27  C   UNL d   1      29.907 -15.562   0.620  0.00  0.00     0.030 A 
ENDBRANCH   5  22
BRANCH   4  28
ATOM     28  C   UNL d   1      27.859 -13.661   3.703  0.00  0.00     0.045 A 
ATOM     29  C   UNL d   1      28.366 -14.838   4.266  0.00  0.00     0.018 A 
ATOM     30  C   UNL d   1      28.848 -14.837   5.581  0.00  0.00     0.001 A 
ATOM     31  C   UNL d   1      28.913 -13.648   6.309  0.00  0.00     0.003 A 
ATOM     32  C   UNL d   1      28.450 -12.461   5.751  0.00  0.00     0.037 A 
ATOM     33  C   UNL d   1      27.901 -12.480   4.471  0.00  0.00     0.079 A 
BRANCH  33  34
ATOM     34  O   UNL d   1      27.406 -11.315   3.943  0.00  0.00    -0.360 OA
ATOM     35  H   UNL d   1      26.770 -11.523   3.241  0.00  0.00     0.217 HD
ENDBRANCH  33  34
ENDBRANCH   4  28
TORSDOF 9
ENDMDL
MODEL 3
REMARK VINA RESULT:    -7.003      2.213      7.471
REMARK INTER + INTRA:         -13.523
REMARK INTER:                  -9.687
REMARK INTRA:                  -3.835
REMARK CONF_INDEPENDENT:        2.685
REMARK UNBOUND:                -3.835
REMARK  9 active torsions:
REMARK  status: ('A' for Active; 'I' for Inactive)
REMARK    1  A    between atoms: O_2  and  C_3 
REMARK    2  A    between atoms: C_6  and  N_7 
REMARK       I    between atoms: N_7  and  C_8 
REMARK    3  A    between atoms: C_8  and  C_10 
REMARK    4  A    between atoms: C_10  and  S_11 
REMARK    5  A    between atoms: S_11  and  C_12 
REMARK    6  A    between atoms: C_15  and  C_16 
REMARK    7  A    between atoms: C_21  and  O_22 
REMARK    8  A    between atoms: N_23  and  C_24 
REMARK    9  A    between atoms: C_30  and  O_31 
ROOT
ATOM      1  C   UNL d   1      28.239 -15.280  -0.428  0.00  0.00     0.197 A 
ATOM      2  N   UNL d   1      28.401 -15.966   0.690  0.00  0.00    -0.122 NA
ATOM      3  N   UNL d   1      27.217 -16.624   0.977  0.00  0.00    -0.128 NA
ATOM      4  C   UNL d   1      26.364 -16.362   0.006  0.00  0.00     0.172 A 
ATOM      5  N   UNL d   1      26.962 -15.471  -0.875  0.00  0.00    -0.271 N 
ENDROOT
BRANCH   1   6
ATOM      6  S   UNL d   1      29.461 -14.272  -1.127  0.00  0.00    -0.080 SA
BRANCH   6   7
ATOM      7  C   UNL d   1      30.970 -14.119  -0.038  0.00  0.00     0.185 C 
BRANCH   7   8
ATOM      8  C   UNL d   1      30.544 -13.577   1.322  0.00  0.00     0.232 C 
ATOM      9  N   UNL d   1      29.913 -14.456   2.227  0.00  0.00    -0.324 N 
ATOM     10  H   UNL d   1      29.606 -15.360   1.882  0.00  0.00     0.169 HD
ATOM     11  O   UNL d   1      30.654 -12.352   1.467  0.00  0.00    -0.272 OA
BRANCH   9  12
ATOM     12  C   UNL d   1      29.445 -14.099   3.557  0.00  0.00     0.068 A 
ATOM     13  C   UNL d   1      30.358 -13.731   4.570  0.00  0.00     0.035 A 
ATOM     14  C   UNL d   1      29.919 -13.483   5.899  0.00  0.00     0.039 A 
ATOM     15  C   UNL d   1      28.569 -13.579   6.230  0.00  0.00     0.070 A 
ATOM     16  C   UNL d   1      27.666 -13.850   5.222  0.00  0.00     0.075 A 
ATOM     17  C   UNL d   1      28.083 -14.071   3.912  0.00  0.00     0.097 A 
BRANCH  15  18
ATOM     18  O   UNL d   1      28.156 -13.288   7.503  0.00  0.00    -0.356 OA
ATOM     19  C   UNL d   1      29.096 -13.658   8.521  0.00  0.00     0.210 C 
ENDBRANCH  15  18
BRANCH  17  20
ATOM     20  O   UNL d   1      27.158 -14.079   2.919  0.00  0.00    -0.354 OA
ATOM     21  C   UNL d   1      27.065 -13.005   2.007  0.00  0.00     0.210 C 
ENDBRANCH  17  20
ENDBRANCH   9  12
ENDBRANCH   7   8
ENDBRANCH   6   7
ENDBRANCH   1   6
BRANCH   5  22
ATOM     22  C   UNL d   1      26.334 -14.941  -2.004  0.00  0.00     0.043 A 
ATOM     23  C   UNL d   1      26.208 -15.754  -3.129  0.00  0.00     0.030 A 
ATOM     24  C   UNL d   1      25.745 -15.185  -4.302  0.00  0.00     0.002 A 
ATOM     25  C   UNL d   1      25.323 -13.852  -4.312  0.00  0.00     0.000 A 
ATOM     26  C   UNL d   1      25.447 -13.052  -3.175  0.00  0.00     0.002 A 
ATOM     27  C   UNL d   1      26.004 -13.584  -2.022  0.00  0.00     0.030 A 
ENDBRANCH   5  22
BRANCH   4  28
ATOM     28  C   UNL d   1      25.041 -16.954  -0.232  0.00  0.00     0.045 A 
ATOM     29  C   UNL d   1      23.943 -16.148  -0.552  0.00  0.00     0.018 A 
ATOM     30  C   UNL d   1      22.701 -16.730  -0.833  0.00  0.00     0.001 A 
ATOM     31  C   UNL d   1      22.568 -18.118  -0.887  0.00  0.00     0.003 A 
ATOM     32  C   UNL d   1      23.659 -18.936  -0.609  0.00  0.00     0.037 A 
ATOM     33  C   UNL d   1      24.873 -18.353  -0.256  0.00  0.00     0.079 A 
BRANCH  33  34
ATOM     34  O   UNL d   1      25.933 -19.166   0.058  0.00  0.00    -0.360 OA
ATOM     35  H   UNL d   1      26.598 -18.654   0.545  0.00  0.00     0.217 HD
ENDBRANCH  33  34
ENDBRANCH   4  28
TORSDOF 9
ENDMDL
MODEL 4
REMARK VINA RESULT:    -6.766      3.812      7.163
REMARK INTER + INTRA:         -13.709
REMARK INTER:                  -9.451
REMARK INTRA:                  -4.258
REMARK CONF_INDEPENDENT:        2.685
REMARK UNBOUND:                -4.258
REMARK  9 active torsions:
REMARK  status: ('A' for Active; 'I' for Inactive)
REMARK    1  A    between atoms: O_2  and  C_3 
REMARK    2  A    between atoms: C_6  and  N_7 
REMARK       I    between atoms: N_7  and  C_8 
REMARK    3  A    between atoms: C_8  and  C_10 
REMARK    4  A    between atoms: C_10  and  S_11 
REMARK    5  A    between atoms: S_11  and  C_12 
REMARK    6  A    between atoms: C_15  and  C_16 
REMARK    7  A    between atoms: C_21  and  O_22 
REMARK    8  A    between atoms: N_23  and  C_24 
REMARK    9  A    between atoms: C_30  and  O_31 
ROOT
ATOM      1  C   UNL d   1      25.655 -13.488  -3.323  0.00  0.00     0.197 A 
ATOM      2  N   UNL d   1      25.055 -14.325  -4.150  0.00  0.00    -0.122 NA
ATOM      3  N   UNL d   1      25.155 -15.604  -3.630  0.00  0.00    -0.128 NA
ATOM      4  C   UNL d   1      25.780 -15.520  -2.471  0.00  0.00     0.172 A 
ATOM      5  N   UNL d   1      26.157 -14.200  -2.270  0.00  0.00    -0.271 N 
ENDROOT
BRANCH   1   6
ATOM      6  S   UNL d   1      25.805 -11.786  -3.612  0.00  0.00    -0.080 SA
BRANCH   6   7
ATOM      7  C   UNL d   1      25.941 -11.381  -5.429  0.00  0.00     0.185 C 
BRANCH   7   8
ATOM      8  C   UNL d   1      27.249 -11.954  -5.966  0.00  0.00     0.232 C 
ATOM      9  N   UNL d   1      27.507 -13.327  -5.775  0.00  0.00    -0.324 N 
ATOM     10  H   UNL d   1      26.907 -13.844  -5.140  0.00  0.00     0.169 HD
ATOM     11  O   UNL d   1      28.057 -11.123  -6.402  0.00  0.00    -0.272 OA
BRANCH   9  12
ATOM     12  C   UNL d   1      28.702 -14.027  -6.221  0.00  0.00     0.068 A 
ATOM     13  C   UNL d   1      29.666 -13.374  -7.020  0.00  0.00     0.035 A 
ATOM     14  C   UNL d   1      30.782 -14.079  -7.547  0.00  0.00     0.039 A 
ATOM     15  C   UNL d   1      30.961 -15.433  -7.270  0.00  0.00     0.070 A 
ATOM     16  C   UNL d   1      30.068 -16.050  -6.417  0.00  0.00     0.075 A 
ATOM     17  C   UNL d   1      28.985 -15.362  -5.876  0.00  0.00     0.097 A 
BRANCH  15  18
ATOM     18  O   UNL d   1      32.068 -16.085  -7.744  0.00  0.00    -0.356 OA
ATOM     19  C   UNL d   1      31.962 -17.515  -7.714  0.00  0.00     0.210 C 
ENDBRANCH  15  18
BRANCH  17  20
ATOM     20  O   UNL d   1      28.291 -15.926  -4.857  0.00  0.00    -0.354 OA
ATOM     21  C   UNL d   1      28.843 -16.001  -3.559  0.00  0.00     0.210 C 
ENDBRANCH  17  20
ENDBRANCH   9  12
ENDBRANCH   7   8
ENDBRANCH   6   7
ENDBRANCH   1   6
BRANCH   5  22
ATOM     22  C   UNL d   1      26.876 -13.748  -1.162  0.00  0.00     0.043 A 
ATOM     23  C   UNL d   1      28.218 -13.415  -1.340  0.00  0.00     0.030 A 
ATOM     24  C   UNL d   1      28.979 -13.135  -0.219  0.00  0.00     0.002 A 
ATOM     25  C   UNL d   1      28.376 -13.091   1.041  0.00  0.00     0.000 A 
ATOM     26  C   UNL d   1      27.029 -13.418   1.203  0.00  0.00     0.002 A 
ATOM     27  C   UNL d   1      26.280 -13.800   0.100  0.00  0.00     0.030 A 
ENDBRANCH   5  22
BRANCH   4  28
ATOM     28  C   UNL d   1      25.980 -16.571  -1.464  0.00  0.00     0.045 A 
ATOM     29  C   UNL d   1      27.245 -16.798  -0.910  0.00  0.00     0.018 A 
ATOM     30  C   UNL d   1      27.411 -17.763   0.091  0.00  0.00     0.001 A 
ATOM     31  C   UNL d   1      26.306 -18.442   0.608  0.00  0.00     0.003 A 
ATOM     32  C   UNL d   1      25.035 -18.200   0.096  0.00  0.00     0.037 A 
ATOM     33  C   UNL d   1      24.885 -17.294  -0.951  0.00  0.00     0.079 A 
BRANCH  33  34
ATOM     34  O   UNL d   1      23.636 -17.093  -1.481  0.00  0.00    -0.360 OA
ATOM     35  H   UNL d   1      23.714 -16.606  -2.317  0.00  0.00     0.217 HD
ENDBRANCH  33  34
ENDBRANCH   4  28
TORSDOF 9
ENDMDL
MODEL 5
REMARK VINA RESULT:    -6.622      3.544      6.551
REMARK INTER + INTRA:         -13.633
REMARK INTER:                  -9.306
REMARK INTRA:                  -4.327
REMARK CONF_INDEPENDENT:        2.685
REMARK UNBOUND:                -4.327
REMARK  9 active torsions:
REMARK  status: ('A' for Active; 'I' for Inactive)
REMARK    1  A    between atoms: O_2  and  C_3 
REMARK    2  A    between atoms: C_6  and  N_7 
REMARK       I    between atoms: N_7  and  C_8 
REMARK    3  A    between atoms: C_8  and  C_10 
REMARK    4  A    between atoms: C_10  and  S_11 
REMARK    5  A    between atoms: S_11  and  C_12 
REMARK    6  A    between atoms: C_15  and  C_16 
REMARK    7  A    between atoms: C_21  and  O_22 
REMARK    8  A    between atoms: N_23  and  C_24 
REMARK    9  A    between atoms: C_30  and  O_31 
ROOT
ATOM      1  C   UNL d   1      25.637 -13.584  -3.347  0.00  0.00     0.197 A 
ATOM      2  N   UNL d   1      25.092 -14.450  -4.183  0.00  0.00    -0.122 NA
ATOM      3  N   UNL d   1      25.208 -15.718  -3.638  0.00  0.00    -0.128 NA
ATOM      4  C   UNL d   1      25.785 -15.598  -2.458  0.00  0.00     0.172 A 
ATOM      5  N   UNL d   1      26.117 -14.265  -2.264  0.00  0.00    -0.271 N 
ENDROOT
BRANCH   1   6
ATOM      6  S   UNL d   1      25.751 -11.884  -3.658  0.00  0.00    -0.080 SA
BRANCH   6   7
ATOM      7  C   UNL d   1      26.726 -11.505  -5.205  0.00  0.00     0.185 C 
BRANCH   7   8
ATOM      8  C   UNL d   1      27.901 -12.472  -5.296  0.00  0.00     0.232 C 
ATOM      9  N   UNL d   1      27.628 -13.848  -5.440  0.00  0.00    -0.324 N 
ATOM     10  H   UNL d   1      26.673 -14.164  -5.300  0.00  0.00     0.169 HD
ATOM     11  O   UNL d   1      29.017 -11.979  -5.084  0.00  0.00    -0.272 OA
BRANCH   9  12
ATOM     12  C   UNL d   1      28.629 -14.898  -5.539  0.00  0.00     0.068 A 
ATOM     13  C   UNL d   1      29.280 -15.164  -6.764  0.00  0.00     0.035 A 
ATOM     14  C   UNL d   1      30.182 -16.255  -6.895  0.00  0.00     0.039 A 
ATOM     15  C   UNL d   1      30.460 -17.079  -5.808  0.00  0.00     0.070 A 
ATOM     16  C   UNL d   1      29.895 -16.767  -4.588  0.00  0.00     0.075 A 
ATOM     17  C   UNL d   1      29.028 -15.686  -4.443  0.00  0.00     0.097 A 
BRANCH  15  18
ATOM     18  O   UNL d   1      31.370 -18.095  -5.937  0.00  0.00    -0.356 OA
ATOM     19  C   UNL d   1      30.781 -19.381  -6.175  0.00  0.00     0.210 C 
ENDBRANCH  15  18
BRANCH  17  20
ATOM     20  O   UNL d   1      28.703 -15.267  -3.194  0.00  0.00    -0.354 OA
ATOM     21  C   UNL d   1      29.686 -15.164  -2.185  0.00  0.00     0.210 C 
ENDBRANCH  17  20
ENDBRANCH   9  12
ENDBRANCH   7   8
ENDBRANCH   6   7
ENDBRANCH   1   6
BRANCH   5  22
ATOM     22  C   UNL d   1      26.781 -13.776  -1.137  0.00  0.00     0.043 A 
ATOM     23  C   UNL d   1      26.280 -14.114   0.119  0.00  0.00     0.030 A 
ATOM     24  C   UNL d   1      26.824 -13.496   1.231  0.00  0.00     0.002 A 
ATOM     25  C   UNL d   1      27.916 -12.635   1.086  0.00  0.00     0.000 A 
ATOM     26  C   UNL d   1      28.413 -12.313  -0.178  0.00  0.00     0.002 A 
ATOM     27  C   UNL d   1      27.810 -12.847  -1.306  0.00  0.00     0.030 A 
ENDBRANCH   5  22
BRANCH   4  28
ATOM     28  C   UNL d   1      25.976 -16.627  -1.427  0.00  0.00     0.045 A 
ATOM     29  C   UNL d   1      27.246 -16.882  -0.897  0.00  0.00     0.018 A 
ATOM     30  C   UNL d   1      27.405 -17.825   0.126  0.00  0.00     0.001 A 
ATOM     31  C   UNL d   1      26.291 -18.450   0.689  0.00  0.00     0.003 A 
ATOM     32  C   UNL d   1      25.017 -18.180   0.201  0.00  0.00     0.037 A 
ATOM     33  C   UNL d   1      24.870 -17.299  -0.867  0.00  0.00     0.079 A 
BRANCH  33  34
ATOM     34  O   UNL d   1      23.616 -17.070  -1.372  0.00  0.00    -0.360 OA
ATOM     35  H   UNL d   1      23.689 -16.607  -2.222  0.00  0.00     0.217 HD
ENDBRANCH  33  34
ENDBRANCH   4  28
TORSDOF 9
ENDMDL
MODEL 6
REMARK VINA RESULT:    -6.541      3.560      6.819
REMARK INTER + INTRA:         -13.593
REMARK INTER:                  -9.225
REMARK INTRA:                  -4.367
REMARK CONF_INDEPENDENT:        2.685
REMARK UNBOUND:                -4.367
REMARK  9 active torsions:
REMARK  status: ('A' for Active; 'I' for Inactive)
REMARK    1  A    between atoms: O_2  and  C_3 
REMARK    2  A    between atoms: C_6  and  N_7 
REMARK       I    between atoms: N_7  and  C_8 
REMARK    3  A    between atoms: C_8  and  C_10 
REMARK    4  A    between atoms: C_10  and  S_11 
REMARK    5  A    between atoms: S_11  and  C_12 
REMARK    6  A    between atoms: C_15  and  C_16 
REMARK    7  A    between atoms: C_21  and  O_22 
REMARK    8  A    between atoms: N_23  and  C_24 
REMARK    9  A    between atoms: C_30  and  O_31 
ROOT
ATOM      1  C   UNL d   1      25.510 -13.431  -3.278  0.00  0.00     0.197 A 
ATOM      2  N   UNL d   1      24.949 -14.284  -4.117  0.00  0.00    -0.122 NA
ATOM      3  N   UNL d   1      25.155 -15.568  -3.642  0.00  0.00    -0.128 NA
ATOM      4  C   UNL d   1      25.803 -15.474  -2.497  0.00  0.00     0.172 A 
ATOM      5  N   UNL d   1      26.089 -14.137  -2.262  0.00  0.00    -0.271 N 
ENDROOT
BRANCH   1   6
ATOM      6  S   UNL d   1      25.529 -11.715  -3.515  0.00  0.00    -0.080 SA
BRANCH   6   7
ATOM      7  C   UNL d   1      26.935 -11.162  -4.611  0.00  0.00     0.185 C 
BRANCH   7   8
ATOM      8  C   UNL d   1      27.977 -12.274  -4.676  0.00  0.00     0.232 C 
ATOM      9  N   UNL d   1      27.584 -13.534  -5.171  0.00  0.00    -0.324 N 
ATOM     10  H   UNL d   1      26.592 -13.710  -5.299  0.00  0.00     0.169 HD
ATOM     11  O   UNL d   1      29.064 -12.018  -4.140  0.00  0.00    -0.272 OA
BRANCH   9  12
ATOM     12  C   UNL d   1      28.450 -14.696  -5.296  0.00  0.00     0.068 A 
ATOM     13  C   UNL d   1      28.650 -15.569  -4.204  0.00  0.00     0.035 A 
ATOM     14  C   UNL d   1      29.575 -16.645  -4.285  0.00  0.00     0.039 A 
ATOM     15  C   UNL d   1      30.295 -16.876  -5.455  0.00  0.00     0.070 A 
ATOM     16  C   UNL d   1      30.034 -16.079  -6.551  0.00  0.00     0.075 A 
ATOM     17  C   UNL d   1      29.113 -15.036  -6.491  0.00  0.00     0.097 A 
BRANCH  15  18
ATOM     18  O   UNL d   1      31.144 -17.948  -5.533  0.00  0.00    -0.356 OA
ATOM     19  C   UNL d   1      30.780 -18.911  -6.531  0.00  0.00     0.210 C 
ENDBRANCH  15  18
BRANCH  17  20
ATOM     20  O   UNL d   1      28.705 -14.451  -7.644  0.00  0.00    -0.354 OA
ATOM     21  C   UNL d   1      29.002 -13.097  -7.915  0.00  0.00     0.210 C 
ENDBRANCH  17  20
ENDBRANCH   9  12
ENDBRANCH   7   8
ENDBRANCH   6   7
ENDBRANCH   1   6
BRANCH   5  22
ATOM     22  C   UNL d   1      26.804 -13.669  -1.158  0.00  0.00     0.043 A 
ATOM     23  C   UNL d   1      28.088 -13.169  -1.369  0.00  0.00     0.030 A 
ATOM     24  C   UNL d   1      28.865 -12.866  -0.265  0.00  0.00     0.002 A 
ATOM     25  C   UNL d   1      28.322 -12.968   1.019  0.00  0.00     0.000 A 
ATOM     26  C   UNL d   1      27.032 -13.462   1.216  0.00  0.00     0.002 A 
ATOM     27  C   UNL d   1      26.280 -13.865   0.122  0.00  0.00     0.030 A 
ENDBRANCH   5  22
BRANCH   4  28
ATOM     28  C   UNL d   1      26.106 -16.538  -1.530  0.00  0.00     0.045 A 
ATOM     29  C   UNL d   1      27.419 -16.762  -1.100  0.00  0.00     0.018 A 
ATOM     30  C   UNL d   1      27.685 -17.741  -0.135  0.00  0.00     0.001 A 
ATOM     31  C   UNL d   1      26.640 -18.437   0.473  0.00  0.00     0.003 A 
ATOM     32  C   UNL d   1      25.325 -18.200   0.085  0.00  0.00     0.037 A 
ATOM     33  C   UNL d   1      25.069 -17.280  -0.928  0.00  0.00     0.079 A 
BRANCH  33  34
ATOM     34  O   UNL d   1      23.775 -17.083  -1.335  0.00  0.00    -0.360 OA
ATOM     35  H   UNL d   1      23.769 -16.552  -2.147  0.00  0.00     0.217 HD
ENDBRANCH  33  34
ENDBRANCH   4  28
TORSDOF 9
ENDMDL
MODEL 7
REMARK VINA RESULT:    -6.284      4.879      7.521
REMARK INTER + INTRA:         -13.529
REMARK INTER:                  -8.969
REMARK INTRA:                  -4.560
REMARK CONF_INDEPENDENT:        2.685
REMARK UNBOUND:                -4.560
REMARK  9 active torsions:
REMARK  status: ('A' for Active; 'I' for Inactive)
REMARK    1  A    between atoms: O_2  and  C_3 
REMARK    2  A    between atoms: C_6  and  N_7 
REMARK       I    between atoms: N_7  and  C_8 
REMARK    3  A    between atoms: C_8  and  C_10 
REMARK    4  A    between atoms: C_10  and  S_11 
REMARK    5  A    between atoms: S_11  and  C_12 
REMARK    6  A    between atoms: C_15  and  C_16 
REMARK    7  A    between atoms: C_21  and  O_22 
REMARK    8  A    between atoms: N_23  and  C_24 
REMARK    9  A    between atoms: C_30  and  O_31 
ROOT
ATOM      1  C   UNL d   1      29.618 -15.892  -4.294  0.00  0.00     0.197 A 
ATOM      2  N   UNL d   1      29.604 -15.425  -3.058  0.00  0.00    -0.122 NA
ATOM      3  N   UNL d   1      30.299 -16.307  -2.247  0.00  0.00    -0.128 NA
ATOM      4  C   UNL d   1      30.763 -17.277  -3.012  0.00  0.00     0.172 A 
ATOM      5  N   UNL d   1      30.306 -17.073  -4.306  0.00  0.00    -0.271 N 
ENDROOT
BRANCH   1   6
ATOM      6  S   UNL d   1      28.823 -15.122  -5.626  0.00  0.00    -0.080 SA
BRANCH   6   7
ATOM      7  C   UNL d   1      27.381 -14.068  -5.083  0.00  0.00     0.185 C 
BRANCH   7   8
ATOM      8  C   UNL d   1      26.431 -14.922  -4.249  0.00  0.00     0.232 C 
ATOM      9  N   UNL d   1      26.915 -15.487  -3.051  0.00  0.00    -0.324 N 
ATOM     10  H   UNL d   1      27.915 -15.455  -2.875  0.00  0.00     0.169 HD
ATOM     11  O   UNL d   1      25.340 -15.177  -4.776  0.00  0.00    -0.272 OA
BRANCH   9  12
ATOM     12  C   UNL d   1      26.144 -16.324  -2.145  0.00  0.00     0.068 A 
ATOM     13  C   UNL d   1      24.780 -16.594  -2.395  0.00  0.00     0.035 A 
ATOM     14  C   UNL d   1      23.994 -17.323  -1.462  0.00  0.00     0.039 A 
ATOM     15  C   UNL d   1      24.558 -17.806  -0.284  0.00  0.00     0.070 A 
ATOM     16  C   UNL d   1      25.910 -17.621  -0.081  0.00  0.00     0.075 A 
ATOM     17  C   UNL d   1      26.695 -16.928  -0.999  0.00  0.00     0.097 A 
BRANCH  15  18
ATOM     18  O   UNL d   1      23.799 -18.550   0.580  0.00  0.00    -0.356 OA
ATOM     19  C   UNL d   1      22.410 -18.617   0.230  0.00  0.00     0.210 C 
ENDBRANCH  15  18
BRANCH  17  20
ATOM     20  O   UNL d   1      28.046 -16.991  -0.889  0.00  0.00    -0.354 OA
ATOM     21  C   UNL d   1      28.709 -16.421   0.220  0.00  0.00     0.210 C 
ENDBRANCH  17  20
ENDBRANCH   9  12
ENDBRANCH   7   8
ENDBRANCH   6   7
ENDBRANCH   1   6
BRANCH   5  22
ATOM     22  C   UNL d   1      30.569 -17.930  -5.376  0.00  0.00     0.043 A 
ATOM     23  C   UNL d   1      31.036 -17.374  -6.566  0.00  0.00     0.030 A 
ATOM     24  C   UNL d   1      31.133 -18.190  -7.679  0.00  0.00     0.002 A 
ATOM     25  C   UNL d   1      30.863 -19.557  -7.568  0.00  0.00     0.000 A 
ATOM     26  C   UNL d   1      30.405 -20.102  -6.367  0.00  0.00     0.002 A 
ATOM     27  C   UNL d   1      30.206 -19.275  -5.272  0.00  0.00     0.030 A 
ENDBRANCH   5  22
BRANCH   4  28
ATOM     28  C   UNL d   1      31.695 -18.354  -2.654  0.00  0.00     0.045 A 
ATOM     29  C   UNL d   1      32.890 -18.531  -3.361  0.00  0.00     0.018 A 
ATOM     30  C   UNL d   1      33.796 -19.525  -2.973  0.00  0.00     0.001 A 
ATOM     31  C   UNL d   1      33.562 -20.286  -1.826  0.00  0.00     0.003 A 
ATOM     32  C   UNL d   1      32.397 -20.098  -1.089  0.00  0.00     0.037 A 
ATOM     33  C   UNL d   1      31.462 -19.160  -1.521  0.00  0.00     0.079 A 
BRANCH  33  34
ATOM     34  O   UNL d   1      30.297 -19.010  -0.814  0.00  0.00    -0.360 OA
ATOM     35  H   UNL d   1      29.888 -18.160  -1.042  0.00  0.00     0.217 HD
ENDBRANCH  33  34
ENDBRANCH   4  28
TORSDOF 9
ENDMDL
MODEL 8
REMARK VINA RESULT:    -6.261      3.846      6.807
REMARK INTER + INTRA:         -13.233
REMARK INTER:                  -8.946
REMARK INTRA:                  -4.287
REMARK CONF_INDEPENDENT:        2.685
REMARK UNBOUND:                -4.287
REMARK  9 active torsions:
REMARK  status: ('A' for Active; 'I' for Inactive)
REMARK    1  A    between atoms: O_2  and  C_3 
REMARK    2  A    between atoms: C_6  and  N_7 
REMARK       I    between atoms: N_7  and  C_8 
REMARK    3  A    between atoms: C_8  and  C_10 
REMARK    4  A    between atoms: C_10  and  S_11 
REMARK    5  A    between atoms: S_11  and  C_12 
REMARK    6  A    between atoms: C_15  and  C_16 
REMARK    7  A    between atoms: C_21  and  O_22 
REMARK    8  A    between atoms: N_23  and  C_24 
REMARK    9  A    between atoms: C_30  and  O_31 
ROOT
ATOM      1  C   UNL d   1      26.504 -13.529  -3.260  0.00  0.00     0.197 A 
ATOM      2  N   UNL d   1      25.758 -14.042  -4.222  0.00  0.00    -0.122 NA
ATOM      3  N   UNL d   1      25.155 -15.194  -3.744  0.00  0.00    -0.128 NA
ATOM      4  C   UNL d   1      25.511 -15.340  -2.482  0.00  0.00     0.172 A 
ATOM      5  N   UNL d   1      26.407 -14.331  -2.158  0.00  0.00    -0.271 N 
ENDROOT
BRANCH   1   6
ATOM      6  S   UNL d   1      27.473 -12.105  -3.446  0.00  0.00    -0.080 SA
BRANCH   6   7
ATOM      7  C   UNL d   1      28.109 -11.898  -5.189  0.00  0.00     0.185 C 
BRANCH   7   8
ATOM      8  C   UNL d   1      29.042 -13.060  -5.515  0.00  0.00     0.232 C 
ATOM      9  N   UNL d   1      28.575 -14.374  -5.310  0.00  0.00    -0.324 N 
ATOM     10  H   UNL d   1      27.711 -14.499  -4.791  0.00  0.00     0.169 HD
ATOM     11  O   UNL d   1      30.207 -12.746  -5.798  0.00  0.00    -0.272 OA
BRANCH   9  12
ATOM     12  C   UNL d   1      29.335 -15.586  -5.567  0.00  0.00     0.068 A 
ATOM     13  C   UNL d   1      30.032 -15.758  -6.784  0.00  0.00     0.035 A 
ATOM     14  C   UNL d   1      30.690 -16.981  -7.086  0.00  0.00     0.039 A 
ATOM     15  C   UNL d   1      30.678 -18.037  -6.178  0.00  0.00     0.070 A 
ATOM     16  C   UNL d   1      30.074 -17.839  -4.952  0.00  0.00     0.075 A 
ATOM     17  C   UNL d   1      29.447 -16.636  -4.636  0.00  0.00     0.097 A 
BRANCH  15  18
ATOM     18  O   UNL d   1      31.359 -19.190  -6.463  0.00  0.00    -0.356 OA
ATOM     19  C   UNL d   1      30.969 -20.314  -5.662  0.00  0.00     0.210 C 
ENDBRANCH  15  18
BRANCH  17  20
ATOM     20  O   UNL d   1      29.097 -16.396  -3.348  0.00  0.00    -0.354 OA
ATOM     21  C   UNL d   1      29.782 -17.021  -2.282  0.00  0.00     0.210 C 
ENDBRANCH  17  20
ENDBRANCH   9  12
ENDBRANCH   7   8
ENDBRANCH   6   7
ENDBRANCH   1   6
BRANCH   5  22
ATOM     22  C   UNL d   1      27.024 -14.198  -0.913  0.00  0.00     0.043 A 
ATOM     23  C   UNL d   1      28.309 -14.715  -0.757  0.00  0.00     0.030 A 
ATOM     24  C   UNL d   1      28.856 -14.742   0.514  0.00  0.00     0.002 A 
ATOM     25  C   UNL d   1      28.164 -14.168   1.584  0.00  0.00     0.000 A 
ATOM     26  C   UNL d   1      26.881 -13.645   1.411  0.00  0.00     0.002 A 
ATOM     27  C   UNL d   1      26.281 -13.705   0.162  0.00  0.00     0.030 A 
ENDBRANCH   5  22
BRANCH   4  28
ATOM     28  C   UNL d   1      25.006 -16.307  -1.498  0.00  0.00     0.045 A 
ATOM     29  C   UNL d   1      23.651 -16.332  -1.151  0.00  0.00     0.018 A 
ATOM     30  C   UNL d   1      23.173 -17.296  -0.255  0.00  0.00     0.001 A 
ATOM     31  C   UNL d   1      24.021 -18.294   0.228  0.00  0.00     0.003 A 
ATOM     32  C   UNL d   1      25.363 -18.307  -0.137  0.00  0.00     0.037 A 
ATOM     33  C   UNL d   1      25.852 -17.302  -0.968  0.00  0.00     0.079 A 
BRANCH  33  34
ATOM     34  O   UNL d   1      27.185 -17.296  -1.290  0.00  0.00    -0.360 OA
ATOM     35  H   UNL d   1      27.325 -16.748  -2.078  0.00  0.00     0.217 HD
ENDBRANCH  33  34
ENDBRANCH   4  28
TORSDOF 9
ENDMDL
MODEL 9
REMARK VINA RESULT:    -5.849      3.180      6.399
REMARK INTER + INTRA:         -13.217
REMARK INTER:                  -8.534
REMARK INTRA:                  -4.684
REMARK CONF_INDEPENDENT:        2.685
REMARK UNBOUND:                -4.684
REMARK  9 active torsions:
REMARK  status: ('A' for Active; 'I' for Inactive)
REMARK    1  A    between atoms: O_2  and  C_3 
REMARK    2  A    between atoms: C_6  and  N_7 
REMARK       I    between atoms: N_7  and  C_8 
REMARK    3  A    between atoms: C_8  and  C_10 
REMARK    4  A    between atoms: C_10  and  S_11 
REMARK    5  A    between atoms: S_11  and  C_12 
REMARK    6  A    between atoms: C_15  and  C_16 
REMARK    7  A    between atoms: C_21  and  O_22 
REMARK    8  A    between atoms: N_23  and  C_24 
REMARK    9  A    between atoms: C_30  and  O_31 
ROOT
ATOM      1  C   UNL d   1      29.237 -15.538  -2.438  0.00  0.00     0.197 A 
ATOM      2  N   UNL d   1      29.967 -14.437  -2.429  0.00  0.00    -0.122 NA
ATOM      3  N   UNL d   1      29.621 -13.689  -1.316  0.00  0.00    -0.128 NA
ATOM      4  C   UNL d   1      28.714 -14.369  -0.641  0.00  0.00     0.172 A 
ATOM      5  N   UNL d   1      28.409 -15.522  -1.351  0.00  0.00    -0.271 N 
ENDROOT
BRANCH   1   6
ATOM      6  S   UNL d   1      29.315 -16.738  -3.685  0.00  0.00    -0.080 SA
BRANCH   6   7
ATOM      7  C   UNL d   1      29.280 -15.992  -5.396  0.00  0.00     0.185 C 
BRANCH   7   8
ATOM      8  C   UNL d   1      28.214 -14.903  -5.438  0.00  0.00     0.232 C 
ATOM      9  N   UNL d   1      28.417 -13.736  -4.672  0.00  0.00    -0.324 N 
ATOM     10  H   UNL d   1      29.168 -13.736  -3.989  0.00  0.00     0.169 HD
ATOM     11  O   UNL d   1      27.170 -15.200  -6.034  0.00  0.00    -0.272 OA
BRANCH   9  12
ATOM     12  C   UNL d   1      27.501 -12.609  -4.600  0.00  0.00     0.068 A 
ATOM     13  C   UNL d   1      27.594 -11.542  -5.520  0.00  0.00     0.035 A 
ATOM     14  C   UNL d   1      26.772 -10.389  -5.392  0.00  0.00     0.039 A 
ATOM     15  C   UNL d   1      25.840 -10.293  -4.362  0.00  0.00     0.070 A 
ATOM     16  C   UNL d   1      25.686 -11.372  -3.516  0.00  0.00     0.075 A 
ATOM     17  C   UNL d   1      26.468 -12.517  -3.647  0.00  0.00     0.097 A 
BRANCH  15  18
ATOM     18  O   UNL d   1      25.021  -9.197  -4.283  0.00  0.00    -0.356 OA
ATOM     19  C   UNL d   1      24.425  -8.822  -5.532  0.00  0.00     0.210 C 
ENDBRANCH  15  18
BRANCH  17  20
ATOM     20  O   UNL d   1      26.114 -13.637  -2.969  0.00  0.00    -0.354 OA
ATOM     21  C   UNL d   1      24.838 -14.216  -3.143  0.00  0.00     0.210 C 
ENDBRANCH  17  20
ENDBRANCH   9  12
ENDBRANCH   7   8
ENDBRANCH   6   7
ENDBRANCH   1   6
BRANCH   5  22
ATOM     22  C   UNL d   1      27.456 -16.461  -0.952  0.00  0.00     0.043 A 
ATOM     23  C   UNL d   1      26.209 -16.438  -1.574  0.00  0.00     0.030 A 
ATOM     24  C   UNL d   1      25.207 -17.247  -1.068  0.00  0.00     0.002 A 
ATOM     25  C   UNL d   1      25.487 -18.133  -0.024  0.00  0.00     0.000 A 
ATOM     26  C   UNL d   1      26.744 -18.152   0.583  0.00  0.00     0.002 A 
ATOM     27  C   UNL d   1      27.726 -17.274   0.152  0.00  0.00     0.030 A 
ENDBRANCH   5  22
BRANCH   4  28
ATOM     28  C   UNL d   1      28.159 -14.079   0.689  0.00  0.00     0.045 A 
ATOM     29  C   UNL d   1      28.849 -14.449   1.848  0.00  0.00     0.018 A 
ATOM     30  C   UNL d   1      28.337 -14.116   3.107  0.00  0.00     0.001 A 
ATOM     31  C   UNL d   1      27.185 -13.335   3.218  0.00  0.00     0.003 A 
ATOM     32  C   UNL d   1      26.507 -12.925   2.075  0.00  0.00     0.037 A 
ATOM     33  C   UNL d   1      26.977 -13.322   0.825  0.00  0.00     0.079 A 
BRANCH  33  34
ATOM     34  O   UNL d   1      26.280 -12.951  -0.295  0.00  0.00    -0.360 OA
ATOM     35  H   UNL d   1      26.876 -12.953  -1.062  0.00  0.00     0.217 HD
ENDBRANCH  33  34
ENDBRANCH   4  28
TORSDOF 9
ENDMDL
