MODEL 1
REMARK VINA RESULT:    -7.159      0.000      0.000
REMARK INTER + INTRA:          -8.658
REMARK INTER:                  -8.053
REMARK INTRA:                  -0.605
REMARK CONF_INDEPENDENT:        0.895
REMARK UNBOUND:                -0.605
REMARK  3 active torsions:
REMARK  status: ('A' for Active; 'I' for Inactive)
REMARK       I    between atoms: C_2  and  N_3 
REMARK    1  A    between atoms: C_2  and  C_12 
REMARK    2  A    between atoms: N_3  and  N_4 
REMARK    3  A    between atoms: N_4  and  C_5 
ROOT
ATOM      1  O   UNL d   1      27.098 -13.751   0.663  0.00  0.00    -0.264 OA
ATOM      2  C   UNL d   1      27.778 -14.438   1.425  0.00  0.00     0.286 C 
ATOM      3  N   UNL d   1      28.318 -15.670   1.075  0.00  0.00    -0.264 N 
ATOM      4  H   UNL d   1      28.897 -16.221   1.697  0.00  0.00     0.190 HD
ENDROOT
BRANCH   2   5
ATOM      5  C   UNL d   1      28.016 -13.980   2.853  0.00  0.00     0.106 A 
ATOM      6  C   UNL d   1      28.124 -12.679   3.171  0.00  0.00     0.048 A 
ATOM      7  C   UNL d   1      28.275 -12.279   4.583  0.00  0.00    -0.018 A 
ATOM      8  C   UNL d   1      28.385 -10.932   4.949  0.00  0.00     0.012 A 
ATOM      9  C   UNL d   1      28.303 -13.256   5.590  0.00  0.00     0.042 A 
ATOM     10  C   UNL d   1      28.532 -10.571   6.294  0.00  0.00     0.001 A 
ATOM     11  C   UNL d   1      28.568 -11.550   7.288  0.00  0.00     0.001 A 
ATOM     12  C   UNL d   1      28.453 -12.895   6.939  0.00  0.00     0.018 A 
ATOM     13  C   UNL d   1      28.159 -14.679   5.197  0.00  0.00     0.257 A 
ATOM     14  O   UNL d   1      28.164 -15.575   6.038  0.00  0.00    -0.267 OA
ATOM     15  N   UNL d   1      28.017 -14.937   3.850  0.00  0.00    -0.318 N 
ATOM     16  H   UNL d   1      27.866 -15.908   3.594  0.00  0.00     0.169 HD
ENDBRANCH   2   5
BRANCH   3  17
ATOM     17  N   UNL d   1      28.239 -16.080  -0.266  0.00  0.00    -0.298 N 
ATOM     18  H   UNL d   1      29.105 -16.142  -0.805  0.00  0.00     0.187 HD
BRANCH  17  19
ATOM     19  C   UNL d   1      26.993 -16.307  -0.871  0.00  0.00     0.049 A 
ATOM     20  C   UNL d   1      26.543 -15.561  -1.969  0.00  0.00     0.031 A 
ATOM     21  C   UNL d   1      25.269 -15.765  -2.520  0.00  0.00     0.004 A 
ATOM     22  C   UNL d   1      24.403 -16.699  -1.958  0.00  0.00     0.024 A 
ATOM     23  C   UNL d   1      24.830 -17.444  -0.864  0.00  0.00     0.036 A 
ATOM     24 CL   UNL d   1      23.746 -18.574  -0.144  0.00  0.00    -0.084 Cl
ATOM     25  C   UNL d   1      26.117 -17.267  -0.335  0.00  0.00     0.054 A 
ENDBRANCH  17  19
ENDBRANCH   3  17
TORSDOF 3
ENDMDL
MODEL 2
REMARK VINA RESULT:    -7.149      6.558      8.895
REMARK INTER + INTRA:          -8.927
REMARK INTER:                  -8.043
REMARK INTRA:                  -0.883
REMARK CONF_INDEPENDENT:        0.895
REMARK UNBOUND:                -0.883
REMARK  3 active torsions:
REMARK  status: ('A' for Active; 'I' for Inactive)
REMARK       I    between atoms: C_2  and  N_3 
REMARK    1  A    between atoms: C_2  and  C_12 
REMARK    2  A    between atoms: N_3  and  N_4 
REMARK    3  A    between atoms: N_4  and  C_5 
ROOT
ATOM      1  O   UNL d   1      23.534 -13.700  -4.270  0.00  0.00    -0.264 OA
ATOM      2  C   UNL d   1      24.646 -14.075  -3.897  0.00  0.00     0.286 C 
ATOM      3  N   UNL d   1      24.862 -14.794  -2.727  0.00  0.00    -0.264 N 
ATOM      4  H   UNL d   1      25.776 -15.121  -2.437  0.00  0.00     0.190 HD
ENDROOT
BRANCH   2   5
ATOM      5  C   UNL d   1      25.882 -13.704  -4.698  0.00  0.00     0.106 A 
ATOM      6  C   UNL d   1      26.857 -14.594  -4.951  0.00  0.00     0.048 A 
ATOM      7  C   UNL d   1      27.998 -14.209  -5.801  0.00  0.00    -0.018 A 
ATOM      8  C   UNL d   1      29.029 -15.112  -6.087  0.00  0.00     0.012 A 
ATOM      9  C   UNL d   1      28.064 -12.918  -6.347  0.00  0.00     0.042 A 
ATOM     10  C   UNL d   1      30.108 -14.729  -6.893  0.00  0.00     0.001 A 
ATOM     11  C   UNL d   1      30.168 -13.440  -7.425  0.00  0.00     0.001 A 
ATOM     12  C   UNL d   1      29.146 -12.531  -7.154  0.00  0.00     0.018 A 
ATOM     13  C   UNL d   1      26.955 -11.975  -6.062  0.00  0.00     0.257 A 
ATOM     14  O   UNL d   1      26.953 -10.835  -6.525  0.00  0.00    -0.267 OA
ATOM     15  N   UNL d   1      25.935 -12.442  -5.261  0.00  0.00    -0.318 N 
ATOM     16  H   UNL d   1      25.155 -11.809  -5.114  0.00  0.00     0.169 HD
ENDBRANCH   2   5
BRANCH   3  17
ATOM     17  N   UNL d   1      23.748 -15.274  -2.020  0.00  0.00    -0.298 N 
ATOM     18  H   UNL d   1      22.895 -14.712  -2.020  0.00  0.00     0.187 HD
BRANCH  17  19
ATOM     19  C   UNL d   1      23.840 -16.449  -1.258  0.00  0.00     0.049 A 
ATOM     20  C   UNL d   1      25.069 -16.992  -0.858  0.00  0.00     0.031 A 
ATOM     21  C   UNL d   1      25.139 -18.200  -0.148  0.00  0.00     0.004 A 
ATOM     22  C   UNL d   1      23.978 -18.909   0.147  0.00  0.00     0.024 A 
ATOM     23  C   UNL d   1      22.749 -18.388  -0.247  0.00  0.00     0.036 A 
ATOM     24 CL   UNL d   1      21.313 -19.283   0.085  0.00  0.00    -0.084 Cl
ATOM     25  C   UNL d   1      22.675 -17.163  -0.925  0.00  0.00     0.054 A 
ENDBRANCH  17  19
ENDBRANCH   3  17
TORSDOF 3
ENDMDL
MODEL 3
REMARK VINA RESULT:    -7.041      6.135      8.900
REMARK INTER + INTRA:          -8.537
REMARK INTER:                  -7.936
REMARK INTRA:                  -0.601
REMARK CONF_INDEPENDENT:        0.895
REMARK UNBOUND:                -0.601
REMARK  3 active torsions:
REMARK  status: ('A' for Active; 'I' for Inactive)
REMARK       I    between atoms: C_2  and  N_3 
REMARK    1  A    between atoms: C_2  and  C_12 
REMARK    2  A    between atoms: N_3  and  N_4 
REMARK    3  A    between atoms: N_4  and  C_5 
ROOT
ATOM      1  O   UNL d   1      25.116 -14.490  -4.816  0.00  0.00    -0.264 OA
ATOM      2  C   UNL d   1      26.188 -14.747  -4.268  0.00  0.00     0.286 C 
ATOM      3  N   UNL d   1      26.321 -14.952  -2.900  0.00  0.00    -0.264 N 
ATOM      4  H   UNL d   1      27.202 -15.186  -2.456  0.00  0.00     0.190 HD
ENDROOT
BRANCH   2   5
ATOM      5  C   UNL d   1      27.467 -14.793  -5.085  0.00  0.00     0.106 A 
ATOM      6  C   UNL d   1      27.781 -13.830  -5.967  0.00  0.00     0.048 A 
ATOM      7  C   UNL d   1      29.072 -13.878  -6.678  0.00  0.00    -0.018 A 
ATOM      8  C   UNL d   1      29.431 -12.888  -7.601  0.00  0.00     0.012 A 
ATOM      9  C   UNL d   1      29.971 -14.926  -6.431  0.00  0.00     0.042 A 
ATOM     10  C   UNL d   1      30.660 -12.952  -8.270  0.00  0.00     0.001 A 
ATOM     11  C   UNL d   1      31.544 -14.003  -8.024  0.00  0.00     0.001 A 
ATOM     12  C   UNL d   1      31.202 -14.993  -7.102  0.00  0.00     0.018 A 
ATOM     13  C   UNL d   1      29.595 -15.957  -5.432  0.00  0.00     0.257 A 
ATOM     14  O   UNL d   1      30.349 -16.891  -5.166  0.00  0.00    -0.267 OA
ATOM     15  N   UNL d   1      28.367 -15.809  -4.822  0.00  0.00    -0.318 N 
ATOM     16  H   UNL d   1      28.140 -16.489  -4.103  0.00  0.00     0.169 HD
ENDBRANCH   2   5
BRANCH   3  17
ATOM     17  N   UNL d   1      25.158 -15.049  -2.120  0.00  0.00    -0.298 N 
ATOM     18  H   UNL d   1      24.529 -14.246  -2.086  0.00  0.00     0.187 HD
BRANCH  17  19
ATOM     19  C   UNL d   1      24.919 -16.188  -1.335  0.00  0.00     0.049 A 
ATOM     20  C   UNL d   1      25.944 -16.863  -0.658  0.00  0.00     0.031 A 
ATOM     21  C   UNL d   1      25.691 -18.035   0.073  0.00  0.00     0.004 A 
ATOM     22  C   UNL d   1      24.409 -18.575   0.110  0.00  0.00     0.024 A 
ATOM     23  C   UNL d   1      23.380 -17.922  -0.562  0.00  0.00     0.036 A 
ATOM     24 CL   UNL d   1      21.800 -18.610  -0.547  0.00  0.00    -0.084 Cl
ATOM     25  C   UNL d   1      23.624 -16.731  -1.262  0.00  0.00     0.054 A 
ENDBRANCH  17  19
ENDBRANCH   3  17
TORSDOF 3
ENDMDL
MODEL 4
REMARK VINA RESULT:    -7.037      1.435      1.986
REMARK INTER + INTRA:          -8.774
REMARK INTER:                  -7.932
REMARK INTRA:                  -0.842
REMARK CONF_INDEPENDENT:        0.895
REMARK UNBOUND:                -0.842
REMARK  3 active torsions:
REMARK  status: ('A' for Active; 'I' for Inactive)
REMARK       I    between atoms: C_2  and  N_3 
REMARK    1  A    between atoms: C_2  and  C_12 
REMARK    2  A    between atoms: N_3  and  N_4 
REMARK    3  A    between atoms: N_4  and  C_5 
ROOT
ATOM      1  O   UNL d   1      26.926 -13.629   0.713  0.00  0.00    -0.264 OA
ATOM      2  C   UNL d   1      27.586 -14.226   1.563  0.00  0.00     0.286 C 
ATOM      3  N   UNL d   1      28.164 -15.473   1.351  0.00  0.00    -0.264 N 
ATOM      4  H   UNL d   1      28.726 -15.950   2.046  0.00  0.00     0.190 HD
ENDROOT
BRANCH   2   5
ATOM      5  C   UNL d   1      27.754 -13.633   2.950  0.00  0.00     0.106 A 
ATOM      6  C   UNL d   1      28.206 -14.362   3.984  0.00  0.00     0.048 A 
ATOM      7  C   UNL d   1      28.428 -13.720   5.293  0.00  0.00    -0.018 A 
ATOM      8  C   UNL d   1      28.902 -14.450   6.390  0.00  0.00     0.012 A 
ATOM      9  C   UNL d   1      28.171 -12.350   5.457  0.00  0.00     0.042 A 
ATOM     10  C   UNL d   1      29.104 -13.825   7.627  0.00  0.00     0.001 A 
ATOM     11  C   UNL d   1      28.836 -12.465   7.782  0.00  0.00     0.001 A 
ATOM     12  C   UNL d   1      28.370 -11.723   6.697  0.00  0.00     0.018 A 
ATOM     13  C   UNL d   1      27.695 -11.577   4.283  0.00  0.00     0.257 A 
ATOM     14  O   UNL d   1      27.465 -10.372   4.366  0.00  0.00    -0.267 OA
ATOM     15  N   UNL d   1      27.528 -12.278   3.107  0.00  0.00    -0.318 N 
ATOM     16  H   UNL d   1      27.253 -11.732   2.297  0.00  0.00     0.169 HD
ENDBRANCH   2   5
BRANCH   3  17
ATOM     17  N   UNL d   1      28.151 -16.006   0.052  0.00  0.00    -0.298 N 
ATOM     18  H   UNL d   1      29.045 -16.167  -0.414  0.00  0.00     0.187 HD
BRANCH  17  19
ATOM     19  C   UNL d   1      26.937 -16.223  -0.617  0.00  0.00     0.049 A 
ATOM     20  C   UNL d   1      26.522 -15.433  -1.698  0.00  0.00     0.031 A 
ATOM     21  C   UNL d   1      25.277 -15.630  -2.314  0.00  0.00     0.004 A 
ATOM     22  C   UNL d   1      24.404 -16.604  -1.836  0.00  0.00     0.024 A 
ATOM     23  C   UNL d   1      24.797 -17.394  -0.760  0.00  0.00     0.036 A 
ATOM     24 CL   UNL d   1      23.702 -18.575  -0.144  0.00  0.00    -0.084 Cl
ATOM     25  C   UNL d   1      26.055 -17.222  -0.167  0.00  0.00     0.054 A 
ENDBRANCH  17  19
ENDBRANCH   3  17
TORSDOF 3
ENDMDL
MODEL 5
REMARK VINA RESULT:    -6.884      6.208      7.722
REMARK INTER + INTRA:          -8.458
REMARK INTER:                  -7.779
REMARK INTRA:                  -0.679
REMARK CONF_INDEPENDENT:        0.895
REMARK UNBOUND:                -0.679
REMARK  3 active torsions:
REMARK  status: ('A' for Active; 'I' for Inactive)
REMARK       I    between atoms: C_2  and  N_3 
REMARK    1  A    between atoms: C_2  and  C_12 
REMARK    2  A    between atoms: N_3  and  N_4 
REMARK    3  A    between atoms: N_4  and  C_5 
ROOT
ATOM      1  O   UNL d   1      24.371 -14.124  -4.645  0.00  0.00    -0.264 OA
ATOM      2  C   UNL d   1      25.032 -13.954  -3.620  0.00  0.00     0.286 C 
ATOM      3  N   UNL d   1      25.719 -12.780  -3.334  0.00  0.00    -0.264 N 
ATOM      4  H   UNL d   1      26.242 -12.636  -2.478  0.00  0.00     0.190 HD
ENDROOT
BRANCH   2   5
ATOM      5  C   UNL d   1      25.178 -15.083  -2.615  0.00  0.00     0.106 A 
ATOM      6  C   UNL d   1      26.382 -15.535  -2.225  0.00  0.00     0.048 A 
ATOM      7  C   UNL d   1      26.473 -16.578  -1.187  0.00  0.00    -0.018 A 
ATOM      8  C   UNL d   1      27.712 -17.068  -0.756  0.00  0.00     0.012 A 
ATOM      9  C   UNL d   1      25.305 -17.094  -0.605  0.00  0.00     0.042 A 
ATOM     10  C   UNL d   1      27.780 -18.062   0.229  0.00  0.00     0.001 A 
ATOM     11  C   UNL d   1      26.612 -18.575   0.795  0.00  0.00     0.001 A 
ATOM     12  C   UNL d   1      25.372 -18.092   0.380  0.00  0.00     0.018 A 
ATOM     13  C   UNL d   1      23.998 -16.551  -1.047  0.00  0.00     0.257 A 
ATOM     14  O   UNL d   1      22.943 -16.957  -0.563  0.00  0.00    -0.267 OA
ATOM     15  N   UNL d   1      24.030 -15.573  -2.020  0.00  0.00    -0.318 N 
ATOM     16  H   UNL d   1      23.136 -15.170  -2.279  0.00  0.00     0.169 HD
ENDBRANCH   2   5
BRANCH   3  17
ATOM     17  N   UNL d   1      25.514 -11.665  -4.161  0.00  0.00    -0.298 N 
ATOM     18  H   UNL d   1      24.780 -11.001  -3.906  0.00  0.00     0.187 HD
BRANCH  17  19
ATOM     19  C   UNL d   1      26.237 -11.519  -5.354  0.00  0.00     0.049 A 
ATOM     20  C   UNL d   1      25.941 -10.524  -6.297  0.00  0.00     0.031 A 
ATOM     21  C   UNL d   1      26.639 -10.433  -7.510  0.00  0.00     0.004 A 
ATOM     22  C   UNL d   1      27.627 -11.363  -7.822  0.00  0.00     0.024 A 
ATOM     23  C   UNL d   1      27.930 -12.361  -6.902  0.00  0.00     0.036 A 
ATOM     24 CL   UNL d   1      29.128 -13.535  -7.302  0.00  0.00    -0.084 Cl
ATOM     25  C   UNL d   1      27.259 -12.431  -5.673  0.00  0.00     0.054 A 
ENDBRANCH  17  19
ENDBRANCH   3  17
TORSDOF 3
ENDMDL
MODEL 6
REMARK VINA RESULT:    -6.714      4.968      7.207
REMARK INTER + INTRA:          -8.323
REMARK INTER:                  -7.609
REMARK INTRA:                  -0.714
REMARK CONF_INDEPENDENT:        0.895
REMARK UNBOUND:                -0.714
REMARK  3 active torsions:
REMARK  status: ('A' for Active; 'I' for Inactive)
REMARK       I    between atoms: C_2  and  N_3 
REMARK    1  A    between atoms: C_2  and  C_12 
REMARK    2  A    between atoms: N_3  and  N_4 
REMARK    3  A    between atoms: N_4  and  C_5 
ROOT
ATOM      1  O   UNL d   1      22.976 -19.568  -1.534  0.00  0.00    -0.264 OA
ATOM      2  C   UNL d   1      23.067 -18.397  -1.164  0.00  0.00     0.286 C 
ATOM      3  N   UNL d   1      21.974 -17.551  -1.018  0.00  0.00    -0.264 N 
ATOM      4  H   UNL d   1      22.051 -16.595  -0.690  0.00  0.00     0.190 HD
ENDROOT
BRANCH   2   5
ATOM      5  C   UNL d   1      24.432 -17.788  -0.897  0.00  0.00     0.106 A 
ATOM      6  C   UNL d   1      24.730 -16.529  -1.259  0.00  0.00     0.048 A 
ATOM      7  C   UNL d   1      26.042 -15.956  -0.907  0.00  0.00    -0.018 A 
ATOM      8  C   UNL d   1      26.382 -14.646  -1.266  0.00  0.00     0.012 A 
ATOM      9  C   UNL d   1      26.975 -16.723  -0.193  0.00  0.00     0.042 A 
ATOM     10  C   UNL d   1      27.635 -14.118  -0.926  0.00  0.00     0.001 A 
ATOM     11  C   UNL d   1      28.560 -14.892  -0.224  0.00  0.00     0.001 A 
ATOM     12  C   UNL d   1      28.232 -16.197   0.145  0.00  0.00     0.018 A 
ATOM     13  C   UNL d   1      26.597 -18.101   0.207  0.00  0.00     0.257 A 
ATOM     14  O   UNL d   1      27.371 -18.813   0.843  0.00  0.00    -0.267 OA
ATOM     15  N   UNL d   1      25.343 -18.532  -0.170  0.00  0.00    -0.318 N 
ATOM     16  H   UNL d   1      25.072 -19.456   0.152  0.00  0.00     0.169 HD
ENDBRANCH   2   5
BRANCH   3  17
ATOM     17  N   UNL d   1      20.685 -18.096  -1.124  0.00  0.00    -0.298 N 
ATOM     18  H   UNL d   1      20.106 -17.820  -1.920  0.00  0.00     0.187 HD
BRANCH  17  19
ATOM     19  C   UNL d   1      20.175 -18.924  -0.112  0.00  0.00     0.049 A 
ATOM     20  C   UNL d   1      20.772 -19.021   1.152  0.00  0.00     0.031 A 
ATOM     21  C   UNL d   1      20.280 -19.900   2.129  0.00  0.00     0.004 A 
ATOM     22  C   UNL d   1      19.198 -20.728   1.846  0.00  0.00     0.024 A 
ATOM     23  C   UNL d   1      18.596 -20.650   0.594  0.00  0.00     0.036 A 
ATOM     24 CL   UNL d   1      17.280 -21.702   0.229  0.00  0.00    -0.084 Cl
ATOM     25  C   UNL d   1      19.064 -19.746  -0.370  0.00  0.00     0.054 A 
ENDBRANCH  17  19
ENDBRANCH   3  17
TORSDOF 3
ENDMDL
MODEL 7
REMARK VINA RESULT:    -6.571      3.062      7.805
REMARK INTER + INTRA:          -8.330
REMARK INTER:                  -7.466
REMARK INTRA:                  -0.864
REMARK CONF_INDEPENDENT:        0.895
REMARK UNBOUND:                -0.864
REMARK  3 active torsions:
REMARK  status: ('A' for Active; 'I' for Inactive)
REMARK       I    between atoms: C_2  and  N_3 
REMARK    1  A    between atoms: C_2  and  C_12 
REMARK    2  A    between atoms: N_3  and  N_4 
REMARK    3  A    between atoms: N_4  and  C_5 
ROOT
ATOM      1  O   UNL d   1      29.126 -12.402   2.430  0.00  0.00    -0.264 OA
ATOM      2  C   UNL d   1      28.927 -13.617   2.393  0.00  0.00     0.286 C 
ATOM      3  N   UNL d   1      29.507 -14.518   3.278  0.00  0.00    -0.264 N 
ATOM      4  H   UNL d   1      29.321 -15.513   3.260  0.00  0.00     0.190 HD
ENDROOT
BRANCH   2   5
ATOM      5  C   UNL d   1      28.052 -14.210   1.303  0.00  0.00     0.106 A 
ATOM      6  C   UNL d   1      27.687 -15.503   1.312  0.00  0.00     0.048 A 
ATOM      7  C   UNL d   1      26.772 -16.015   0.275  0.00  0.00    -0.018 A 
ATOM      8  C   UNL d   1      26.370 -17.356   0.258  0.00  0.00     0.012 A 
ATOM      9  C   UNL d   1      26.280 -15.151  -0.716  0.00  0.00     0.042 A 
ATOM     10  C   UNL d   1      25.502 -17.825  -0.737  0.00  0.00     0.001 A 
ATOM     11  C   UNL d   1      25.026 -16.960  -1.723  0.00  0.00     0.001 A 
ATOM     12  C   UNL d   1      25.413 -15.621  -1.715  0.00  0.00     0.018 A 
ATOM     13  C   UNL d   1      26.690 -13.726  -0.675  0.00  0.00     0.257 A 
ATOM     14  O   UNL d   1      26.280 -12.922  -1.510  0.00  0.00    -0.267 OA
ATOM     15  N   UNL d   1      27.544 -13.356   0.342  0.00  0.00    -0.318 N 
ATOM     16  H   UNL d   1      27.778 -12.369   0.394  0.00  0.00     0.169 HD
ENDBRANCH   2   5
BRANCH   3  17
ATOM     17  N   UNL d   1      30.216 -14.013   4.380  0.00  0.00    -0.298 N 
ATOM     18  H   UNL d   1      31.235 -14.076   4.370  0.00  0.00     0.187 HD
BRANCH  17  19
ATOM     19  C   UNL d   1      29.533 -13.522   5.503  0.00  0.00     0.049 A 
ATOM     20  C   UNL d   1      28.780 -12.339   5.468  0.00  0.00     0.031 A 
ATOM     21  C   UNL d   1      28.155 -11.835   6.618  0.00  0.00     0.004 A 
ATOM     22  C   UNL d   1      28.300 -12.487   7.839  0.00  0.00     0.024 A 
ATOM     23  C   UNL d   1      29.049 -13.659   7.894  0.00  0.00     0.036 A 
ATOM     24 CL   UNL d   1      29.260 -14.447   9.413  0.00  0.00    -0.084 Cl
ATOM     25  C   UNL d   1      29.644 -14.184   6.739  0.00  0.00     0.054 A 
ENDBRANCH  17  19
ENDBRANCH   3  17
TORSDOF 3
ENDMDL
MODEL 8
REMARK VINA RESULT:    -6.398      6.305      8.021
REMARK INTER + INTRA:          -8.137
REMARK INTER:                  -7.293
REMARK INTRA:                  -0.844
REMARK CONF_INDEPENDENT:        0.895
REMARK UNBOUND:                -0.844
REMARK  3 active torsions:
REMARK  status: ('A' for Active; 'I' for Inactive)
REMARK       I    between atoms: C_2  and  N_3 
REMARK    1  A    between atoms: C_2  and  C_12 
REMARK    2  A    between atoms: N_3  and  N_4 
REMARK    3  A    between atoms: N_4  and  C_5 
ROOT
ATOM      1  O   UNL d   1      24.132 -14.053  -4.504  0.00  0.00    -0.264 OA
ATOM      2  C   UNL d   1      24.890 -13.923  -3.542  0.00  0.00     0.286 C 
ATOM      3  N   UNL d   1      25.651 -12.784  -3.312  0.00  0.00    -0.264 N 
ATOM      4  H   UNL d   1      26.255 -12.671  -2.507  0.00  0.00     0.190 HD
ENDROOT
BRANCH   2   5
ATOM      5  C   UNL d   1      25.076 -15.067  -2.561  0.00  0.00     0.106 A 
ATOM      6  C   UNL d   1      26.295 -15.480  -2.175  0.00  0.00     0.048 A 
ATOM      7  C   UNL d   1      26.423 -16.541  -1.160  0.00  0.00    -0.018 A 
ATOM      8  C   UNL d   1      27.678 -16.991  -0.733  0.00  0.00     0.012 A 
ATOM      9  C   UNL d   1      25.274 -17.116  -0.596  0.00  0.00     0.042 A 
ATOM     10  C   UNL d   1      27.781 -18.003   0.230  0.00  0.00     0.001 A 
ATOM     11  C   UNL d   1      26.633 -18.575   0.778  0.00  0.00     0.001 A 
ATOM     12  C   UNL d   1      25.375 -18.132   0.367  0.00  0.00     0.018 A 
ATOM     13  C   UNL d   1      23.947 -16.616  -1.033  0.00  0.00     0.257 A 
ATOM     14  O   UNL d   1      22.908 -17.074  -0.564  0.00  0.00    -0.267 OA
ATOM     15  N   UNL d   1      23.946 -15.616  -1.983  0.00  0.00    -0.318 N 
ATOM     16  H   UNL d   1      23.037 -15.243  -2.239  0.00  0.00     0.169 HD
ENDBRANCH   2   5
BRANCH   3  17
ATOM     17  N   UNL d   1      25.421 -11.651  -4.110  0.00  0.00    -0.298 N 
ATOM     18  H   UNL d   1      25.007 -11.786  -5.034  0.00  0.00     0.187 HD
BRANCH  17  19
ATOM     19  C   UNL d   1      25.836 -10.381  -3.683  0.00  0.00     0.049 A 
ATOM     20  C   UNL d   1      26.793 -10.203  -2.674  0.00  0.00     0.031 A 
ATOM     21  C   UNL d   1      27.150  -8.924  -2.220  0.00  0.00     0.004 A 
ATOM     22  C   UNL d   1      26.528  -7.795  -2.745  0.00  0.00     0.024 A 
ATOM     23  C   UNL d   1      25.570  -7.953  -3.743  0.00  0.00     0.036 A 
ATOM     24 CL   UNL d   1      24.772  -6.558  -4.367  0.00  0.00    -0.084 Cl
ATOM     25  C   UNL d   1      25.239  -9.228  -4.223  0.00  0.00     0.054 A 
ENDBRANCH  17  19
ENDBRANCH   3  17
TORSDOF 3
ENDMDL
MODEL 9
REMARK VINA RESULT:    -6.344      5.931      8.284
REMARK INTER + INTRA:          -8.299
REMARK INTER:                  -7.239
REMARK INTRA:                  -1.059
REMARK CONF_INDEPENDENT:        0.895
REMARK UNBOUND:                -1.059
REMARK  3 active torsions:
REMARK  status: ('A' for Active; 'I' for Inactive)
REMARK       I    between atoms: C_2  and  N_3 
REMARK    1  A    between atoms: C_2  and  C_12 
REMARK    2  A    between atoms: N_3  and  N_4 
REMARK    3  A    between atoms: N_4  and  C_5 
ROOT
ATOM      1  O   UNL d   1      27.386 -15.375  -5.263  0.00  0.00    -0.264 OA
ATOM      2  C   UNL d   1      26.954 -14.576  -4.431  0.00  0.00     0.286 C 
ATOM      3  N   UNL d   1      26.645 -14.923  -3.121  0.00  0.00    -0.264 N 
ATOM      4  H   UNL d   1      26.313 -14.257  -2.434  0.00  0.00     0.190 HD
ENDROOT
BRANCH   2   5
ATOM      5  C   UNL d   1      26.675 -13.138  -4.832  0.00  0.00     0.106 A 
ATOM      6  C   UNL d   1      26.198 -12.238  -3.957  0.00  0.00     0.048 A 
ATOM      7  C   UNL d   1      26.019 -10.834  -4.372  0.00  0.00    -0.018 A 
ATOM      8  C   UNL d   1      25.528  -9.870  -3.484  0.00  0.00     0.012 A 
ATOM      9  C   UNL d   1      26.350 -10.440  -5.678  0.00  0.00     0.042 A 
ATOM     10  C   UNL d   1      25.361  -8.542  -3.897  0.00  0.00     0.001 A 
ATOM     11  C   UNL d   1      25.684  -8.162  -5.200  0.00  0.00     0.001 A 
ATOM     12  C   UNL d   1      26.180  -9.111  -6.094  0.00  0.00     0.018 A 
ATOM     13  C   UNL d   1      26.895 -11.462  -6.606  0.00  0.00     0.257 A 
ATOM     14  O   UNL d   1      27.213 -11.171  -7.757  0.00  0.00    -0.267 OA
ATOM     15  N   UNL d   1      27.026 -12.742  -6.109  0.00  0.00    -0.318 N 
ATOM     16  H   UNL d   1      27.449 -13.422  -6.733  0.00  0.00     0.169 HD
ENDBRANCH   2   5
BRANCH   3  17
ATOM     17  N   UNL d   1      27.004 -16.200  -2.663  0.00  0.00    -0.298 N 
ATOM     18  H   UNL d   1      27.737 -16.706  -3.163  0.00  0.00     0.187 HD
BRANCH  17  19
ATOM     19  C   UNL d   1      26.308 -16.799  -1.602  0.00  0.00     0.049 A 
ATOM     20  C   UNL d   1      26.949 -17.242  -0.437  0.00  0.00     0.031 A 
ATOM     21  C   UNL d   1      26.242 -17.892   0.587  0.00  0.00     0.004 A 
ATOM     22  C   UNL d   1      24.880 -18.143   0.448  0.00  0.00     0.024 A 
ATOM     23  C   UNL d   1      24.228 -17.715  -0.705  0.00  0.00     0.036 A 
ATOM     24 CL   UNL d   1      22.549 -18.059  -0.894  0.00  0.00    -0.084 Cl
ATOM     25  C   UNL d   1      24.926 -17.034  -1.712  0.00  0.00     0.054 A 
ENDBRANCH  17  19
ENDBRANCH   3  17
TORSDOF 3
ENDMDL
