MODEL 1
REMARK VINA RESULT:   -11.677      0.000      0.000
REMARK INTER + INTRA:         -19.432
REMARK INTER:                 -17.046
REMARK INTRA:                  -2.386
REMARK CONF_INDEPENDENT:        5.369
REMARK UNBOUND:                -2.386
REMARK  18 active torsions:
REMARK  status: ('A' for Active; 'I' for Inactive)
REMARK    1  A    between atoms: C_2  and  C_3 
REMARK    2  A    between atoms: C_3  and  C_4 
REMARK    3  A    between atoms: C_4  and  C_5 
REMARK    4  A    between atoms: C_6  and  C_5 
REMARK    5  A    between atoms: C_6  and  C_8 
REMARK    6  A    between atoms: C_6  and  O_7 
REMARK    7  A    between atoms: C_10  and  C_9 
REMARK    8  A    between atoms: C_11  and  O_12 
REMARK    9  A    between atoms: C_16  and  C_17 
REMARK   10  A    between atoms: C_17  and  C_18 
REMARK   11  A    between atoms: C_19  and  C_20 
REMARK   12  A    between atoms: C_20  and  C_21 
REMARK   13  A    between atoms: C_21  and  C_22 
REMARK   14  A    between atoms: C_22  and  C_23 
REMARK   15  A    between atoms: C_23  and  O_25 
REMARK   16  A    between atoms: O_25  and  C_26 
REMARK   17  A    between atoms: C_29  and  N_30 
REMARK       I    between atoms: N_30  and  C_31 
REMARK   18  A    between atoms: C_31  and  C_33 
ROOT
ATOM      1  C   UNL d   1      27.968 -13.360   0.683  0.00  0.00     0.027 C 
ENDROOT
BRANCH   1   2
ATOM      2  C   UNL d   1      26.807 -12.706   1.375  0.00  0.00    -0.031 C 
ATOM      3  C   UNL d   1      26.918 -12.164   2.595  0.00  0.00    -0.030 C 
BRANCH   3   4
ATOM      4  C   UNL d   1      28.214 -12.145   3.352  0.00  0.00     0.040 C 
BRANCH   4   5
ATOM      5  C   UNL d   1      28.020 -12.492   4.825  0.00  0.00     0.069 C 
ATOM      6  C   UNL d   1      27.409 -13.862   4.916  0.00  0.00     0.134 C 
ATOM      7  C   UNL d   1      28.445 -14.946   4.849  0.00  0.00     0.111 C 
ATOM      8  O   UNL d   1      26.201 -14.073   4.975  0.00  0.00    -0.297 OA
ATOM      9  C   UNL d   1      29.727 -14.207   5.230  0.00  0.00     0.133 C 
ATOM     10  C   UNL d   1      29.351 -12.736   5.558  0.00  0.00     0.048 C 
BRANCH   9  11
ATOM     11  O   UNL d   1      30.704 -14.284   4.194  0.00  0.00    -0.394 OA
ATOM     12  H   UNL d   1      31.534 -14.660   4.527  0.00  0.00     0.210 HD
ENDBRANCH   9  11
BRANCH  10  13
ATOM     13  C   UNL d   1      29.233 -12.522   7.045  0.00  0.00    -0.020 C 
ATOM     14  C   UNL d   1      29.934 -11.635   7.776  0.00  0.00     0.001 C 
BRANCH  14  15
ATOM     15  C   UNL d   1      29.768 -11.567   9.267  0.00  0.00     0.140 C 
BRANCH  15  16
ATOM     16  O   UNL d   1      29.709 -10.205   9.670  0.00  0.00    -0.392 OA
ATOM     17  H   UNL d   1      28.784  -9.915   9.603  0.00  0.00     0.210 HD
ENDBRANCH  15  16
BRANCH  15  18
ATOM     18  C   UNL d   1      28.507 -12.305   9.731  0.00  0.00     0.036 C 
BRANCH  18  19
ATOM     19  C   UNL d   1      28.861 -13.375  10.758  0.00  0.00     0.003 C 
BRANCH  19  20
ATOM     20  C   UNL d   1      28.901 -14.741  10.088  0.00  0.00    -0.000 C 
BRANCH  20  21
ATOM     21  C   UNL d   1      30.313 -15.311  10.115  0.00  0.00    -0.005 C 
ATOM     22  C   UNL d   1      31.135 -14.735   8.977  0.00  0.00     0.005 C 
ENDBRANCH  20  21
ENDBRANCH  19  20
ENDBRANCH  18  19
ENDBRANCH  15  18
ENDBRANCH  14  15
ENDBRANCH  10  13
ENDBRANCH   4   5
ENDBRANCH   3   4
ENDBRANCH   1   2
BRANCH   1  23
ATOM     23  C   UNL d   1      27.849 -14.870   0.711  0.00  0.00     0.013 C 
BRANCH  23  24
ATOM     24  C   UNL d   1      28.930 -15.554  -0.134  0.00  0.00     0.112 C 
BRANCH  24  25
ATOM     25  C   UNL d   1      28.265 -16.145  -1.355  0.00  0.00     0.264 C 
ATOM     26  O   UNL d   1      28.817 -16.977  -2.076  0.00  0.00    -0.265 OA
BRANCH  25  27
ATOM     27  O   UNL d   1      26.984 -15.623  -1.547  0.00  0.00    -0.279 OA
BRANCH  27  28
ATOM     28  C   UNL d   1      25.909 -16.455  -1.165  0.00  0.00     0.079 A 
ATOM     29  C   UNL d   1      26.166 -17.677  -0.542  0.00  0.00     0.039 A 
ATOM     30  C   UNL d   1      25.095 -18.542  -0.208  0.00  0.00     0.032 A 
ATOM     31  C   UNL d   1      23.764 -18.157  -0.434  0.00  0.00     0.035 A 
ATOM     32  C   UNL d   1      23.550 -16.945  -1.091  0.00  0.00     0.032 A 
ATOM     33  C   UNL d   1      24.599 -16.116  -1.474  0.00  0.00     0.039 A 
BRANCH  31  34
ATOM     34  N   UNL d   1      22.679 -18.966   0.019  0.00  0.00    -0.323 N 
ATOM     35  C   UNL d   1      21.336 -18.703  -0.243  0.00  0.00     0.256 C 
ATOM     36  O   UNL d   1      20.885 -17.777  -0.922  0.00  0.00    -0.267 OA
ATOM     37  H   UNL d   1      22.908 -19.770   0.591  0.00  0.00     0.169 HD
BRANCH  35  38
ATOM     38  C   UNL d   1      20.304 -19.589   0.340  0.00  0.00     0.032 A 
ATOM     39  C   UNL d   1      19.308 -20.078  -0.524  0.00  0.00     0.017 A 
ATOM     40  C   UNL d   1      18.178 -20.716  -0.012  0.00  0.00     0.001 A 
ATOM     41  C   UNL d   1      18.068 -20.920   1.360  0.00  0.00     0.000 A 
ATOM     42  C   UNL d   1      19.060 -20.443   2.222  0.00  0.00     0.001 A 
ATOM     43  C   UNL d   1      20.175 -19.765   1.718  0.00  0.00     0.017 A 
ENDBRANCH  35  38
ENDBRANCH  31  34
ENDBRANCH  27  28
ENDBRANCH  25  27
ENDBRANCH  24  25
ENDBRANCH  23  24
ENDBRANCH   1  23
TORSDOF 18
ENDMDL
MODEL 2
REMARK VINA RESULT:   -10.768      5.051      8.738
REMARK INTER + INTRA:         -19.331
REMARK INTER:                 -16.137
REMARK INTRA:                  -3.194
REMARK CONF_INDEPENDENT:        5.369
REMARK UNBOUND:                -3.194
REMARK  18 active torsions:
REMARK  status: ('A' for Active; 'I' for Inactive)
REMARK    1  A    between atoms: C_2  and  C_3 
REMARK    2  A    between atoms: C_3  and  C_4 
REMARK    3  A    between atoms: C_4  and  C_5 
REMARK    4  A    between atoms: C_6  and  C_5 
REMARK    5  A    between atoms: C_6  and  C_8 
REMARK    6  A    between atoms: C_6  and  O_7 
REMARK    7  A    between atoms: C_10  and  C_9 
REMARK    8  A    between atoms: C_11  and  O_12 
REMARK    9  A    between atoms: C_16  and  C_17 
REMARK   10  A    between atoms: C_17  and  C_18 
REMARK   11  A    between atoms: C_19  and  C_20 
REMARK   12  A    between atoms: C_20  and  C_21 
REMARK   13  A    between atoms: C_21  and  C_22 
REMARK   14  A    between atoms: C_22  and  C_23 
REMARK   15  A    between atoms: C_23  and  O_25 
REMARK   16  A    between atoms: O_25  and  C_26 
REMARK   17  A    between atoms: C_29  and  N_30 
REMARK       I    between atoms: N_30  and  C_31 
REMARK   18  A    between atoms: C_31  and  C_33 
ROOT
ATOM      1  C   UNL d   1      27.027 -14.102   0.847  0.00  0.00     0.027 C 
ENDROOT
BRANCH   1   2
ATOM      2  C   UNL d   1      27.599 -12.953   0.069  0.00  0.00    -0.031 C 
ATOM      3  C   UNL d   1      27.236 -12.697  -1.195  0.00  0.00    -0.030 C 
BRANCH   3   4
ATOM      4  C   UNL d   1      26.213 -13.523  -1.921  0.00  0.00     0.040 C 
BRANCH   4   5
ATOM      5  C   UNL d   1      26.705 -13.963  -3.295  0.00  0.00     0.069 C 
ATOM      6  C   UNL d   1      25.589 -13.777  -4.284  0.00  0.00     0.134 C 
ATOM      7  C   UNL d   1      25.531 -12.372  -4.810  0.00  0.00     0.111 C 
ATOM      8  O   UNL d   1      24.780 -14.652  -4.581  0.00  0.00    -0.297 OA
ATOM      9  C   UNL d   1      26.937 -11.847  -4.516  0.00  0.00     0.133 C 
ATOM     10  C   UNL d   1      27.756 -13.006  -3.885  0.00  0.00     0.048 C 
BRANCH   9  11
ATOM     11  O   UNL d   1      26.901 -10.702  -3.667  0.00  0.00    -0.394 OA
ATOM     12  H   UNL d   1      27.531 -10.027  -3.967  0.00  0.00     0.210 HD
ENDBRANCH   9  11
BRANCH  10  13
ATOM     13  C   UNL d   1      28.631 -13.678  -4.912  0.00  0.00    -0.020 C 
ATOM     14  C   UNL d   1      28.406 -14.875  -5.484  0.00  0.00     0.001 C 
BRANCH  14  15
ATOM     15  C   UNL d   1      29.395 -15.463  -6.449  0.00  0.00     0.140 C 
BRANCH  15  16
ATOM     16  O   UNL d   1      29.736 -14.486  -7.424  0.00  0.00    -0.392 OA
ATOM     17  H   UNL d   1      29.236 -14.688  -8.232  0.00  0.00     0.210 HD
ENDBRANCH  15  16
BRANCH  15  18
ATOM     18  C   UNL d   1      30.660 -15.954  -5.735  0.00  0.00     0.036 C 
BRANCH  18  19
ATOM     19  C   UNL d   1      31.455 -16.891  -6.638  0.00  0.00     0.003 C 
BRANCH  19  20
ATOM     20  C   UNL d   1      31.573 -18.261  -5.985  0.00  0.00    -0.000 C 
BRANCH  20  21
ATOM     21  C   UNL d   1      30.472 -19.188  -6.481  0.00  0.00    -0.005 C 
ATOM     22  C   UNL d   1      30.431 -20.453  -5.644  0.00  0.00     0.005 C 
ENDBRANCH  20  21
ENDBRANCH  19  20
ENDBRANCH  18  19
ENDBRANCH  15  18
ENDBRANCH  14  15
ENDBRANCH  10  13
ENDBRANCH   4   5
ENDBRANCH   3   4
ENDBRANCH   1   2
BRANCH   1  23
ATOM     23  C   UNL d   1      28.016 -15.245   0.951  0.00  0.00     0.013 C 
BRANCH  23  24
ATOM     24  C   UNL d   1      28.895 -15.369  -0.299  0.00  0.00     0.112 C 
BRANCH  24  25
ATOM     25  C   UNL d   1      28.486 -16.624  -1.036  0.00  0.00     0.264 C 
ATOM     26  O   UNL d   1      29.130 -17.671  -0.973  0.00  0.00    -0.265 OA
BRANCH  25  27
ATOM     27  O   UNL d   1      27.321 -16.427  -1.779  0.00  0.00    -0.279 OA
BRANCH  27  28
ATOM     28  C   UNL d   1      26.135 -16.964  -1.232  0.00  0.00     0.079 A 
ATOM     29  C   UNL d   1      24.896 -16.552  -1.728  0.00  0.00     0.039 A 
ATOM     30  C   UNL d   1      23.701 -17.043  -1.147  0.00  0.00     0.032 A 
ATOM     31  C   UNL d   1      23.743 -17.996  -0.116  0.00  0.00     0.035 A 
ATOM     32  C   UNL d   1      24.998 -18.354   0.376  0.00  0.00     0.032 A 
ATOM     33  C   UNL d   1      26.176 -17.834  -0.151  0.00  0.00     0.039 A 
BRANCH  31  34
ATOM     34  N   UNL d   1      22.545 -18.590   0.383  0.00  0.00    -0.323 N 
ATOM     35  C   UNL d   1      21.477 -18.999  -0.413  0.00  0.00     0.256 C 
ATOM     36  O   UNL d   1      21.415 -18.951  -1.645  0.00  0.00    -0.267 OA
ATOM     37  H   UNL d   1      22.463 -18.695   1.387  0.00  0.00     0.169 HD
BRANCH  35  38
ATOM     38  C   UNL d   1      20.265 -19.545   0.236  0.00  0.00     0.032 A 
ATOM     39  C   UNL d   1      20.275 -19.655   1.639  0.00  0.00     0.017 A 
ATOM     40  C   UNL d   1      19.278 -20.373   2.299  0.00  0.00     0.001 A 
ATOM     41  C   UNL d   1      18.236 -20.933   1.566  0.00  0.00     0.000 A 
ATOM     42  C   UNL d   1      18.217 -20.819   0.173  0.00  0.00     0.001 A 
ATOM     43  C   UNL d   1      19.237 -20.136  -0.499  0.00  0.00     0.017 A 
ENDBRANCH  35  38
ENDBRANCH  31  34
ENDBRANCH  27  28
ENDBRANCH  25  27
ENDBRANCH  24  25
ENDBRANCH  23  24
ENDBRANCH   1  23
TORSDOF 18
ENDMDL
MODEL 3
REMARK VINA RESULT:   -10.648      3.033      6.262
REMARK INTER + INTRA:         -19.456
REMARK INTER:                 -16.017
REMARK INTRA:                  -3.438
REMARK CONF_INDEPENDENT:        5.369
REMARK UNBOUND:                -3.438
REMARK  18 active torsions:
REMARK  status: ('A' for Active; 'I' for Inactive)
REMARK    1  A    between atoms: C_2  and  C_3 
REMARK    2  A    between atoms: C_3  and  C_4 
REMARK    3  A    between atoms: C_4  and  C_5 
REMARK    4  A    between atoms: C_6  and  C_5 
REMARK    5  A    between atoms: C_6  and  C_8 
REMARK    6  A    between atoms: C_6  and  O_7 
REMARK    7  A    between atoms: C_10  and  C_9 
REMARK    8  A    between atoms: C_11  and  O_12 
REMARK    9  A    between atoms: C_16  and  C_17 
REMARK   10  A    between atoms: C_17  and  C_18 
REMARK   11  A    between atoms: C_19  and  C_20 
REMARK   12  A    between atoms: C_20  and  C_21 
REMARK   13  A    between atoms: C_21  and  C_22 
REMARK   14  A    between atoms: C_22  and  C_23 
REMARK   15  A    between atoms: C_23  and  O_25 
REMARK   16  A    between atoms: O_25  and  C_26 
REMARK   17  A    between atoms: C_29  and  N_30 
REMARK       I    between atoms: N_30  and  C_31 
REMARK   18  A    between atoms: C_31  and  C_33 
ROOT
ATOM      1  C   UNL d   1      29.534 -16.688  -3.583  0.00  0.00     0.027 C 
ENDROOT
BRANCH   1   2
ATOM      2  C   UNL d   1      29.583 -16.219  -5.009  0.00  0.00    -0.031 C 
ATOM      3  C   UNL d   1      28.568 -15.555  -5.576  0.00  0.00    -0.030 C 
BRANCH   3   4
ATOM      4  C   UNL d   1      27.316 -15.206  -4.826  0.00  0.00     0.040 C 
BRANCH   4   5
ATOM      5  C   UNL d   1      27.533 -14.046  -3.860  0.00  0.00     0.069 C 
ATOM      6  C   UNL d   1      27.351 -12.758  -4.612  0.00  0.00     0.134 C 
ATOM      7  C   UNL d   1      25.908 -12.353  -4.695  0.00  0.00     0.111 C 
ATOM      8  O   UNL d   1      28.266 -12.141  -5.150  0.00  0.00    -0.297 OA
ATOM      9  C   UNL d   1      25.274 -13.141  -3.548  0.00  0.00     0.133 C 
ATOM     10  C   UNL d   1      26.405 -13.919  -2.821  0.00  0.00     0.048 C 
BRANCH   9  11
ATOM     11  O   UNL d   1      24.249 -14.014  -4.016  0.00  0.00    -0.394 OA
ATOM     12  H   UNL d   1      23.961 -13.765  -4.909  0.00  0.00     0.210 HD
ENDBRANCH   9  11
BRANCH  10  13
ATOM     13  C   UNL d   1      26.851 -13.196  -1.576  0.00  0.00    -0.020 C 
ATOM     14  C   UNL d   1      26.838 -13.691  -0.325  0.00  0.00     0.001 C 
BRANCH  14  15
ATOM     15  C   UNL d   1      27.250 -12.840   0.842  0.00  0.00     0.140 C 
BRANCH  15  16
ATOM     16  O   UNL d   1      26.147 -12.692   1.727  0.00  0.00    -0.392 OA
ATOM     17  H   UNL d   1      26.114 -13.481   2.294  0.00  0.00     0.210 HD
ENDBRANCH  15  16
BRANCH  15  18
ATOM     18  C   UNL d   1      28.444 -13.444   1.590  0.00  0.00     0.036 C 
BRANCH  18  19
ATOM     19  C   UNL d   1      28.003 -14.641   2.424  0.00  0.00     0.003 C 
BRANCH  19  20
ATOM     20  C   UNL d   1      28.471 -14.470   3.862  0.00  0.00    -0.000 C 
BRANCH  20  21
ATOM     21  C   UNL d   1      27.429 -13.721   4.681  0.00  0.00    -0.005 C 
ATOM     22  C   UNL d   1      27.779 -12.247   4.758  0.00  0.00     0.005 C 
ENDBRANCH  20  21
ENDBRANCH  19  20
ENDBRANCH  18  19
ENDBRANCH  15  18
ENDBRANCH  14  15
ENDBRANCH  10  13
ENDBRANCH   4   5
ENDBRANCH   3   4
ENDBRANCH   1   2
BRANCH   1  23
ATOM     23  C   UNL d   1      30.140 -15.666  -2.644  0.00  0.00     0.013 C 
BRANCH  23  24
ATOM     24  C   UNL d   1      29.452 -15.654  -1.273  0.00  0.00     0.112 C 
BRANCH  24  25
ATOM     25  C   UNL d   1      28.426 -16.763  -1.256  0.00  0.00     0.264 C 
ATOM     26  O   UNL d   1      28.656 -17.875  -0.780  0.00  0.00    -0.265 OA
BRANCH  25  27
ATOM     27  O   UNL d   1      27.225 -16.361  -1.843  0.00  0.00    -0.279 OA
BRANCH  27  28
ATOM     28  C   UNL d   1      26.046 -16.904  -1.287  0.00  0.00     0.079 A 
ATOM     29  C   UNL d   1      24.813 -16.639  -1.886  0.00  0.00     0.039 A 
ATOM     30  C   UNL d   1      23.620 -17.133  -1.302  0.00  0.00     0.032 A 
ATOM     31  C   UNL d   1      23.665 -17.947  -0.158  0.00  0.00     0.035 A 
ATOM     32  C   UNL d   1      24.912 -18.158   0.431  0.00  0.00     0.032 A 
ATOM     33  C   UNL d   1      26.082 -17.630  -0.105  0.00  0.00     0.039 A 
BRANCH  31  34
ATOM     34  N   UNL d   1      22.480 -18.554   0.357  0.00  0.00    -0.323 N 
ATOM     35  C   UNL d   1      21.413 -18.990  -0.425  0.00  0.00     0.256 C 
ATOM     36  O   UNL d   1      21.341 -18.958  -1.657  0.00  0.00    -0.267 OA
ATOM     37  H   UNL d   1      22.407 -18.647   1.363  0.00  0.00     0.169 HD
BRANCH  35  38
ATOM     38  C   UNL d   1      20.215 -19.546   0.240  0.00  0.00     0.032 A 
ATOM     39  C   UNL d   1      20.269 -19.718   1.636  0.00  0.00     0.017 A 
ATOM     40  C   UNL d   1      19.283 -20.450   2.297  0.00  0.00     0.001 A 
ATOM     41  C   UNL d   1      18.209 -20.963   1.577  0.00  0.00     0.000 A 
ATOM     42  C   UNL d   1      18.146 -20.787   0.191  0.00  0.00     0.001 A 
ATOM     43  C   UNL d   1      19.154 -20.090  -0.485  0.00  0.00     0.017 A 
ENDBRANCH  35  38
ENDBRANCH  31  34
ENDBRANCH  27  28
ENDBRANCH  25  27
ENDBRANCH  24  25
ENDBRANCH  23  24
ENDBRANCH   1  23
TORSDOF 18
ENDMDL
MODEL 4
REMARK VINA RESULT:   -10.198      4.760      8.087
REMARK INTER + INTRA:         -20.132
REMARK INTER:                 -15.567
REMARK INTRA:                  -4.565
REMARK CONF_INDEPENDENT:        5.369
REMARK UNBOUND:                -4.565
REMARK  18 active torsions:
REMARK  status: ('A' for Active; 'I' for Inactive)
REMARK    1  A    between atoms: C_2  and  C_3 
REMARK    2  A    between atoms: C_3  and  C_4 
REMARK    3  A    between atoms: C_4  and  C_5 
REMARK    4  A    between atoms: C_6  and  C_5 
REMARK    5  A    between atoms: C_6  and  C_8 
REMARK    6  A    between atoms: C_6  and  O_7 
REMARK    7  A    between atoms: C_10  and  C_9 
REMARK    8  A    between atoms: C_11  and  O_12 
REMARK    9  A    between atoms: C_16  and  C_17 
REMARK   10  A    between atoms: C_17  and  C_18 
REMARK   11  A    between atoms: C_19  and  C_20 
REMARK   12  A    between atoms: C_20  and  C_21 
REMARK   13  A    between atoms: C_21  and  C_22 
REMARK   14  A    between atoms: C_22  and  C_23 
REMARK   15  A    between atoms: C_23  and  O_25 
REMARK   16  A    between atoms: O_25  and  C_26 
REMARK   17  A    between atoms: C_29  and  N_30 
REMARK       I    between atoms: N_30  and  C_31 
REMARK   18  A    between atoms: C_31  and  C_33 
ROOT
ATOM      1  C   UNL d   1      26.523 -13.596  -0.114  0.00  0.00     0.027 C 
ENDROOT
BRANCH   1   2
ATOM      2  C   UNL d   1      27.606 -13.489   0.920  0.00  0.00    -0.031 C 
ATOM      3  C   UNL d   1      28.513 -14.456   1.105  0.00  0.00    -0.030 C 
BRANCH   3   4
ATOM      4  C   UNL d   1      28.533 -15.709   0.278  0.00  0.00     0.040 C 
BRANCH   4   5
ATOM      5  C   UNL d   1      29.124 -15.470  -1.108  0.00  0.00     0.069 C 
ATOM      6  C   UNL d   1      30.607 -15.277  -0.967  0.00  0.00     0.134 C 
ATOM      7  C   UNL d   1      31.344 -16.584  -0.933  0.00  0.00     0.111 C 
ATOM      8  O   UNL d   1      31.148 -14.183  -0.833  0.00  0.00    -0.297 OA
ATOM      9  C   UNL d   1      30.343 -17.549  -1.567  0.00  0.00     0.133 C 
ATOM     10  C   UNL d   1      29.094 -16.729  -1.992  0.00  0.00     0.048 C 
BRANCH   9  11
ATOM     11  O   UNL d   1      30.002 -18.610  -0.678  0.00  0.00    -0.394 OA
ATOM     12  H   UNL d   1      30.273 -18.402   0.230  0.00  0.00     0.210 HD
ENDBRANCH   9  11
BRANCH  10  13
ATOM     13  C   UNL d   1      29.132 -16.399  -3.462  0.00  0.00    -0.020 C 
ATOM     14  C   UNL d   1      28.485 -15.383  -4.063  0.00  0.00     0.001 C 
BRANCH  14  15
ATOM     15  C   UNL d   1      28.555 -15.202  -5.552  0.00  0.00     0.140 C 
BRANCH  15  16
ATOM     16  O   UNL d   1      27.269 -15.434  -6.113  0.00  0.00    -0.392 OA
ATOM     17  H   UNL d   1      26.667 -14.757  -5.763  0.00  0.00     0.210 HD
ENDBRANCH  15  16
BRANCH  15  18
ATOM     18  C   UNL d   1      29.046 -13.800  -5.929  0.00  0.00     0.036 C 
BRANCH  18  19
ATOM     19  C   UNL d   1      28.223 -12.734  -5.214  0.00  0.00     0.003 C 
BRANCH  19  20
ATOM     20  C   UNL d   1      28.198 -11.457  -6.042  0.00  0.00    -0.000 C 
BRANCH  20  21
ATOM     21  C   UNL d   1      26.766 -11.059  -6.371  0.00  0.00    -0.005 C 
ATOM     22  C   UNL d   1      25.905 -11.108  -5.123  0.00  0.00     0.005 C 
ENDBRANCH  20  21
ENDBRANCH  19  20
ENDBRANCH  18  19
ENDBRANCH  15  18
ENDBRANCH  14  15
ENDBRANCH  10  13
ENDBRANCH   4   5
ENDBRANCH   3   4
ENDBRANCH   1   2
BRANCH   1  23
ATOM     23  C   UNL d   1      27.009 -13.138  -1.473  0.00  0.00     0.013 C 
BRANCH  23  24
ATOM     24  C   UNL d   1      25.867 -13.023  -2.491  0.00  0.00     0.112 C 
BRANCH  24  25
ATOM     25  C   UNL d   1      25.693 -14.369  -3.154  0.00  0.00     0.264 C 
ATOM     26  O   UNL d   1      25.155 -14.505  -4.252  0.00  0.00    -0.265 OA
BRANCH  25  27
ATOM     27  O   UNL d   1      26.204 -15.401  -2.364  0.00  0.00    -0.279 OA
BRANCH  27  28
ATOM     28  C   UNL d   1      25.253 -16.230  -1.729  0.00  0.00     0.079 A 
ATOM     29  C   UNL d   1      23.925 -15.809  -1.629  0.00  0.00     0.039 A 
ATOM     30  C   UNL d   1      22.978 -16.608  -0.944  0.00  0.00     0.032 A 
ATOM     31  C   UNL d   1      23.341 -17.859  -0.417  0.00  0.00     0.035 A 
ATOM     32  C   UNL d   1      24.683 -18.226  -0.506  0.00  0.00     0.032 A 
ATOM     33  C   UNL d   1      25.632 -17.421  -1.127  0.00  0.00     0.039 A 
BRANCH  31  34
ATOM     34  N   UNL d   1      22.362 -18.724   0.158  0.00  0.00    -0.323 N 
ATOM     35  C   UNL d   1      21.038 -18.810  -0.267  0.00  0.00     0.256 C 
ATOM     36  O   UNL d   1      20.525 -18.198  -1.207  0.00  0.00    -0.267 OA
ATOM     37  H   UNL d   1      22.651 -19.293   0.944  0.00  0.00     0.169 HD
BRANCH  35  38
ATOM     38  C   UNL d   1      20.109 -19.705   0.456  0.00  0.00     0.032 A 
ATOM     39  C   UNL d   1      19.114 -20.354  -0.298  0.00  0.00     0.017 A 
ATOM     40  C   UNL d   1      18.064 -21.017   0.336  0.00  0.00     0.001 A 
ATOM     41  C   UNL d   1      18.036 -21.085   1.726  0.00  0.00     0.000 A 
ATOM     42  C   UNL d   1      19.027 -20.450   2.480  0.00  0.00     0.001 A 
ATOM     43  C   UNL d   1      20.060 -19.747   1.850  0.00  0.00     0.017 A 
ENDBRANCH  35  38
ENDBRANCH  31  34
ENDBRANCH  27  28
ENDBRANCH  25  27
ENDBRANCH  24  25
ENDBRANCH  23  24
ENDBRANCH   1  23
TORSDOF 18
ENDMDL
MODEL 5
REMARK VINA RESULT:    -9.994      4.972      8.455
REMARK INTER + INTRA:         -19.442
REMARK INTER:                 -15.363
REMARK INTRA:                  -4.079
REMARK CONF_INDEPENDENT:        5.369
REMARK UNBOUND:                -4.079
REMARK  18 active torsions:
REMARK  status: ('A' for Active; 'I' for Inactive)
REMARK    1  A    between atoms: C_2  and  C_3 
REMARK    2  A    between atoms: C_3  and  C_4 
REMARK    3  A    between atoms: C_4  and  C_5 
REMARK    4  A    between atoms: C_6  and  C_5 
REMARK    5  A    between atoms: C_6  and  C_8 
REMARK    6  A    between atoms: C_6  and  O_7 
REMARK    7  A    between atoms: C_10  and  C_9 
REMARK    8  A    between atoms: C_11  and  O_12 
REMARK    9  A    between atoms: C_16  and  C_17 
REMARK   10  A    between atoms: C_17  and  C_18 
REMARK   11  A    between atoms: C_19  and  C_20 
REMARK   12  A    between atoms: C_20  and  C_21 
REMARK   13  A    between atoms: C_21  and  C_22 
REMARK   14  A    between atoms: C_22  and  C_23 
REMARK   15  A    between atoms: C_23  and  O_25 
REMARK   16  A    between atoms: O_25  and  C_26 
REMARK   17  A    between atoms: C_29  and  N_30 
REMARK       I    between atoms: N_30  and  C_31 
REMARK   18  A    between atoms: C_31  and  C_33 
ROOT
ATOM      1  C   UNL d   1      27.083 -14.388   0.948  0.00  0.00     0.027 C 
ENDROOT
BRANCH   1   2
ATOM      2  C   UNL d   1      27.371 -13.066   0.298  0.00  0.00    -0.031 C 
ATOM      3  C   UNL d   1      27.012 -12.799  -0.964  0.00  0.00    -0.030 C 
BRANCH   3   4
ATOM      4  C   UNL d   1      26.275 -13.790  -1.818  0.00  0.00     0.040 C 
BRANCH   4   5
ATOM      5  C   UNL d   1      26.862 -13.884  -3.222  0.00  0.00     0.069 C 
ATOM      6  C   UNL d   1      25.791 -14.372  -4.156  0.00  0.00     0.134 C 
ATOM      7  C   UNL d   1      24.921 -13.252  -4.648  0.00  0.00     0.111 C 
ATOM      8  O   UNL d   1      25.608 -15.553  -4.435  0.00  0.00    -0.297 OA
ATOM      9  C   UNL d   1      25.793 -12.020  -4.406  0.00  0.00     0.133 C 
ATOM     10  C   UNL d   1      27.154 -12.504  -3.837  0.00  0.00     0.048 C 
BRANCH   9  11
ATOM     11  O   UNL d   1      25.155 -11.091  -3.533  0.00  0.00    -0.394 OA
ATOM     12  H   UNL d   1      24.657 -10.426  -4.035  0.00  0.00     0.210 HD
ENDBRANCH   9  11
BRANCH  10  13
ATOM     13  C   UNL d   1      28.205 -12.568  -4.916  0.00  0.00    -0.020 C 
ATOM     14  C   UNL d   1      27.978 -12.706  -6.235  0.00  0.00     0.001 C 
BRANCH  14  15
ATOM     15  C   UNL d   1      29.121 -12.823  -7.203  0.00  0.00     0.140 C 
BRANCH  15  16
ATOM     16  O   UNL d   1      30.015 -11.736  -7.004  0.00  0.00    -0.392 OA
ATOM     17  H   UNL d   1      30.687 -12.018  -6.361  0.00  0.00     0.210 HD
ENDBRANCH  15  16
BRANCH  15  18
ATOM     18  C   UNL d   1      29.868 -14.152  -7.040  0.00  0.00     0.036 C 
BRANCH  18  19
ATOM     19  C   UNL d   1      28.933 -15.228  -6.498  0.00  0.00     0.003 C 
BRANCH  19  20
ATOM     20  C   UNL d   1      29.720 -16.218  -5.651  0.00  0.00    -0.000 C 
BRANCH  20  21
ATOM     21  C   UNL d   1      29.297 -16.129  -4.191  0.00  0.00    -0.005 C 
ATOM     22  C   UNL d   1      30.165 -15.130  -3.450  0.00  0.00     0.005 C 
ENDBRANCH  20  21
ENDBRANCH  19  20
ENDBRANCH  18  19
ENDBRANCH  15  18
ENDBRANCH  14  15
ENDBRANCH  10  13
ENDBRANCH   4   5
ENDBRANCH   3   4
ENDBRANCH   1   2
BRANCH   1  23
ATOM     23  C   UNL d   1      28.338 -15.227   1.074  0.00  0.00     0.013 C 
BRANCH  23  24
ATOM     24  C   UNL d   1      29.038 -15.432  -0.275  0.00  0.00     0.112 C 
BRANCH  24  25
ATOM     25  C   UNL d   1      28.512 -16.709  -0.887  0.00  0.00     0.264 C 
ATOM     26  O   UNL d   1      29.060 -17.800  -0.722  0.00  0.00    -0.265 OA
BRANCH  25  27
ATOM     27  O   UNL d   1      27.363 -16.482  -1.645  0.00  0.00    -0.279 OA
BRANCH  27  28
ATOM     28  C   UNL d   1      26.158 -17.000  -1.123  0.00  0.00     0.079 A 
ATOM     29  C   UNL d   1      24.952 -16.740  -1.777  0.00  0.00     0.039 A 
ATOM     30  C   UNL d   1      23.733 -17.209  -1.228  0.00  0.00     0.032 A 
ATOM     31  C   UNL d   1      23.724 -17.993  -0.063  0.00  0.00     0.035 A 
ATOM     32  C   UNL d   1      24.945 -18.200   0.579  0.00  0.00     0.032 A 
ATOM     33  C   UNL d   1      26.140 -17.696   0.078  0.00  0.00     0.039 A 
BRANCH  31  34
ATOM     34  N   UNL d   1      22.514 -18.576   0.419  0.00  0.00    -0.323 N 
ATOM     35  C   UNL d   1      21.473 -19.018  -0.394  0.00  0.00     0.256 C 
ATOM     36  O   UNL d   1      21.447 -19.012  -1.627  0.00  0.00    -0.267 OA
ATOM     37  H   UNL d   1      22.402 -18.647   1.424  0.00  0.00     0.169 HD
BRANCH  35  38
ATOM     38  C   UNL d   1      20.244 -19.548   0.238  0.00  0.00     0.032 A 
ATOM     39  C   UNL d   1      20.252 -19.712   1.635  0.00  0.00     0.017 A 
ATOM     40  C   UNL d   1      19.233 -20.420   2.270  0.00  0.00     0.001 A 
ATOM     41  C   UNL d   1      18.171 -20.917   1.520  0.00  0.00     0.000 A 
ATOM     42  C   UNL d   1      18.154 -20.749   0.132  0.00  0.00     0.001 A 
ATOM     43  C   UNL d   1      19.196 -20.075  -0.517  0.00  0.00     0.017 A 
ENDBRANCH  35  38
ENDBRANCH  31  34
ENDBRANCH  27  28
ENDBRANCH  25  27
ENDBRANCH  24  25
ENDBRANCH  23  24
ENDBRANCH   1  23
TORSDOF 18
ENDMDL
MODEL 6
REMARK VINA RESULT:    -9.857      5.928      8.240
REMARK INTER + INTRA:         -19.757
REMARK INTER:                 -15.227
REMARK INTRA:                  -4.531
REMARK CONF_INDEPENDENT:        5.369
REMARK UNBOUND:                -4.531
REMARK  18 active torsions:
REMARK  status: ('A' for Active; 'I' for Inactive)
REMARK    1  A    between atoms: C_2  and  C_3 
REMARK    2  A    between atoms: C_3  and  C_4 
REMARK    3  A    between atoms: C_4  and  C_5 
REMARK    4  A    between atoms: C_6  and  C_5 
REMARK    5  A    between atoms: C_6  and  C_8 
REMARK    6  A    between atoms: C_6  and  O_7 
REMARK    7  A    between atoms: C_10  and  C_9 
REMARK    8  A    between atoms: C_11  and  O_12 
REMARK    9  A    between atoms: C_16  and  C_17 
REMARK   10  A    between atoms: C_17  and  C_18 
REMARK   11  A    between atoms: C_19  and  C_20 
REMARK   12  A    between atoms: C_20  and  C_21 
REMARK   13  A    between atoms: C_21  and  C_22 
REMARK   14  A    between atoms: C_22  and  C_23 
REMARK   15  A    between atoms: C_23  and  O_25 
REMARK   16  A    between atoms: O_25  and  C_26 
REMARK   17  A    between atoms: C_29  and  N_30 
REMARK       I    between atoms: N_30  and  C_31 
REMARK   18  A    between atoms: C_31  and  C_33 
ROOT
ATOM      1  C   UNL d   1      29.577 -15.321  -3.100  0.00  0.00     0.027 C 
ENDROOT
BRANCH   1   2
ATOM      2  C   UNL d   1      29.560 -15.140  -4.590  0.00  0.00    -0.031 C 
ATOM      3  C   UNL d   1      28.418 -15.033  -5.282  0.00  0.00    -0.030 C 
BRANCH   3   4
ATOM      4  C   UNL d   1      27.070 -15.061  -4.620  0.00  0.00     0.040 C 
BRANCH   4   5
ATOM      5  C   UNL d   1      26.354 -13.719  -4.727  0.00  0.00     0.069 C 
ATOM      6  C   UNL d   1      25.167 -13.737  -3.805  0.00  0.00     0.134 C 
ATOM      7  C   UNL d   1      25.541 -13.368  -2.399  0.00  0.00     0.111 C 
ATOM      8  O   UNL d   1      24.037 -14.074  -4.146  0.00  0.00    -0.297 OA
ATOM      9  C   UNL d   1      26.868 -12.633  -2.588  0.00  0.00     0.133 C 
ATOM     10  C   UNL d   1      27.161 -12.563  -4.112  0.00  0.00     0.048 C 
BRANCH   9  11
ATOM     11  O   UNL d   1      27.926 -13.268  -1.874  0.00  0.00    -0.394 OA
ATOM     12  H   UNL d   1      27.639 -14.124  -1.517  0.00  0.00     0.210 HD
ENDBRANCH   9  11
BRANCH  10  13
ATOM     13  C   UNL d   1      26.771 -11.224  -4.682  0.00  0.00    -0.020 C 
ATOM     14  C   UNL d   1      25.658 -10.529  -4.382  0.00  0.00     0.001 C 
BRANCH  14  15
ATOM     15  C   UNL d   1      25.354  -9.231  -5.073  0.00  0.00     0.140 C 
BRANCH  15  16
ATOM     16  O   UNL d   1      24.213  -8.634  -4.469  0.00  0.00    -0.392 OA
ATOM     17  H   UNL d   1      24.347  -8.646  -3.507  0.00  0.00     0.210 HD
ENDBRANCH  15  16
BRANCH  15  18
ATOM     18  C   UNL d   1      26.543  -8.265  -5.013  0.00  0.00     0.036 C 
BRANCH  18  19
ATOM     19  C   UNL d   1      26.232  -7.090  -4.093  0.00  0.00     0.003 C 
BRANCH  19  20
ATOM     20  C   UNL d   1      26.798  -7.355  -2.705  0.00  0.00    -0.000 C 
BRANCH  20  21
ATOM     21  C   UNL d   1      25.684  -7.711  -1.730  0.00  0.00    -0.005 C 
ATOM     22  C   UNL d   1      26.255  -8.403  -0.506  0.00  0.00     0.005 C 
ENDBRANCH  20  21
ENDBRANCH  19  20
ENDBRANCH  18  19
ENDBRANCH  15  18
ENDBRANCH  14  15
ENDBRANCH  10  13
ENDBRANCH   4   5
ENDBRANCH   3   4
ENDBRANCH   1   2
BRANCH   1  23
ATOM     23  C   UNL d   1      29.793 -16.772  -2.722  0.00  0.00     0.013 C 
BRANCH  23  24
ATOM     24  C   UNL d   1      29.351 -17.071  -1.285  0.00  0.00     0.112 C 
BRANCH  24  25
ATOM     25  C   UNL d   1      28.252 -16.101  -0.921  0.00  0.00     0.264 C 
ATOM     26  O   UNL d   1      28.339 -15.323   0.029  0.00  0.00    -0.265 OA
BRANCH  25  27
ATOM     27  O   UNL d   1      27.159 -16.216  -1.781  0.00  0.00    -0.279 OA
BRANCH  27  28
ATOM     28  C   UNL d   1      25.990 -16.787  -1.232  0.00  0.00     0.079 A 
ATOM     29  C   UNL d   1      24.740 -16.265  -1.570  0.00  0.00     0.039 A 
ATOM     30  C   UNL d   1      23.566 -16.795  -0.980  0.00  0.00     0.032 A 
ATOM     31  C   UNL d   1      23.636 -17.890  -0.103  0.00  0.00     0.035 A 
ATOM     32  C   UNL d   1      24.904 -18.359   0.237  0.00  0.00     0.032 A 
ATOM     33  C   UNL d   1      26.065 -17.808  -0.295  0.00  0.00     0.039 A 
BRANCH  31  34
ATOM     34  N   UNL d   1      22.449 -18.510   0.391  0.00  0.00    -0.323 N 
ATOM     35  C   UNL d   1      21.415 -18.986  -0.412  0.00  0.00     0.256 C 
ATOM     36  O   UNL d   1      21.377 -18.982  -1.645  0.00  0.00    -0.267 OA
ATOM     37  H   UNL d   1      22.349 -18.584   1.396  0.00  0.00     0.169 HD
BRANCH  35  38
ATOM     38  C   UNL d   1      20.209 -19.553   0.231  0.00  0.00     0.032 A 
ATOM     39  C   UNL d   1      20.232 -19.708   1.629  0.00  0.00     0.017 A 
ATOM     40  C   UNL d   1      19.242 -20.447   2.276  0.00  0.00     0.001 A 
ATOM     41  C   UNL d   1      18.193 -20.985   1.536  0.00  0.00     0.000 A 
ATOM     42  C   UNL d   1      18.161 -20.825   0.147  0.00  0.00     0.001 A 
ATOM     43  C   UNL d   1      19.174 -20.120  -0.513  0.00  0.00     0.017 A 
ENDBRANCH  35  38
ENDBRANCH  31  34
ENDBRANCH  27  28
ENDBRANCH  25  27
ENDBRANCH  24  25
ENDBRANCH  23  24
ENDBRANCH   1  23
TORSDOF 18
ENDMDL
MODEL 7
REMARK VINA RESULT:    -9.685      4.574      8.009
REMARK INTER + INTRA:         -19.381
REMARK INTER:                 -15.054
REMARK INTRA:                  -4.327
REMARK CONF_INDEPENDENT:        5.369
REMARK UNBOUND:                -4.327
REMARK  18 active torsions:
REMARK  status: ('A' for Active; 'I' for Inactive)
REMARK    1  A    between atoms: C_2  and  C_3 
REMARK    2  A    between atoms: C_3  and  C_4 
REMARK    3  A    between atoms: C_4  and  C_5 
REMARK    4  A    between atoms: C_6  and  C_5 
REMARK    5  A    between atoms: C_6  and  C_8 
REMARK    6  A    between atoms: C_6  and  O_7 
REMARK    7  A    between atoms: C_10  and  C_9 
REMARK    8  A    between atoms: C_11  and  O_12 
REMARK    9  A    between atoms: C_16  and  C_17 
REMARK   10  A    between atoms: C_17  and  C_18 
REMARK   11  A    between atoms: C_19  and  C_20 
REMARK   12  A    between atoms: C_20  and  C_21 
REMARK   13  A    between atoms: C_21  and  C_22 
REMARK   14  A    between atoms: C_22  and  C_23 
REMARK   15  A    between atoms: C_23  and  O_25 
REMARK   16  A    between atoms: O_25  and  C_26 
REMARK   17  A    between atoms: C_29  and  N_30 
REMARK       I    between atoms: N_30  and  C_31 
REMARK   18  A    between atoms: C_31  and  C_33 
ROOT
ATOM      1  C   UNL d   1      26.538 -13.979  -0.239  0.00  0.00     0.027 C 
ENDROOT
BRANCH   1   2
ATOM      2  C   UNL d   1      27.308 -13.267   0.836  0.00  0.00    -0.031 C 
ATOM      3  C   UNL d   1      28.386 -13.807   1.418  0.00  0.00    -0.030 C 
BRANCH   3   4
ATOM      4  C   UNL d   1      28.922 -15.154   1.025  0.00  0.00     0.040 C 
BRANCH   4   5
ATOM      5  C   UNL d   1      29.254 -15.225  -0.461  0.00  0.00     0.069 C 
ATOM      6  C   UNL d   1      30.482 -14.397  -0.716  0.00  0.00     0.134 C 
ATOM      7  C   UNL d   1      31.744 -15.165  -0.449  0.00  0.00     0.111 C 
ATOM      8  O   UNL d   1      30.458 -13.214  -1.044  0.00  0.00    -0.297 OA
ATOM      9  C   UNL d   1      31.273 -16.617  -0.523  0.00  0.00     0.133 C 
ATOM     10  C   UNL d   1      29.764 -16.611  -0.891  0.00  0.00     0.048 C 
BRANCH   9  11
ATOM     11  O   UNL d   1      31.516 -17.309   0.700  0.00  0.00    -0.394 OA
ATOM     12  H   UNL d   1      30.835 -17.101   1.359  0.00  0.00     0.210 HD
ENDBRANCH   9  11
BRANCH  10  13
ATOM     13  C   UNL d   1      29.561 -16.867  -2.362  0.00  0.00    -0.020 C 
ATOM     14  C   UNL d   1      29.459 -15.929  -3.323  0.00  0.00     0.001 C 
BRANCH  14  15
ATOM     15  C   UNL d   1      29.191 -16.317  -4.749  0.00  0.00     0.140 C 
BRANCH  15  16
ATOM     16  O   UNL d   1      27.998 -15.682  -5.191  0.00  0.00    -0.392 OA
ATOM     17  H   UNL d   1      27.264 -16.024  -4.654  0.00  0.00     0.210 HD
ENDBRANCH  15  16
BRANCH  15  18
ATOM     18  C   UNL d   1      30.358 -15.937  -5.668  0.00  0.00     0.036 C 
BRANCH  18  19
ATOM     19  C   UNL d   1      30.761 -17.123  -6.538  0.00  0.00     0.003 C 
BRANCH  19  20
ATOM     20  C   UNL d   1      30.403 -18.425  -5.835  0.00  0.00    -0.000 C 
BRANCH  20  21
ATOM     21  C   UNL d   1      31.141 -19.597  -6.468  0.00  0.00    -0.005 C 
ATOM     22  C   UNL d   1      30.781 -19.716  -7.937  0.00  0.00     0.005 C 
ENDBRANCH  20  21
ENDBRANCH  19  20
ENDBRANCH  18  19
ENDBRANCH  15  18
ENDBRANCH  14  15
ENDBRANCH  10  13
ENDBRANCH   4   5
ENDBRANCH   3   4
ENDBRANCH   1   2
BRANCH   1  23
ATOM     23  C   UNL d   1      26.284 -13.076  -1.428  0.00  0.00     0.013 C 
BRANCH  23  24
ATOM     24  C   UNL d   1      27.007 -13.559  -2.691  0.00  0.00     0.112 C 
BRANCH  24  25
ATOM     25  C   UNL d   1      26.326 -14.821  -3.166  0.00  0.00     0.264 C 
ATOM     26  O   UNL d   1      25.531 -14.834  -4.107  0.00  0.00    -0.265 OA
BRANCH  25  27
ATOM     27  O   UNL d   1      26.706 -15.929  -2.406  0.00  0.00    -0.279 OA
BRANCH  27  28
ATOM     28  C   UNL d   1      25.668 -16.611  -1.735  0.00  0.00     0.079 A 
ATOM     29  C   UNL d   1      24.341 -16.226  -1.940  0.00  0.00     0.039 A 
ATOM     30  C   UNL d   1      23.299 -16.868  -1.227  0.00  0.00     0.032 A 
ATOM     31  C   UNL d   1      23.574 -17.939  -0.361  0.00  0.00     0.035 A 
ATOM     32  C   UNL d   1      24.914 -18.269  -0.157  0.00  0.00     0.032 A 
ATOM     33  C   UNL d   1      25.948 -17.607  -0.810  0.00  0.00     0.039 A 
BRANCH  31  34
ATOM     34  N   UNL d   1      22.518 -18.673   0.257  0.00  0.00    -0.323 N 
ATOM     35  C   UNL d   1      21.382 -19.131  -0.408  0.00  0.00     0.256 C 
ATOM     36  O   UNL d   1      21.133 -19.012  -1.610  0.00  0.00    -0.267 OA
ATOM     37  H   UNL d   1      22.595 -18.847   1.252  0.00  0.00     0.169 HD
BRANCH  35  38
ATOM     38  C   UNL d   1      20.330 -19.828   0.365  0.00  0.00     0.032 A 
ATOM     39  C   UNL d   1      19.247 -20.366  -0.353  0.00  0.00     0.017 A 
ATOM     40  C   UNL d   1      18.112 -20.822   0.315  0.00  0.00     0.001 A 
ATOM     41  C   UNL d   1      18.077 -20.796   1.706  0.00  0.00     0.000 A 
ATOM     42  C   UNL d   1      19.155 -20.270   2.425  0.00  0.00     0.001 A 
ATOM     43  C   UNL d   1      20.280 -19.772   1.759  0.00  0.00     0.017 A 
ENDBRANCH  35  38
ENDBRANCH  31  34
ENDBRANCH  27  28
ENDBRANCH  25  27
ENDBRANCH  24  25
ENDBRANCH  23  24
ENDBRANCH   1  23
TORSDOF 18
ENDMDL
MODEL 8
REMARK VINA RESULT:    -9.663      5.377      9.045
REMARK INTER + INTRA:         -19.066
REMARK INTER:                 -15.032
REMARK INTRA:                  -4.034
REMARK CONF_INDEPENDENT:        5.369
REMARK UNBOUND:                -4.034
REMARK  18 active torsions:
REMARK  status: ('A' for Active; 'I' for Inactive)
REMARK    1  A    between atoms: C_2  and  C_3 
REMARK    2  A    between atoms: C_3  and  C_4 
REMARK    3  A    between atoms: C_4  and  C_5 
REMARK    4  A    between atoms: C_6  and  C_5 
REMARK    5  A    between atoms: C_6  and  C_8 
REMARK    6  A    between atoms: C_6  and  O_7 
REMARK    7  A    between atoms: C_10  and  C_9 
REMARK    8  A    between atoms: C_11  and  O_12 
REMARK    9  A    between atoms: C_16  and  C_17 
REMARK   10  A    between atoms: C_17  and  C_18 
REMARK   11  A    between atoms: C_19  and  C_20 
REMARK   12  A    between atoms: C_20  and  C_21 
REMARK   13  A    between atoms: C_21  and  C_22 
REMARK   14  A    between atoms: C_22  and  C_23 
REMARK   15  A    between atoms: C_23  and  O_25 
REMARK   16  A    between atoms: O_25  and  C_26 
REMARK   17  A    between atoms: C_29  and  N_30 
REMARK       I    between atoms: N_30  and  C_31 
REMARK   18  A    between atoms: C_31  and  C_33 
ROOT
ATOM      1  C   UNL d   1      29.100 -13.695  -0.616  0.00  0.00     0.027 C 
ENDROOT
BRANCH   1   2
ATOM      2  C   UNL d   1      30.065 -13.211  -1.659  0.00  0.00    -0.031 C 
ATOM      3  C   UNL d   1      29.953 -13.556  -2.948  0.00  0.00    -0.030 C 
BRANCH   3   4
ATOM      4  C   UNL d   1      28.842 -14.430  -3.453  0.00  0.00     0.040 C 
BRANCH   4   5
ATOM      5  C   UNL d   1      27.891 -13.671  -4.373  0.00  0.00     0.069 C 
ATOM      6  C   UNL d   1      26.955 -14.659  -5.011  0.00  0.00     0.134 C 
ATOM      7  C   UNL d   1      25.778 -14.967  -4.132  0.00  0.00     0.111 C 
ATOM      8  O   UNL d   1      27.159 -15.197  -6.095  0.00  0.00    -0.297 OA
ATOM      9  C   UNL d   1      25.750 -13.772  -3.179  0.00  0.00     0.133 C 
ATOM     10  C   UNL d   1      26.886 -12.800  -3.601  0.00  0.00     0.048 C 
BRANCH   9  11
ATOM     11  O   UNL d   1      25.883 -14.182  -1.821  0.00  0.00    -0.394 OA
ATOM     12  H   UNL d   1      26.815 -14.322  -1.589  0.00  0.00     0.210 HD
ENDBRANCH   9  11
BRANCH  10  13
ATOM     13  C   UNL d   1      26.351 -11.665  -4.436  0.00  0.00    -0.020 C 
ATOM     14  C   UNL d   1      25.981 -11.737  -5.728  0.00  0.00     0.001 C 
BRANCH  14  15
ATOM     15  C   UNL d   1      25.524 -10.512  -6.466  0.00  0.00     0.140 C 
BRANCH  15  16
ATOM     16  O   UNL d   1      24.929  -9.605  -5.546  0.00  0.00    -0.392 OA
ATOM     17  H   UNL d   1      24.038  -9.934  -5.341  0.00  0.00     0.210 HD
ENDBRANCH  15  16
BRANCH  15  18
ATOM     18  C   UNL d   1      26.683  -9.827  -7.200  0.00  0.00     0.036 C 
BRANCH  18  19
ATOM     19  C   UNL d   1      27.989 -10.574  -6.950  0.00  0.00     0.003 C 
BRANCH  19  20
ATOM     20  C   UNL d   1      28.605 -10.996  -8.277  0.00  0.00    -0.000 C 
BRANCH  20  21
ATOM     21  C   UNL d   1      28.438 -12.495  -8.492  0.00  0.00    -0.005 C 
ATOM     22  C   UNL d   1      29.438 -13.263  -7.649  0.00  0.00     0.005 C 
ENDBRANCH  20  21
ENDBRANCH  19  20
ENDBRANCH  18  19
ENDBRANCH  15  18
ENDBRANCH  14  15
ENDBRANCH  10  13
ENDBRANCH   4   5
ENDBRANCH   3   4
ENDBRANCH   1   2
BRANCH   1  23
ATOM     23  C   UNL d   1      29.630 -14.918   0.103  0.00  0.00     0.013 C 
BRANCH  23  24
ATOM     24  C   UNL d   1      28.526 -15.939   0.406  0.00  0.00     0.112 C 
BRANCH  24  25
ATOM     25  C   UNL d   1      28.343 -16.807  -0.817  0.00  0.00     0.264 C 
ATOM     26  O   UNL d   1      29.140 -17.692  -1.129  0.00  0.00    -0.265 OA
BRANCH  25  27
ATOM     27  O   UNL d   1      27.188 -16.465  -1.522  0.00  0.00    -0.279 OA
BRANCH  27  28
ATOM     28  C   UNL d   1      25.990 -17.076  -1.090  0.00  0.00     0.079 A 
ATOM     29  C   UNL d   1      24.869 -17.066  -1.923  0.00  0.00     0.039 A 
ATOM     30  C   UNL d   1      23.648 -17.627  -1.475  0.00  0.00     0.032 A 
ATOM     31  C   UNL d   1      23.564 -18.257  -0.222  0.00  0.00     0.035 A 
ATOM     32  C   UNL d   1      24.695 -18.214   0.594  0.00  0.00     0.032 A 
ATOM     33  C   UNL d   1      25.882 -17.615   0.184  0.00  0.00     0.039 A 
BRANCH  31  34
ATOM     34  N   UNL d   1      22.376 -18.937   0.179  0.00  0.00    -0.323 N 
ATOM     35  C   UNL d   1      21.104 -18.660  -0.318  0.00  0.00     0.256 C 
ATOM     36  O   UNL d   1      20.815 -17.833  -1.187  0.00  0.00    -0.267 OA
ATOM     37  H   UNL d   1      22.468 -19.651   0.891  0.00  0.00     0.169 HD
BRANCH  35  38
ATOM     38  C   UNL d   1      19.943 -19.398   0.229  0.00  0.00     0.032 A 
ATOM     39  C   UNL d   1      19.959 -19.707   1.601  0.00  0.00     0.017 A 
ATOM     40  C   UNL d   1      19.029 -20.597   2.137  0.00  0.00     0.001 A 
ATOM     41  C   UNL d   1      18.043 -21.136   1.316  0.00  0.00     0.000 A 
ATOM     42  C   UNL d   1      18.018 -20.826  -0.047  0.00  0.00     0.001 A 
ATOM     43  C   UNL d   1      18.974 -19.966  -0.599  0.00  0.00     0.017 A 
ENDBRANCH  35  38
ENDBRANCH  31  34
ENDBRANCH  27  28
ENDBRANCH  25  27
ENDBRANCH  24  25
ENDBRANCH  23  24
ENDBRANCH   1  23
TORSDOF 18
ENDMDL
MODEL 9
REMARK VINA RESULT:    -9.636      5.742      8.714
REMARK INTER + INTRA:         -19.689
REMARK INTER:                 -15.006
REMARK INTRA:                  -4.684
REMARK CONF_INDEPENDENT:        5.369
REMARK UNBOUND:                -4.684
REMARK  18 active torsions:
REMARK  status: ('A' for Active; 'I' for Inactive)
REMARK    1  A    between atoms: C_2  and  C_3 
REMARK    2  A    between atoms: C_3  and  C_4 
REMARK    3  A    between atoms: C_4  and  C_5 
REMARK    4  A    between atoms: C_6  and  C_5 
REMARK    5  A    between atoms: C_6  and  C_8 
REMARK    6  A    between atoms: C_6  and  O_7 
REMARK    7  A    between atoms: C_10  and  C_9 
REMARK    8  A    between atoms: C_11  and  O_12 
REMARK    9  A    between atoms: C_16  and  C_17 
REMARK   10  A    between atoms: C_17  and  C_18 
REMARK   11  A    between atoms: C_19  and  C_20 
REMARK   12  A    between atoms: C_20  and  C_21 
REMARK   13  A    between atoms: C_21  and  C_22 
REMARK   14  A    between atoms: C_22  and  C_23 
REMARK   15  A    between atoms: C_23  and  O_25 
REMARK   16  A    between atoms: O_25  and  C_26 
REMARK   17  A    between atoms: C_29  and  N_30 
REMARK       I    between atoms: N_30  and  C_31 
REMARK   18  A    between atoms: C_31  and  C_33 
ROOT
ATOM      1  C   UNL d   1      30.463 -16.500  -1.284  0.00  0.00     0.027 C 
ENDROOT
BRANCH   1   2
ATOM      2  C   UNL d   1      30.323 -17.790  -2.039  0.00  0.00    -0.031 C 
ATOM      3  C   UNL d   1      30.384 -17.844  -3.376  0.00  0.00    -0.030 C 
BRANCH   3   4
ATOM      4  C   UNL d   1      30.620 -16.624  -4.220  0.00  0.00     0.040 C 
BRANCH   4   5
ATOM      5  C   UNL d   1      29.486 -15.613  -4.093  0.00  0.00     0.069 C 
ATOM      6  C   UNL d   1      30.072 -14.230  -4.145  0.00  0.00     0.134 C 
ATOM      7  C   UNL d   1      30.269 -13.756  -5.556  0.00  0.00     0.111 C 
ATOM      8  O   UNL d   1      30.408 -13.588  -3.154  0.00  0.00    -0.297 OA
ATOM      9  C   UNL d   1      29.324 -14.660  -6.348  0.00  0.00     0.133 C 
ATOM     10  C   UNL d   1      28.581 -15.575  -5.337  0.00  0.00     0.048 C 
BRANCH   9  11
ATOM     11  O   UNL d   1      30.026 -15.418  -7.330  0.00  0.00    -0.394 OA
ATOM     12  H   UNL d   1      30.390 -14.840  -8.020  0.00  0.00     0.210 HD
ENDBRANCH   9  11
BRANCH  10  13
ATOM     13  C   UNL d   1      27.205 -15.043  -5.029  0.00  0.00    -0.020 C 
ATOM     14  C   UNL d   1      26.912 -13.798  -4.611  0.00  0.00     0.001 C 
BRANCH  14  15
ATOM     15  C   UNL d   1      25.500 -13.413  -4.275  0.00  0.00     0.140 C 
BRANCH  15  16
ATOM     16  O   UNL d   1      24.897 -14.455  -3.519  0.00  0.00    -0.392 OA
ATOM     17  H   UNL d   1      25.568 -14.805  -2.909  0.00  0.00     0.210 HD
ENDBRANCH  15  16
BRANCH  15  18
ATOM     18  C   UNL d   1      25.443 -12.097  -3.491  0.00  0.00     0.036 C 
BRANCH  18  19
ATOM     19  C   UNL d   1      26.048 -10.961  -4.308  0.00  0.00     0.003 C 
BRANCH  19  20
ATOM     20  C   UNL d   1      25.536  -9.623  -3.792  0.00  0.00    -0.000 C 
BRANCH  20  21
ATOM     21  C   UNL d   1      24.781  -8.880  -4.886  0.00  0.00    -0.005 C 
ATOM     22  C   UNL d   1      25.350  -7.485  -5.066  0.00  0.00     0.005 C 
ENDBRANCH  20  21
ENDBRANCH  19  20
ENDBRANCH  18  19
ENDBRANCH  15  18
ENDBRANCH  14  15
ENDBRANCH  10  13
ENDBRANCH   4   5
ENDBRANCH   3   4
ENDBRANCH   1   2
BRANCH   1  23
ATOM     23  C   UNL d   1      29.210 -16.184  -0.494  0.00  0.00     0.013 C 
BRANCH  23  24
ATOM     24  C   UNL d   1      28.710 -14.756  -0.742  0.00  0.00     0.112 C 
BRANCH  24  25
ATOM     25  C   UNL d   1      27.300 -14.838  -1.278  0.00  0.00     0.264 C 
ATOM     26  O   UNL d   1      26.495 -13.912  -1.177  0.00  0.00    -0.265 OA
BRANCH  25  27
ATOM     27  O   UNL d   1      27.048 -16.075  -1.873  0.00  0.00    -0.279 OA
BRANCH  27  28
ATOM     28  C   UNL d   1      25.932 -16.788  -1.382  0.00  0.00     0.079 A 
ATOM     29  C   UNL d   1      26.015 -17.438  -0.149  0.00  0.00     0.039 A 
ATOM     30  C   UNL d   1      24.920 -18.203   0.325  0.00  0.00     0.032 A 
ATOM     31  C   UNL d   1      23.719 -18.262  -0.401  0.00  0.00     0.035 A 
ATOM     32  C   UNL d   1      23.689 -17.629  -1.644  0.00  0.00     0.032 A 
ATOM     33  C   UNL d   1      24.779 -16.924  -2.142  0.00  0.00     0.039 A 
BRANCH  31  34
ATOM     34  N   UNL d   1      22.571 -18.921   0.133  0.00  0.00    -0.323 N 
ATOM     35  C   UNL d   1      21.267 -18.716  -0.311  0.00  0.00     0.256 C 
ATOM     36  O   UNL d   1      20.909 -17.982  -1.236  0.00  0.00    -0.267 OA
ATOM     37  H   UNL d   1      22.721 -19.562   0.903  0.00  0.00     0.169 HD
BRANCH  35  38
ATOM     38  C   UNL d   1      20.158 -19.419   0.371  0.00  0.00     0.032 A 
ATOM     39  C   UNL d   1      20.262 -19.599   1.762  0.00  0.00     0.017 A 
ATOM     40  C   UNL d   1      19.385 -20.450   2.434  0.00  0.00     0.001 A 
ATOM     41  C   UNL d   1      18.363 -21.078   1.728  0.00  0.00     0.000 A 
ATOM     42  C   UNL d   1      18.249 -20.895   0.347  0.00  0.00     0.001 A 
ATOM     43  C   UNL d   1      19.152 -20.075  -0.340  0.00  0.00     0.017 A 
ENDBRANCH  35  38
ENDBRANCH  31  34
ENDBRANCH  27  28
ENDBRANCH  25  27
ENDBRANCH  24  25
ENDBRANCH  23  24
ENDBRANCH   1  23
TORSDOF 18
ENDMDL
