MODEL 1
REMARK VINA RESULT:    -8.477      0.000      0.000
REMARK INTER + INTRA:         -11.088
REMARK INTER:                  -9.372
REMARK INTRA:                  -1.716
REMARK CONF_INDEPENDENT:        0.895
REMARK UNBOUND:                -1.716
REMARK  3 active torsions:
REMARK  status: ('A' for Active; 'I' for Inactive)
REMARK       I    between atoms: C_2  and  N_3 
REMARK    1  A    between atoms: C_2  and  C_16 
REMARK    2  A    between atoms: N_3  and  N_4 
REMARK       I    between atoms: N_4  and  C_5 
REMARK    3  A    between atoms: C_7  and  C_5 
ROOT
ATOM      1  N   UNL d   1      23.088 -18.141  -0.838  0.00  0.00    -0.265 N 
ATOM      2  C   UNL d   1      24.337 -17.835  -0.313  0.00  0.00     0.266 C 
ATOM      3  O   UNL d   1      24.590 -18.127   0.862  0.00  0.00    -0.269 OA
ATOM      4  H   UNL d   1      22.801 -17.983  -1.804  0.00  0.00     0.190 HD
ENDROOT
BRANCH   1   5
ATOM      5  N   UNL d   1      22.126 -18.786   0.021  0.00  0.00    -0.262 N 
ATOM      6  C   UNL d   1      20.977 -19.360  -0.509  0.00  0.00     0.286 C 
ATOM      7  O   UNL d   1      20.760 -19.325  -1.728  0.00  0.00    -0.264 OA
ATOM      8  H   UNL d   1      22.432 -18.953   0.980  0.00  0.00     0.190 HD
BRANCH   6   9
ATOM      9  C   UNL d   1      20.061 -19.997   0.434  0.00  0.00     0.102 A 
ATOM     10  C   UNL d   1      18.798 -20.533   0.191  0.00  0.00     0.036 A 
ATOM     11  C   UNL d   1      18.226 -20.942   1.424  0.00  0.00     0.019 A 
ATOM     12  C   UNL d   1      19.135 -20.632   2.405  0.00  0.00     0.088 A 
ATOM     13  N   UNL d   1      20.241 -20.077   1.804  0.00  0.00    -0.361 N 
ATOM     14  H   UNL d   1      21.031 -19.700   2.307  0.00  0.00     0.165 HD
ENDBRANCH   6   9
ENDBRANCH   1   5
BRANCH   2  15
ATOM     15  C   UNL d   1      25.401 -17.191  -1.267  0.00  0.00     0.226 C 
ATOM     16  C   UNL d   1      25.736 -15.766  -0.764  0.00  0.00     0.083 C 
ATOM     17  C   UNL d   1      26.084 -15.103  -2.039  0.00  0.00    -0.022 A 
ATOM     18  C   UNL d   1      26.664 -13.858  -2.254  0.00  0.00     0.010 A 
ATOM     19  C   UNL d   1      25.681 -15.908  -3.090  0.00  0.00     0.076 A 
ATOM     20  C   UNL d   1      26.896 -13.453  -3.570  0.00  0.00     0.001 A 
ATOM     21  C   UNL d   1      26.522 -14.283  -4.639  0.00  0.00     0.003 A 
ATOM     22  C   UNL d   1      25.889 -15.515  -4.401  0.00  0.00     0.037 A 
ATOM     23  O   UNL d   1      25.064 -17.075  -2.677  0.00  0.00    -0.336 OA
ENDBRANCH   2  15
TORSDOF 3
ENDMDL
MODEL 2
REMARK VINA RESULT:    -7.579      1.392      1.758
REMARK INTER + INTRA:         -10.184
REMARK INTER:                  -8.474
REMARK INTRA:                  -1.709
REMARK CONF_INDEPENDENT:        0.895
REMARK UNBOUND:                -1.709
REMARK  3 active torsions:
REMARK  status: ('A' for Active; 'I' for Inactive)
REMARK       I    between atoms: C_2  and  N_3 
REMARK    1  A    between atoms: C_2  and  C_16 
REMARK    2  A    between atoms: N_3  and  N_4 
REMARK       I    between atoms: N_4  and  C_5 
REMARK    3  A    between atoms: C_7  and  C_5 
ROOT
ATOM      1  N   UNL d   1      22.991 -17.876  -0.839  0.00  0.00    -0.265 N 
ATOM      2  C   UNL d   1      24.332 -18.044  -0.520  0.00  0.00     0.266 C 
ATOM      3  O   UNL d   1      24.664 -18.948   0.256  0.00  0.00    -0.269 OA
ATOM      4  H   UNL d   1      22.625 -17.193  -1.501  0.00  0.00     0.190 HD
ENDROOT
BRANCH   1   5
ATOM      5  N   UNL d   1      22.030 -18.769  -0.238  0.00  0.00    -0.262 N 
ATOM      6  C   UNL d   1      20.674 -18.636  -0.512  0.00  0.00     0.286 C 
ATOM      7  O   UNL d   1      20.269 -17.748  -1.274  0.00  0.00    -0.264 OA
ATOM      8  H   UNL d   1      22.419 -19.589   0.228  0.00  0.00     0.190 HD
BRANCH   6   9
ATOM      9  C   UNL d   1      19.773 -19.586   0.136  0.00  0.00     0.102 A 
ATOM     10  C   UNL d   1      19.946 -20.268   1.338  0.00  0.00     0.036 A 
ATOM     11  C   UNL d   1      18.867 -21.172   1.515  0.00  0.00     0.019 A 
ATOM     12  C   UNL d   1      18.059 -21.047   0.411  0.00  0.00     0.088 A 
ATOM     13  N   UNL d   1      18.601 -20.084  -0.408  0.00  0.00    -0.361 N 
ATOM     14  H   UNL d   1      18.238 -19.845  -1.319  0.00  0.00     0.165 HD
ENDBRANCH   6   9
ENDBRANCH   1   5
BRANCH   2  15
ATOM     15  C   UNL d   1      25.380 -17.113  -1.223  0.00  0.00     0.226 C 
ATOM     16  C   UNL d   1      26.483 -16.734  -0.205  0.00  0.00     0.083 C 
ATOM     17  C   UNL d   1      26.881 -15.406  -0.719  0.00  0.00    -0.022 A 
ATOM     18  C   UNL d   1      27.965 -14.612  -0.362  0.00  0.00     0.010 A 
ATOM     19  C   UNL d   1      25.938 -14.977  -1.636  0.00  0.00     0.076 A 
ATOM     20  C   UNL d   1      28.126 -13.383  -1.003  0.00  0.00     0.001 A 
ATOM     21  C   UNL d   1      27.192 -12.960  -1.961  0.00  0.00     0.003 A 
ATOM     22  C   UNL d   1      26.073 -13.753  -2.269  0.00  0.00     0.037 A 
ATOM     23  O   UNL d   1      24.898 -15.873  -1.808  0.00  0.00    -0.336 OA
ENDBRANCH   2  15
TORSDOF 3
ENDMDL
MODEL 3
REMARK VINA RESULT:    -7.326      2.458      8.127
REMARK INTER + INTRA:          -9.299
REMARK INTER:                  -8.221
REMARK INTRA:                  -1.078
REMARK CONF_INDEPENDENT:        0.895
REMARK UNBOUND:                -1.078
REMARK  3 active torsions:
REMARK  status: ('A' for Active; 'I' for Inactive)
REMARK       I    between atoms: C_2  and  N_3 
REMARK    1  A    between atoms: C_2  and  C_16 
REMARK    2  A    between atoms: N_3  and  N_4 
REMARK       I    between atoms: N_4  and  C_5 
REMARK    3  A    between atoms: C_7  and  C_5 
ROOT
ATOM      1  N   UNL d   1      24.172 -16.972  -0.596  0.00  0.00    -0.265 N 
ATOM      2  C   UNL d   1      23.274 -17.800  -1.258  0.00  0.00     0.266 C 
ATOM      3  O   UNL d   1      23.642 -18.408  -2.270  0.00  0.00    -0.269 OA
ATOM      4  H   UNL d   1      23.979 -16.467   0.269  0.00  0.00     0.190 HD
ENDROOT
BRANCH   1   5
ATOM      5  N   UNL d   1      25.507 -16.850  -1.128  0.00  0.00    -0.262 N 
ATOM      6  C   UNL d   1      26.610 -17.185  -0.352  0.00  0.00     0.286 C 
ATOM      7  O   UNL d   1      26.464 -17.592   0.809  0.00  0.00    -0.264 OA
ATOM      8  H   UNL d   1      25.570 -16.691  -2.133  0.00  0.00     0.190 HD
BRANCH   6   9
ATOM      9  C   UNL d   1      27.924 -17.036  -0.972  0.00  0.00     0.102 A 
ATOM     10  C   UNL d   1      28.252 -16.420  -2.178  0.00  0.00     0.036 A 
ATOM     11  C   UNL d   1      29.634 -16.615  -2.434  0.00  0.00     0.019 A 
ATOM     12  C   UNL d   1      30.129 -17.364  -1.395  0.00  0.00     0.088 A 
ATOM     13  N   UNL d   1      29.101 -17.602  -0.513  0.00  0.00    -0.361 N 
ATOM     14  H   UNL d   1      29.181 -18.187   0.306  0.00  0.00     0.165 HD
ENDBRANCH   6   9
ENDBRANCH   1   5
BRANCH   2  15
ATOM     15  C   UNL d   1      21.844 -17.980  -0.643  0.00  0.00     0.226 C 
ATOM     16  C   UNL d   1      21.975 -18.575   0.779  0.00  0.00     0.083 C 
ATOM     17  C   UNL d   1      20.705 -19.325   0.879  0.00  0.00    -0.022 A 
ATOM     18  C   UNL d   1      20.122 -19.928   1.987  0.00  0.00     0.010 A 
ATOM     19  C   UNL d   1      20.136 -19.415  -0.380  0.00  0.00     0.076 A 
ATOM     20  C   UNL d   1      18.900 -20.583   1.821  0.00  0.00     0.001 A 
ATOM     21  C   UNL d   1      18.302 -20.645   0.552  0.00  0.00     0.003 A 
ATOM     22  C   UNL d   1      18.933 -20.075  -0.566  0.00  0.00     0.037 A 
ATOM     23  O   UNL d   1      20.896 -18.812  -1.366  0.00  0.00    -0.336 OA
ENDBRANCH   2  15
TORSDOF 3
ENDMDL
MODEL 4
REMARK VINA RESULT:    -7.221      2.315      8.150
REMARK INTER + INTRA:          -9.644
REMARK INTER:                  -8.116
REMARK INTRA:                  -1.528
REMARK CONF_INDEPENDENT:        0.895
REMARK UNBOUND:                -1.528
REMARK  3 active torsions:
REMARK  status: ('A' for Active; 'I' for Inactive)
REMARK       I    between atoms: C_2  and  N_3 
REMARK    1  A    between atoms: C_2  and  C_16 
REMARK    2  A    between atoms: N_3  and  N_4 
REMARK       I    between atoms: N_4  and  C_5 
REMARK    3  A    between atoms: C_7  and  C_5 
ROOT
ATOM      1  N   UNL d   1      24.168 -16.463  -1.629  0.00  0.00    -0.265 N 
ATOM      2  C   UNL d   1      24.580 -17.496  -0.797  0.00  0.00     0.266 C 
ATOM      3  O   UNL d   1      25.727 -17.482  -0.334  0.00  0.00    -0.269 OA
ATOM      4  H   UNL d   1      23.231 -16.362  -2.021  0.00  0.00     0.190 HD
ENDROOT
BRANCH   1   5
ATOM      5  N   UNL d   1      25.107 -15.411  -1.928  0.00  0.00    -0.262 N 
ATOM      6  C   UNL d   1      24.799 -14.432  -2.865  0.00  0.00     0.286 C 
ATOM      7  O   UNL d   1      23.713 -14.450  -3.461  0.00  0.00    -0.264 OA
ATOM      8  H   UNL d   1      25.899 -15.330  -1.289  0.00  0.00     0.190 HD
BRANCH   6   9
ATOM      9  C   UNL d   1      25.807 -13.402  -3.101  0.00  0.00     0.102 A 
ATOM     10  C   UNL d   1      27.092 -13.305  -2.571  0.00  0.00     0.036 A 
ATOM     11  C   UNL d   1      27.671 -12.078  -2.989  0.00  0.00     0.019 A 
ATOM     12  C   UNL d   1      26.728 -11.433  -3.751  0.00  0.00     0.088 A 
ATOM     13  N   UNL d   1      25.616 -12.238  -3.827  0.00  0.00    -0.361 N 
ATOM     14  H   UNL d   1      24.751 -11.970  -4.274  0.00  0.00     0.165 HD
ENDBRANCH   6   9
ENDBRANCH   1   5
BRANCH   2  15
ATOM     15  C   UNL d   1      23.537 -18.605  -0.423  0.00  0.00     0.226 C 
ATOM     16  C   UNL d   1      22.498 -18.727  -1.563  0.00  0.00     0.083 C 
ATOM     17  C   UNL d   1      21.310 -19.170  -0.802  0.00  0.00    -0.022 A 
ATOM     18  C   UNL d   1      20.090 -19.645  -1.270  0.00  0.00     0.010 A 
ATOM     19  C   UNL d   1      21.549 -18.989   0.549  0.00  0.00     0.076 A 
ATOM     20  C   UNL d   1      19.117 -20.004  -0.337  0.00  0.00     0.001 A 
ATOM     21  C   UNL d   1      19.368 -19.857   1.036  0.00  0.00     0.003 A 
ATOM     22  C   UNL d   1      20.588 -19.325   1.488  0.00  0.00     0.037 A 
ATOM     23  O   UNL d   1      22.792 -18.444   0.815  0.00  0.00    -0.336 OA
ENDBRANCH   2  15
TORSDOF 3
ENDMDL
MODEL 5
REMARK VINA RESULT:    -6.876      2.046      8.482
REMARK INTER + INTRA:          -9.159
REMARK INTER:                  -7.771
REMARK INTRA:                  -1.389
REMARK CONF_INDEPENDENT:        0.895
REMARK UNBOUND:                -1.389
REMARK  3 active torsions:
REMARK  status: ('A' for Active; 'I' for Inactive)
REMARK       I    between atoms: C_2  and  N_3 
REMARK    1  A    between atoms: C_2  and  C_16 
REMARK    2  A    between atoms: N_3  and  N_4 
REMARK       I    between atoms: N_4  and  C_5 
REMARK    3  A    between atoms: C_7  and  C_5 
ROOT
ATOM      1  N   UNL d   1      23.869 -17.254  -1.324  0.00  0.00    -0.265 N 
ATOM      2  C   UNL d   1      22.572 -17.229  -0.827  0.00  0.00     0.266 C 
ATOM      3  O   UNL d   1      21.916 -16.183  -0.894  0.00  0.00    -0.269 OA
ATOM      4  H   UNL d   1      24.471 -18.076  -1.356  0.00  0.00     0.190 HD
ENDROOT
BRANCH   1   5
ATOM      5  N   UNL d   1      24.403 -16.042  -1.896  0.00  0.00    -0.262 N 
ATOM      6  C   UNL d   1      25.752 -15.948  -2.220  0.00  0.00     0.286 C 
ATOM      7  O   UNL d   1      26.516 -16.902  -2.020  0.00  0.00    -0.264 OA
ATOM      8  H   UNL d   1      23.714 -15.360  -2.211  0.00  0.00     0.190 HD
BRANCH   6   9
ATOM      9  C   UNL d   1      26.206 -14.686  -2.799  0.00  0.00     0.102 A 
ATOM     10  C   UNL d   1      25.764 -14.054  -3.959  0.00  0.00     0.036 A 
ATOM     11  C   UNL d   1      26.569 -12.909  -4.195  0.00  0.00     0.019 A 
ATOM     12  C   UNL d   1      27.504 -12.868  -3.190  0.00  0.00     0.088 A 
ATOM     13  N   UNL d   1      27.273 -13.929  -2.347  0.00  0.00    -0.361 N 
ATOM     14  H   UNL d   1      27.861 -14.168  -1.562  0.00  0.00     0.165 HD
ENDBRANCH   6   9
ENDBRANCH   1   5
BRANCH   2  15
ATOM     15  C   UNL d   1      21.972 -18.563  -0.263  0.00  0.00     0.226 C 
ATOM     16  C   UNL d   1      20.731 -18.954  -1.101  0.00  0.00     0.083 C 
ATOM     17  C   UNL d   1      19.935 -19.677  -0.086  0.00  0.00    -0.022 A 
ATOM     18  C   UNL d   1      18.791 -20.449  -0.249  0.00  0.00     0.010 A 
ATOM     19  C   UNL d   1      20.472 -19.430   1.166  0.00  0.00     0.076 A 
ATOM     20  C   UNL d   1      18.219 -21.035   0.881  0.00  0.00     0.001 A 
ATOM     21  C   UNL d   1      18.782 -20.818   2.148  0.00  0.00     0.003 A 
ATOM     22  C   UNL d   1      19.907 -19.991   2.300  0.00  0.00     0.037 A 
ATOM     23  O   UNL d   1      21.567 -18.585   1.133  0.00  0.00    -0.336 OA
ENDBRANCH   2  15
TORSDOF 3
ENDMDL
MODEL 6
REMARK VINA RESULT:    -6.615      5.012      9.154
REMARK INTER + INTRA:          -9.252
REMARK INTER:                  -7.510
REMARK INTRA:                  -1.742
REMARK CONF_INDEPENDENT:        0.895
REMARK UNBOUND:                -1.742
REMARK  3 active torsions:
REMARK  status: ('A' for Active; 'I' for Inactive)
REMARK       I    between atoms: C_2  and  N_3 
REMARK    1  A    between atoms: C_2  and  C_16 
REMARK    2  A    between atoms: N_3  and  N_4 
REMARK       I    between atoms: N_4  and  C_5 
REMARK    3  A    between atoms: C_7  and  C_5 
ROOT
ATOM      1  N   UNL d   1      25.837 -12.878  -3.263  0.00  0.00    -0.265 N 
ATOM      2  C   UNL d   1      25.388 -14.128  -3.667  0.00  0.00     0.266 C 
ATOM      3  O   UNL d   1      24.594 -14.213  -4.612  0.00  0.00    -0.269 OA
ATOM      4  H   UNL d   1      26.524 -12.708  -2.529  0.00  0.00     0.190 HD
ENDROOT
BRANCH   1   5
ATOM      5  N   UNL d   1      25.347 -11.717  -3.965  0.00  0.00    -0.262 N 
ATOM      6  C   UNL d   1      25.839 -10.452  -3.670  0.00  0.00     0.286 C 
ATOM      7  O   UNL d   1      26.705 -10.300  -2.797  0.00  0.00    -0.264 OA
ATOM      8  H   UNL d   1      24.780 -11.907  -4.792  0.00  0.00     0.190 HD
BRANCH   6   9
ATOM      9  C   UNL d   1      25.290  -9.334  -4.433  0.00  0.00     0.102 A 
ATOM     10  C   UNL d   1      25.268  -9.152  -5.814  0.00  0.00     0.036 A 
ATOM     11  C   UNL d   1      24.738  -7.867  -6.101  0.00  0.00     0.019 A 
ATOM     12  C   UNL d   1      24.462  -7.273  -4.894  0.00  0.00     0.088 A 
ATOM     13  N   UNL d   1      24.782  -8.163  -3.896  0.00  0.00    -0.361 N 
ATOM     14  H   UNL d   1      24.737  -7.950  -2.910  0.00  0.00     0.165 HD
ENDBRANCH   6   9
ENDBRANCH   1   5
BRANCH   2  15
ATOM     15  C   UNL d   1      25.970 -15.392  -2.943  0.00  0.00     0.226 C 
ATOM     16  C   UNL d   1      24.802 -16.244  -2.395  0.00  0.00     0.083 C 
ATOM     17  C   UNL d   1      25.449 -16.868  -1.220  0.00  0.00    -0.022 A 
ATOM     18  C   UNL d   1      24.993 -17.898  -0.407  0.00  0.00     0.010 A 
ATOM     19  C   UNL d   1      26.642 -16.215  -0.965  0.00  0.00     0.076 A 
ATOM     20  C   UNL d   1      25.801 -18.315   0.652  0.00  0.00     0.001 A 
ATOM     21  C   UNL d   1      27.029 -17.680   0.893  0.00  0.00     0.003 A 
ATOM     22  C   UNL d   1      27.448 -16.605   0.092  0.00  0.00     0.037 A 
ATOM     23  O   UNL d   1      26.893 -15.174  -1.841  0.00  0.00    -0.336 OA
ENDBRANCH   2  15
TORSDOF 3
ENDMDL
MODEL 7
REMARK VINA RESULT:    -6.240      1.943      2.606
REMARK INTER + INTRA:          -8.841
REMARK INTER:                  -7.135
REMARK INTRA:                  -1.706
REMARK CONF_INDEPENDENT:        0.895
REMARK UNBOUND:                -1.706
REMARK  3 active torsions:
REMARK  status: ('A' for Active; 'I' for Inactive)
REMARK       I    between atoms: C_2  and  N_3 
REMARK    1  A    between atoms: C_2  and  C_16 
REMARK    2  A    between atoms: N_3  and  N_4 
REMARK       I    between atoms: N_4  and  C_5 
REMARK    3  A    between atoms: C_7  and  C_5 
ROOT
ATOM      1  N   UNL d   1      24.152 -17.169  -1.287  0.00  0.00    -0.265 N 
ATOM      2  C   UNL d   1      24.289 -15.894  -1.823  0.00  0.00     0.266 C 
ATOM      3  O   UNL d   1      23.281 -15.206  -2.020  0.00  0.00    -0.269 OA
ATOM      4  H   UNL d   1      24.922 -17.792  -1.045  0.00  0.00     0.190 HD
ENDROOT
BRANCH   1   5
ATOM      5  N   UNL d   1      22.823 -17.642  -0.986  0.00  0.00    -0.262 N 
ATOM      6  C   UNL d   1      22.623 -18.933  -0.513  0.00  0.00     0.286 C 
ATOM      7  O   UNL d   1      23.582 -19.699  -0.344  0.00  0.00    -0.264 OA
ATOM      8  H   UNL d   1      22.094 -16.929  -0.963  0.00  0.00     0.190 HD
BRANCH   6   9
ATOM      9  C   UNL d   1      21.245 -19.328  -0.230  0.00  0.00     0.102 A 
ATOM     10  C   UNL d   1      20.147 -19.327  -1.088  0.00  0.00     0.036 A 
ATOM     11  C   UNL d   1      18.986 -19.680  -0.351  0.00  0.00     0.019 A 
ATOM     12  C   UNL d   1      19.385 -19.870   0.950  0.00  0.00     0.088 A 
ATOM     13  N   UNL d   1      20.744 -19.671   1.014  0.00  0.00    -0.361 N 
ATOM     14  H   UNL d   1      21.279 -19.686   1.870  0.00  0.00     0.165 HD
ENDBRANCH   6   9
ENDBRANCH   1   5
BRANCH   2  15
ATOM     15  C   UNL d   1      25.738 -15.358  -2.090  0.00  0.00     0.226 C 
ATOM     16  C   UNL d   1      25.859 -14.942  -3.575  0.00  0.00     0.083 C 
ATOM     17  C   UNL d   1      27.297 -15.190  -3.811  0.00  0.00    -0.022 A 
ATOM     18  C   UNL d   1      28.086 -14.833  -4.898  0.00  0.00     0.010 A 
ATOM     19  C   UNL d   1      27.804 -15.932  -2.759  0.00  0.00     0.076 A 
ATOM     20  C   UNL d   1      29.437 -15.186  -4.882  0.00  0.00     0.001 A 
ATOM     21  C   UNL d   1      29.963 -15.907  -3.800  0.00  0.00     0.003 A 
ATOM     22  C   UNL d   1      29.137 -16.305  -2.735  0.00  0.00     0.037 A 
ATOM     23  O   UNL d   1      26.852 -16.249  -1.806  0.00  0.00    -0.336 OA
ENDBRANCH   2  15
TORSDOF 3
ENDMDL
MODEL 8
REMARK VINA RESULT:    -6.145      3.965      9.107
REMARK INTER + INTRA:          -8.692
REMARK INTER:                  -7.040
REMARK INTRA:                  -1.651
REMARK CONF_INDEPENDENT:        0.895
REMARK UNBOUND:                -1.651
REMARK  3 active torsions:
REMARK  status: ('A' for Active; 'I' for Inactive)
REMARK       I    between atoms: C_2  and  N_3 
REMARK    1  A    between atoms: C_2  and  C_16 
REMARK    2  A    between atoms: N_3  and  N_4 
REMARK       I    between atoms: N_4  and  C_5 
REMARK    3  A    between atoms: C_7  and  C_5 
ROOT
ATOM      1  N   UNL d   1      27.073 -15.262  -3.041  0.00  0.00    -0.265 N 
ATOM      2  C   UNL d   1      27.268 -15.483  -1.684  0.00  0.00     0.266 C 
ATOM      3  O   UNL d   1      28.379 -15.264  -1.186  0.00  0.00    -0.269 OA
ATOM      4  H   UNL d   1      26.186 -15.368  -3.533  0.00  0.00     0.190 HD
ENDROOT
BRANCH   1   5
ATOM      5  N   UNL d   1      28.189 -14.789  -3.822  0.00  0.00    -0.262 N 
ATOM      6  C   UNL d   1      28.131 -14.790  -5.211  0.00  0.00     0.286 C 
ATOM      7  O   UNL d   1      27.121 -15.199  -5.799  0.00  0.00    -0.264 OA
ATOM      8  H   UNL d   1      28.915 -14.295  -3.303  0.00  0.00     0.190 HD
BRANCH   6   9
ATOM      9  C   UNL d   1      29.304 -14.289  -5.922  0.00  0.00     0.102 A 
ATOM     10  C   UNL d   1      30.358 -13.523  -5.429  0.00  0.00     0.036 A 
ATOM     11  C   UNL d   1      31.216 -13.172  -6.504  0.00  0.00     0.019 A 
ATOM     12  C   UNL d   1      30.664 -13.707  -7.642  0.00  0.00     0.088 A 
ATOM     13  N   UNL d   1      29.524 -14.389  -7.285  0.00  0.00    -0.361 N 
ATOM     14  H   UNL d   1      28.892 -14.821  -7.944  0.00  0.00     0.165 HD
ENDBRANCH   6   9
ENDBRANCH   1   5
BRANCH   2  15
ATOM     15  C   UNL d   1      26.038 -15.937  -0.825  0.00  0.00     0.226 C 
ATOM     16  C   UNL d   1      26.069 -17.476  -0.670  0.00  0.00     0.083 C 
ATOM     17  C   UNL d   1      24.624 -17.766  -0.548  0.00  0.00    -0.022 A 
ATOM     18  C   UNL d   1      23.990 -18.951  -0.191  0.00  0.00     0.010 A 
ATOM     19  C   UNL d   1      23.907 -16.641  -0.916  0.00  0.00     0.076 A 
ATOM     20  C   UNL d   1      22.595 -18.969  -0.146  0.00  0.00     0.001 A 
ATOM     21  C   UNL d   1      21.864 -17.819  -0.484  0.00  0.00     0.003 A 
ATOM     22  C   UNL d   1      22.522 -16.647  -0.894  0.00  0.00     0.037 A 
ATOM     23  O   UNL d   1      24.711 -15.585  -1.304  0.00  0.00    -0.336 OA
ENDBRANCH   2  15
TORSDOF 3
ENDMDL
