MODEL 1
REMARK VINA RESULT:    -8.107      0.000      0.000
REMARK INTER + INTRA:         -15.309
REMARK INTER:                 -12.283
REMARK INTRA:                  -3.026
REMARK CONF_INDEPENDENT:        4.176
REMARK UNBOUND:                -3.026
REMARK  14 active torsions:
REMARK  status: ('A' for Active; 'I' for Inactive)
REMARK    1  A    between atoms: C_2  and  C_3 
REMARK    2  A    between atoms: C_3  and  C_4 
REMARK    3  A    between atoms: C_4  and  N_5 
REMARK    4  A    between atoms: N_5  and  C_6 
REMARK    5  A    between atoms: N_5  and  C_10 
REMARK    6  A    between atoms: C_6  and  C_7 
REMARK    7  A    between atoms: C_7  and  C_8 
REMARK    8  A    between atoms: C_10  and  C_11 
REMARK    9  A    between atoms: C_14  and  C_15 
REMARK       I    between atoms: C_15  and  N_17 
REMARK   10  A    between atoms: N_17  and  N_18 
REMARK   11  A    between atoms: N_18  and  C_19 
REMARK   12  A    between atoms: C_19  and  N_21 
REMARK   13  A    between atoms: N_21  and  C_22 
REMARK   14  A    between atoms: C_28  and  O_29 
ROOT
ATOM      1  C   UNL d   1      27.649 -14.226   1.492  0.00  0.00     0.293 C 
ATOM      2  O   UNL d   1      27.022 -13.416   0.831  0.00  0.00    -0.264 OA
ATOM      3  N   UNL d   1      28.261 -15.343   0.897  0.00  0.00    -0.262 N 
ATOM      4  H   UNL d   1      28.789 -16.024   1.434  0.00  0.00     0.190 HD
ENDROOT
BRANCH   1   5
ATOM      5  C   UNL d   1      27.838 -14.148   2.962  0.00  0.00     0.144 A 
ATOM      6  C   UNL d   1      26.987 -13.701   3.961  0.00  0.00     0.045 A 
ATOM      7  C   UNL d   1      27.631 -13.864   5.201  0.00  0.00     0.037 A 
ATOM      8  C   UNL d   1      28.883 -14.365   4.934  0.00  0.00     0.079 A 
ATOM      9  O   UNL d   1      29.036 -14.535   3.574  0.00  0.00    -0.308 OA
BRANCH   8  10
ATOM     10  C   UNL d   1      30.031 -14.549   5.881  0.00  0.00     0.299 C 
BRANCH  10  11
ATOM     11  N   UNL d   1      30.698 -13.178   6.199  0.00  0.00    -0.065 N 
ATOM     12  H   UNL d   1      31.711 -13.321   6.097  0.00  0.00     0.280 HD
BRANCH  11  13
ATOM     13  C   UNL d   1      30.284 -12.131   5.166  0.00  0.00     0.235 C 
BRANCH  13  14
ATOM     14  C   UNL d   1      29.457 -11.011   5.777  0.00  0.00     0.027 C 
BRANCH  14  15
ATOM     15  C   UNL d   1      28.157 -10.676   5.090  0.00  0.00    -0.003 C 
ATOM     16  C   UNL d   1      28.485 -10.095   3.712  0.00  0.00     0.005 C 
ENDBRANCH  14  15
ENDBRANCH  13  14
ENDBRANCH  11  13
BRANCH  11  17
ATOM     17  C   UNL d   1      30.408 -12.847   7.663  0.00  0.00     0.235 C 
BRANCH  17  18
ATOM     18  C   UNL d   1      30.223 -14.074   8.522  0.00  0.00     0.027 C 
BRANCH  18  19
ATOM     19  C   UNL d   1      28.914 -14.147   9.263  0.00  0.00    -0.003 C 
ATOM     20  C   UNL d   1      28.384 -12.719   9.396  0.00  0.00     0.005 C 
ENDBRANCH  18  19
ENDBRANCH  17  18
ENDBRANCH  11  17
ENDBRANCH  10  11
ENDBRANCH   8  10
ENDBRANCH   1   5
BRANCH   3  21
ATOM     21  N   UNL d   1      28.175 -15.659  -0.504  0.00  0.00    -0.273 N 
ATOM     22  H   UNL d   1      29.043 -15.939  -0.957  0.00  0.00     0.189 HD
BRANCH  21  23
ATOM     23  C   UNL d   1      26.900 -15.699  -1.108  0.00  0.00     0.191 C 
ATOM     24  S   UNL d   1      26.748 -15.543  -2.783  0.00  0.00    -0.039 SA
BRANCH  23  25
ATOM     25  N   UNL d   1      25.847 -15.849  -0.196  0.00  0.00    -0.330 N 
ATOM     26  H   UNL d   1      25.745 -15.121   0.493  0.00  0.00     0.168 HD
BRANCH  25  27
ATOM     27  C   UNL d   1      24.743 -16.766  -0.313  0.00  0.00     0.068 A 
ATOM     28  C   UNL d   1      23.478 -16.220  -0.585  0.00  0.00     0.034 A 
ATOM     29  C   UNL d   1      22.322 -17.002  -0.650  0.00  0.00     0.026 A 
ATOM     30  C   UNL d   1      22.414 -18.374  -0.484  0.00  0.00     0.036 A 
ATOM     31 CL   UNL d   1      20.980 -19.326  -0.533  0.00  0.00    -0.084 Cl
ATOM     32  C   UNL d   1      23.662 -18.964  -0.285  0.00  0.00     0.062 A 
ATOM     33  C   UNL d   1      24.840 -18.176  -0.212  0.00  0.00     0.096 A 
BRANCH  33  34
ATOM     34  O   UNL d   1      25.950 -18.950   0.028  0.00  0.00    -0.354 OA
ATOM     35  C   UNL d   1      26.995 -18.406   0.809  0.00  0.00     0.210 C 
ENDBRANCH  33  34
ENDBRANCH  25  27
ENDBRANCH  23  25
ENDBRANCH  21  23
ENDBRANCH   3  21
TORSDOF 14
ENDMDL
MODEL 2
REMARK VINA RESULT:    -7.468      6.348      9.521
REMARK INTER + INTRA:         -15.414
REMARK INTER:                 -11.644
REMARK INTRA:                  -3.770
REMARK CONF_INDEPENDENT:        4.176
REMARK UNBOUND:                -3.770
REMARK  14 active torsions:
REMARK  status: ('A' for Active; 'I' for Inactive)
REMARK    1  A    between atoms: C_2  and  C_3 
REMARK    2  A    between atoms: C_3  and  C_4 
REMARK    3  A    between atoms: C_4  and  N_5 
REMARK    4  A    between atoms: N_5  and  C_6 
REMARK    5  A    between atoms: N_5  and  C_10 
REMARK    6  A    between atoms: C_6  and  C_7 
REMARK    7  A    between atoms: C_7  and  C_8 
REMARK    8  A    between atoms: C_10  and  C_11 
REMARK    9  A    between atoms: C_14  and  C_15 
REMARK       I    between atoms: C_15  and  N_17 
REMARK   10  A    between atoms: N_17  and  N_18 
REMARK   11  A    between atoms: N_18  and  C_19 
REMARK   12  A    between atoms: C_19  and  N_21 
REMARK   13  A    between atoms: N_21  and  C_22 
REMARK   14  A    between atoms: C_28  and  O_29 
ROOT
ATOM      1  C   UNL d   1      27.428 -15.443  -4.570  0.00  0.00     0.293 C 
ATOM      2  O   UNL d   1      27.515 -15.245  -5.770  0.00  0.00    -0.264 OA
ATOM      3  N   UNL d   1      28.506 -15.958  -3.830  0.00  0.00    -0.262 N 
ATOM      4  H   UNL d   1      28.450 -16.126  -2.830  0.00  0.00     0.190 HD
ENDROOT
BRANCH   1   5
ATOM      5  C   UNL d   1      26.211 -15.184  -3.760  0.00  0.00     0.144 A 
ATOM      6  C   UNL d   1      25.417 -14.052  -3.658  0.00  0.00     0.045 A 
ATOM      7  C   UNL d   1      24.359 -14.329  -2.772  0.00  0.00     0.037 A 
ATOM      8  C   UNL d   1      24.553 -15.611  -2.312  0.00  0.00     0.079 A 
ATOM      9  O   UNL d   1      25.683 -16.148  -2.892  0.00  0.00    -0.308 OA
BRANCH   8  10
ATOM     10  C   UNL d   1      23.819 -16.325  -1.217  0.00  0.00     0.299 C 
BRANCH  10  11
ATOM     11  N   UNL d   1      24.260 -17.817  -1.150  0.00  0.00    -0.065 N 
ATOM     12  H   UNL d   1      24.994 -17.931  -1.858  0.00  0.00     0.280 HD
BRANCH  11  13
ATOM     13  C   UNL d   1      24.889 -18.127   0.208  0.00  0.00     0.235 C 
BRANCH  13  14
ATOM     14  C   UNL d   1      26.405 -18.202   0.140  0.00  0.00     0.027 C 
BRANCH  14  15
ATOM     15  C   UNL d   1      27.159 -16.911   0.337  0.00  0.00    -0.003 C 
ATOM     16  C   UNL d   1      28.438 -16.976  -0.501  0.00  0.00     0.005 C 
ENDBRANCH  14  15
ENDBRANCH  13  14
ENDBRANCH  11  13
BRANCH  11  17
ATOM     17  C   UNL d   1      23.062 -18.675  -1.560  0.00  0.00     0.235 C 
BRANCH  17  18
ATOM     18  C   UNL d   1      22.084 -18.904  -0.434  0.00  0.00     0.027 C 
BRANCH  18  19
ATOM     19  C   UNL d   1      20.669 -19.187  -0.862  0.00  0.00    -0.003 C 
ATOM     20  C   UNL d   1      19.888 -19.603   0.385  0.00  0.00     0.005 C 
ENDBRANCH  18  19
ENDBRANCH  17  18
ENDBRANCH  11  17
ENDBRANCH  10  11
ENDBRANCH   8  10
ENDBRANCH   1   5
BRANCH   3  21
ATOM     21  N   UNL d   1      29.771 -16.334  -4.404  0.00  0.00    -0.273 N 
ATOM     22  H   UNL d   1      30.070 -15.807  -5.222  0.00  0.00     0.189 HD
BRANCH  21  23
ATOM     23  C   UNL d   1      30.562 -17.285  -3.724  0.00  0.00     0.191 C 
ATOM     24  S   UNL d   1      31.373 -16.858  -2.305  0.00  0.00    -0.039 SA
BRANCH  23  25
ATOM     25  N   UNL d   1      30.605 -18.538  -4.352  0.00  0.00    -0.330 N 
ATOM     26  H   UNL d   1      30.261 -19.319  -3.816  0.00  0.00     0.168 HD
BRANCH  25  27
ATOM     27  C   UNL d   1      30.816 -18.778  -5.756  0.00  0.00     0.068 A 
ATOM     28  C   UNL d   1      30.544 -20.070  -6.235  0.00  0.00     0.034 A 
ATOM     29  C   UNL d   1      30.779 -20.442  -7.561  0.00  0.00     0.026 A 
ATOM     30  C   UNL d   1      31.258 -19.504  -8.460  0.00  0.00     0.036 A 
ATOM     31 CL   UNL d   1      31.575 -19.979 -10.084  0.00  0.00    -0.084 Cl
ATOM     32  C   UNL d   1      31.472 -18.191  -8.041  0.00  0.00     0.062 A 
ATOM     33  C   UNL d   1      31.241 -17.807  -6.694  0.00  0.00     0.096 A 
BRANCH  33  34
ATOM     34  O   UNL d   1      31.551 -16.484  -6.488  0.00  0.00    -0.354 OA
ATOM     35  C   UNL d   1      30.909 -15.509  -7.285  0.00  0.00     0.210 C 
ENDBRANCH  33  34
ENDBRANCH  25  27
ENDBRANCH  23  25
ENDBRANCH  21  23
ENDBRANCH   3  21
TORSDOF 14
ENDMDL
MODEL 3
REMARK VINA RESULT:    -7.452      1.597      2.190
REMARK INTER + INTRA:         -15.079
REMARK INTER:                 -11.628
REMARK INTRA:                  -3.451
REMARK CONF_INDEPENDENT:        4.176
REMARK UNBOUND:                -3.451
REMARK  14 active torsions:
REMARK  status: ('A' for Active; 'I' for Inactive)
REMARK    1  A    between atoms: C_2  and  C_3 
REMARK    2  A    between atoms: C_3  and  C_4 
REMARK    3  A    between atoms: C_4  and  N_5 
REMARK    4  A    between atoms: N_5  and  C_6 
REMARK    5  A    between atoms: N_5  and  C_10 
REMARK    6  A    between atoms: C_6  and  C_7 
REMARK    7  A    between atoms: C_7  and  C_8 
REMARK    8  A    between atoms: C_10  and  C_11 
REMARK    9  A    between atoms: C_14  and  C_15 
REMARK       I    between atoms: C_15  and  N_17 
REMARK   10  A    between atoms: N_17  and  N_18 
REMARK   11  A    between atoms: N_18  and  C_19 
REMARK   12  A    between atoms: C_19  and  N_21 
REMARK   13  A    between atoms: N_21  and  C_22 
REMARK   14  A    between atoms: C_28  and  O_29 
ROOT
ATOM      1  C   UNL d   1      27.906 -14.174   2.104  0.00  0.00     0.293 C 
ATOM      2  O   UNL d   1      27.074 -13.557   1.460  0.00  0.00    -0.264 OA
ATOM      3  N   UNL d   1      28.819 -15.042   1.482  0.00  0.00    -0.262 N 
ATOM      4  H   UNL d   1      29.519 -15.561   2.004  0.00  0.00     0.190 HD
ENDROOT
BRANCH   1   5
ATOM      5  C   UNL d   1      28.053 -14.100   3.578  0.00  0.00     0.144 A 
ATOM      6  C   UNL d   1      27.162 -13.690   4.558  0.00  0.00     0.045 A 
ATOM      7  C   UNL d   1      27.779 -13.839   5.813  0.00  0.00     0.037 A 
ATOM      8  C   UNL d   1      29.054 -14.295   5.576  0.00  0.00     0.079 A 
ATOM      9  O   UNL d   1      29.248 -14.450   4.219  0.00  0.00    -0.308 OA
BRANCH   8  10
ATOM     10  C   UNL d   1      30.183 -14.446   6.551  0.00  0.00     0.299 C 
BRANCH  10  11
ATOM     11  N   UNL d   1      30.916 -13.086   6.749  0.00  0.00    -0.065 N 
ATOM     12  H   UNL d   1      31.905 -13.259   6.530  0.00  0.00     0.280 HD
BRANCH  11  13
ATOM     13  C   UNL d   1      30.404 -12.053   5.746  0.00  0.00     0.235 C 
BRANCH  13  14
ATOM     14  C   UNL d   1      29.506 -11.012   6.395  0.00  0.00     0.027 C 
BRANCH  14  15
ATOM     15  C   UNL d   1      28.529 -10.302   5.493  0.00  0.00    -0.003 C 
ATOM     16  C   UNL d   1      28.798 -10.753   4.055  0.00  0.00     0.005 C 
ENDBRANCH  14  15
ENDBRANCH  13  14
ENDBRANCH  11  13
BRANCH  11  17
ATOM     17  C   UNL d   1      30.813 -12.713   8.229  0.00  0.00     0.235 C 
BRANCH  17  18
ATOM     18  C   UNL d   1      29.788 -13.530   8.975  0.00  0.00     0.027 C 
BRANCH  18  19
ATOM     19  C   UNL d   1      28.491 -12.822   9.265  0.00  0.00    -0.003 C 
ATOM     20  C   UNL d   1      28.106 -13.145  10.708  0.00  0.00     0.005 C 
ENDBRANCH  18  19
ENDBRANCH  17  18
ENDBRANCH  11  17
ENDBRANCH  10  11
ENDBRANCH   8  10
ENDBRANCH   1   5
BRANCH   3  21
ATOM     21  N   UNL d   1      28.838 -15.317   0.069  0.00  0.00    -0.273 N 
ATOM     22  H   UNL d   1      28.530 -14.563  -0.541  0.00  0.00     0.189 HD
BRANCH  21  23
ATOM     23  C   UNL d   1      29.408 -16.531  -0.373  0.00  0.00     0.191 C 
ATOM     24  S   UNL d   1      31.027 -16.586  -0.849  0.00  0.00    -0.039 SA
BRANCH  23  25
ATOM     25  N   UNL d   1      28.507 -17.605  -0.388  0.00  0.00    -0.330 N 
ATOM     26  H   UNL d   1      28.883 -18.508  -0.146  0.00  0.00     0.168 HD
BRANCH  25  27
ATOM     27  C   UNL d   1      27.071 -17.510  -0.432  0.00  0.00     0.068 A 
ATOM     28  C   UNL d   1      26.339 -18.522   0.211  0.00  0.00     0.034 A 
ATOM     29  C   UNL d   1      24.943 -18.575   0.175  0.00  0.00     0.026 A 
ATOM     30  C   UNL d   1      24.237 -17.581  -0.481  0.00  0.00     0.036 A 
ATOM     31 CL   UNL d   1      22.519 -17.672  -0.548  0.00  0.00    -0.084 Cl
ATOM     32  C   UNL d   1      24.924 -16.519  -1.070  0.00  0.00     0.062 A 
ATOM     33  C   UNL d   1      26.342 -16.460  -1.042  0.00  0.00     0.096 A 
BRANCH  33  34
ATOM     34  O   UNL d   1      26.813 -15.357  -1.713  0.00  0.00    -0.354 OA
ATOM     35  C   UNL d   1      25.971 -14.227  -1.827  0.00  0.00     0.210 C 
ENDBRANCH  33  34
ENDBRANCH  25  27
ENDBRANCH  23  25
ENDBRANCH  21  23
ENDBRANCH   3  21
TORSDOF 14
ENDMDL
MODEL 4
REMARK VINA RESULT:    -7.439      4.876      7.681
REMARK INTER + INTRA:         -15.196
REMARK INTER:                 -11.615
REMARK INTRA:                  -3.581
REMARK CONF_INDEPENDENT:        4.176
REMARK UNBOUND:                -3.581
REMARK  14 active torsions:
REMARK  status: ('A' for Active; 'I' for Inactive)
REMARK    1  A    between atoms: C_2  and  C_3 
REMARK    2  A    between atoms: C_3  and  C_4 
REMARK    3  A    between atoms: C_4  and  N_5 
REMARK    4  A    between atoms: N_5  and  C_6 
REMARK    5  A    between atoms: N_5  and  C_10 
REMARK    6  A    between atoms: C_6  and  C_7 
REMARK    7  A    between atoms: C_7  and  C_8 
REMARK    8  A    between atoms: C_10  and  C_11 
REMARK    9  A    between atoms: C_14  and  C_15 
REMARK       I    between atoms: C_15  and  N_17 
REMARK   10  A    between atoms: N_17  and  N_18 
REMARK   11  A    between atoms: N_18  and  C_19 
REMARK   12  A    between atoms: C_19  and  N_21 
REMARK   13  A    between atoms: N_21  and  C_22 
REMARK   14  A    between atoms: C_28  and  O_29 
ROOT
ATOM      1  C   UNL d   1      30.295 -16.949  -1.243  0.00  0.00     0.293 C 
ATOM      2  O   UNL d   1      30.149 -16.109  -2.114  0.00  0.00    -0.264 OA
ATOM      3  N   UNL d   1      29.893 -16.712   0.082  0.00  0.00    -0.262 N 
ATOM      4  H   UNL d   1      30.006 -17.402   0.818  0.00  0.00     0.190 HD
ENDROOT
BRANCH   1   5
ATOM      5  C   UNL d   1      30.903 -18.286  -1.457  0.00  0.00     0.144 A 
ATOM      6  C   UNL d   1      31.304 -18.922  -2.622  0.00  0.00     0.045 A 
ATOM      7  C   UNL d   1      31.851 -20.173  -2.281  0.00  0.00     0.037 A 
ATOM      8  C   UNL d   1      31.733 -20.298  -0.917  0.00  0.00     0.079 A 
ATOM      9  O   UNL d   1      31.147 -19.165  -0.394  0.00  0.00    -0.308 OA
BRANCH   8  10
ATOM     10  C   UNL d   1      31.993 -21.508  -0.070  0.00  0.00     0.299 C 
BRANCH  10  11
ATOM     11  N   UNL d   1      31.061 -21.510   1.178  0.00  0.00    -0.065 N 
ATOM     12  H   UNL d   1      30.656 -20.567   1.235  0.00  0.00     0.280 HD
BRANCH  11  13
ATOM     13  C   UNL d   1      29.903 -22.487   0.977  0.00  0.00     0.235 C 
BRANCH  13  14
ATOM     14  C   UNL d   1      30.354 -23.799   0.357  0.00  0.00     0.027 C 
BRANCH  14  15
ATOM     15  C   UNL d   1      29.669 -24.219  -0.918  0.00  0.00    -0.003 C 
ATOM     16  C   UNL d   1      30.266 -23.402  -2.068  0.00  0.00     0.005 C 
ENDBRANCH  14  15
ENDBRANCH  13  14
ENDBRANCH  11  13
BRANCH  11  17
ATOM     17  C   UNL d   1      31.935 -21.730   2.413  0.00  0.00     0.235 C 
BRANCH  17  18
ATOM     18  C   UNL d   1      31.527 -20.874   3.587  0.00  0.00     0.027 C 
BRANCH  18  19
ATOM     19  C   UNL d   1      30.703 -21.574   4.634  0.00  0.00    -0.003 C 
ATOM     20  C   UNL d   1      31.509 -21.564   5.933  0.00  0.00     0.005 C 
ENDBRANCH  18  19
ENDBRANCH  17  18
ENDBRANCH  11  17
ENDBRANCH  10  11
ENDBRANCH   8  10
ENDBRANCH   1   5
BRANCH   3  21
ATOM     21  N   UNL d   1      29.324 -15.472   0.542  0.00  0.00    -0.273 N 
ATOM     22  H   UNL d   1      29.960 -14.832   1.014  0.00  0.00     0.189 HD
BRANCH  21  23
ATOM     23  C   UNL d   1      27.990 -15.171   0.190  0.00  0.00     0.191 C 
ATOM     24  S   UNL d   1      27.173 -13.908   0.958  0.00  0.00    -0.039 SA
BRANCH  23  25
ATOM     25  N   UNL d   1      27.461 -16.017  -0.795  0.00  0.00    -0.330 N 
ATOM     26  H   UNL d   1      28.116 -16.388  -1.464  0.00  0.00     0.168 HD
BRANCH  25  27
ATOM     27  C   UNL d   1      26.158 -16.629  -0.780  0.00  0.00     0.068 A 
ATOM     28  C   UNL d   1      25.932 -17.641   0.168  0.00  0.00     0.034 A 
ATOM     29  C   UNL d   1      24.733 -18.355   0.230  0.00  0.00     0.026 A 
ATOM     30  C   UNL d   1      23.704 -18.040  -0.640  0.00  0.00     0.036 A 
ATOM     31 CL   UNL d   1      22.241 -18.948  -0.578  0.00  0.00    -0.084 Cl
ATOM     32  C   UNL d   1      23.861 -16.994  -1.548  0.00  0.00     0.062 A 
ATOM     33  C   UNL d   1      25.078 -16.266  -1.621  0.00  0.00     0.096 A 
BRANCH  33  34
ATOM     34  O   UNL d   1      25.034 -15.309  -2.606  0.00  0.00    -0.354 OA
ATOM     35  C   UNL d   1      25.905 -15.440  -3.712  0.00  0.00     0.210 C 
ENDBRANCH  33  34
ENDBRANCH  25  27
ENDBRANCH  23  25
ENDBRANCH  21  23
ENDBRANCH   3  21
TORSDOF 14
ENDMDL
MODEL 5
REMARK VINA RESULT:    -7.056      3.359      8.977
REMARK INTER + INTRA:         -15.072
REMARK INTER:                 -11.232
REMARK INTRA:                  -3.840
REMARK CONF_INDEPENDENT:        4.176
REMARK UNBOUND:                -3.840
REMARK  14 active torsions:
REMARK  status: ('A' for Active; 'I' for Inactive)
REMARK    1  A    between atoms: C_2  and  C_3 
REMARK    2  A    between atoms: C_3  and  C_4 
REMARK    3  A    between atoms: C_4  and  N_5 
REMARK    4  A    between atoms: N_5  and  C_6 
REMARK    5  A    between atoms: N_5  and  C_10 
REMARK    6  A    between atoms: C_6  and  C_7 
REMARK    7  A    between atoms: C_7  and  C_8 
REMARK    8  A    between atoms: C_10  and  C_11 
REMARK    9  A    between atoms: C_14  and  C_15 
REMARK       I    between atoms: C_15  and  N_17 
REMARK   10  A    between atoms: N_17  and  N_18 
REMARK   11  A    between atoms: N_18  and  C_19 
REMARK   12  A    between atoms: C_19  and  N_21 
REMARK   13  A    between atoms: N_21  and  C_22 
REMARK   14  A    between atoms: C_28  and  O_29 
ROOT
ATOM      1  C   UNL d   1      27.001 -13.246  -0.085  0.00  0.00     0.293 C 
ATOM      2  O   UNL d   1      27.374 -12.114  -0.341  0.00  0.00    -0.264 OA
ATOM      3  N   UNL d   1      27.236 -13.830   1.172  0.00  0.00    -0.262 N 
ATOM      4  H   UNL d   1      26.930 -14.770   1.401  0.00  0.00     0.190 HD
ENDROOT
BRANCH   1   5
ATOM      5  C   UNL d   1      26.280 -14.130  -1.034  0.00  0.00     0.144 A 
ATOM      6  C   UNL d   1      25.926 -13.937  -2.360  0.00  0.00     0.045 A 
ATOM      7  C   UNL d   1      25.277 -15.097  -2.822  0.00  0.00     0.037 A 
ATOM      8  C   UNL d   1      25.205 -15.961  -1.755  0.00  0.00     0.079 A 
ATOM      9  O   UNL d   1      25.800 -15.389  -0.650  0.00  0.00    -0.308 OA
BRANCH   8  10
ATOM     10  C   UNL d   1      24.455 -17.256  -1.659  0.00  0.00     0.299 C 
BRANCH  10  11
ATOM     11  N   UNL d   1      24.402 -17.745  -0.181  0.00  0.00    -0.065 N 
ATOM     12  H   UNL d   1      24.440 -16.900   0.403  0.00  0.00     0.280 HD
BRANCH  11  13
ATOM     13  C   UNL d   1      23.067 -18.432   0.106  0.00  0.00     0.235 C 
BRANCH  13  14
ATOM     14  C   UNL d   1      22.201 -18.555  -1.137  0.00  0.00     0.027 C 
BRANCH  14  15
ATOM     15  C   UNL d   1      20.729 -18.798  -0.918  0.00  0.00    -0.003 C 
ATOM     16  C   UNL d   1      20.572 -19.649   0.345  0.00  0.00     0.005 C 
ENDBRANCH  14  15
ENDBRANCH  13  14
ENDBRANCH  11  13
BRANCH  11  17
ATOM     17  C   UNL d   1      25.664 -18.567   0.084  0.00  0.00     0.235 C 
BRANCH  17  18
ATOM     18  C   UNL d   1      26.815 -17.735   0.597  0.00  0.00     0.027 C 
BRANCH  18  19
ATOM     19  C   UNL d   1      27.972 -17.588  -0.354  0.00  0.00    -0.003 C 
ATOM     20  C   UNL d   1      28.754 -16.344   0.067  0.00  0.00     0.005 C 
ENDBRANCH  18  19
ENDBRANCH  17  18
ENDBRANCH  11  17
ENDBRANCH  10  11
ENDBRANCH   8  10
ENDBRANCH   1   5
BRANCH   3  21
ATOM     21  N   UNL d   1      27.959 -13.187   2.237  0.00  0.00    -0.273 N 
ATOM     22  H   UNL d   1      27.519 -12.367   2.651  0.00  0.00     0.189 HD
BRANCH  21  23
ATOM     23  C   UNL d   1      29.132 -13.805   2.724  0.00  0.00     0.191 C 
ATOM     24  S   UNL d   1      30.557 -13.754   1.818  0.00  0.00    -0.039 SA
BRANCH  23  25
ATOM     25  N   UNL d   1      28.963 -14.445   3.959  0.00  0.00    -0.330 N 
ATOM     26  H   UNL d   1      29.144 -15.436   3.978  0.00  0.00     0.168 HD
BRANCH  25  27
ATOM     27  C   UNL d   1      28.839 -13.800   5.241  0.00  0.00     0.068 A 
ATOM     28  C   UNL d   1      29.384 -14.465   6.352  0.00  0.00     0.034 A 
ATOM     29  C   UNL d   1      29.262 -13.973   7.653  0.00  0.00     0.026 A 
ATOM     30  C   UNL d   1      28.619 -12.767   7.872  0.00  0.00     0.036 A 
ATOM     31 CL   UNL d   1      28.445 -12.185   9.483  0.00  0.00    -0.084 Cl
ATOM     32  C   UNL d   1      28.127 -12.040   6.788  0.00  0.00     0.062 A 
ATOM     33  C   UNL d   1      28.242 -12.535   5.463  0.00  0.00     0.096 A 
BRANCH  33  34
ATOM     34  O   UNL d   1      27.658 -11.684   4.555  0.00  0.00    -0.354 OA
ATOM     35  C   UNL d   1      28.292 -10.449   4.285  0.00  0.00     0.210 C 
ENDBRANCH  33  34
ENDBRANCH  25  27
ENDBRANCH  23  25
ENDBRANCH  21  23
ENDBRANCH   3  21
TORSDOF 14
ENDMDL
MODEL 6
REMARK VINA RESULT:    -6.360      4.918      7.831
REMARK INTER + INTRA:         -15.135
REMARK INTER:                 -10.536
REMARK INTRA:                  -4.598
REMARK CONF_INDEPENDENT:        4.176
REMARK UNBOUND:                -4.598
REMARK  14 active torsions:
REMARK  status: ('A' for Active; 'I' for Inactive)
REMARK    1  A    between atoms: C_2  and  C_3 
REMARK    2  A    between atoms: C_3  and  C_4 
REMARK    3  A    between atoms: C_4  and  N_5 
REMARK    4  A    between atoms: N_5  and  C_6 
REMARK    5  A    between atoms: N_5  and  C_10 
REMARK    6  A    between atoms: C_6  and  C_7 
REMARK    7  A    between atoms: C_7  and  C_8 
REMARK    8  A    between atoms: C_10  and  C_11 
REMARK    9  A    between atoms: C_14  and  C_15 
REMARK       I    between atoms: C_15  and  N_17 
REMARK   10  A    between atoms: N_17  and  N_18 
REMARK   11  A    between atoms: N_18  and  C_19 
REMARK   12  A    between atoms: C_19  and  N_21 
REMARK   13  A    between atoms: N_21  and  C_22 
REMARK   14  A    between atoms: C_28  and  O_29 
ROOT
ATOM      1  C   UNL d   1      25.876 -15.231  -3.906  0.00  0.00     0.293 C 
ATOM      2  O   UNL d   1      24.957 -14.673  -4.481  0.00  0.00    -0.264 OA
ATOM      3  N   UNL d   1      27.155 -15.320  -4.480  0.00  0.00    -0.262 N 
ATOM      4  H   UNL d   1      27.931 -15.779  -4.013  0.00  0.00     0.190 HD
ENDROOT
BRANCH   1   5
ATOM      5  C   UNL d   1      25.768 -15.874  -2.573  0.00  0.00     0.144 A 
ATOM      6  C   UNL d   1      24.697 -15.966  -1.697  0.00  0.00     0.045 A 
ATOM      7  C   UNL d   1      25.104 -16.710  -0.574  0.00  0.00     0.037 A 
ATOM      8  C   UNL d   1      26.430 -17.020  -0.763  0.00  0.00     0.079 A 
ATOM      9  O   UNL d   1      26.859 -16.511  -1.970  0.00  0.00    -0.308 OA
BRANCH   8  10
ATOM     10  C   UNL d   1      27.386 -17.641   0.211  0.00  0.00     0.299 C 
BRANCH  10  11
ATOM     11  N   UNL d   1      28.756 -16.901   0.174  0.00  0.00    -0.065 N 
ATOM     12  H   UNL d   1      29.200 -17.075   1.084  0.00  0.00     0.280 HD
BRANCH  11  13
ATOM     13  C   UNL d   1      29.662 -17.511  -0.895  0.00  0.00     0.235 C 
BRANCH  13  14
ATOM     14  C   UNL d   1      31.137 -17.329  -0.576  0.00  0.00     0.027 C 
BRANCH  14  15
ATOM     15  C   UNL d   1      32.039 -18.509  -0.836  0.00  0.00    -0.003 C 
ATOM     16  C   UNL d   1      31.155 -19.734  -1.087  0.00  0.00     0.005 C 
ENDBRANCH  14  15
ENDBRANCH  13  14
ENDBRANCH  11  13
BRANCH  11  17
ATOM     17  C   UNL d   1      28.474 -15.403   0.058  0.00  0.00     0.235 C 
BRANCH  17  18
ATOM     18  C   UNL d   1      27.817 -14.827   1.288  0.00  0.00     0.027 C 
BRANCH  18  19
ATOM     19  C   UNL d   1      26.828 -13.722   1.029  0.00  0.00    -0.003 C 
ATOM     20  C   UNL d   1      27.031 -13.256  -0.413  0.00  0.00     0.005 C 
ENDBRANCH  18  19
ENDBRANCH  17  18
ENDBRANCH  11  17
ENDBRANCH  10  11
ENDBRANCH   8  10
ENDBRANCH   1   5
BRANCH   3  21
ATOM     21  N   UNL d   1      27.491 -14.816  -5.786  0.00  0.00    -0.273 N 
ATOM     22  H   UNL d   1      26.711 -14.644  -6.417  0.00  0.00     0.189 HD
BRANCH  21  23
ATOM     23  C   UNL d   1      28.833 -14.464  -6.047  0.00  0.00     0.191 C 
ATOM     24  S   UNL d   1      29.406 -12.932  -5.625  0.00  0.00    -0.039 SA
BRANCH  23  25
ATOM     25  N   UNL d   1      29.569 -15.473  -6.682  0.00  0.00    -0.330 N 
ATOM     26  H   UNL d   1      29.982 -15.235  -7.570  0.00  0.00     0.168 HD
BRANCH  25  27
ATOM     27  C   UNL d   1      30.030 -16.697  -6.080  0.00  0.00     0.068 A 
ATOM     28  C   UNL d   1      30.569 -17.673  -6.935  0.00  0.00     0.034 A 
ATOM     29  C   UNL d   1      30.982 -18.926  -6.476  0.00  0.00     0.026 A 
ATOM     30  C   UNL d   1      30.902 -19.220  -5.125  0.00  0.00     0.036 A 
ATOM     31 CL   UNL d   1      31.383 -20.779  -4.573  0.00  0.00    -0.084 Cl
ATOM     32  C   UNL d   1      30.440 -18.253  -4.233  0.00  0.00     0.062 A 
ATOM     33  C   UNL d   1      30.014 -16.979  -4.692  0.00  0.00     0.096 A 
BRANCH  33  34
ATOM     34  O   UNL d   1      29.561 -16.196  -3.656  0.00  0.00    -0.354 OA
ATOM     35  C   UNL d   1      30.411 -15.183  -3.157  0.00  0.00     0.210 C 
ENDBRANCH  33  34
ENDBRANCH  25  27
ENDBRANCH  23  25
ENDBRANCH  21  23
ENDBRANCH   3  21
TORSDOF 14
ENDMDL
MODEL 7
REMARK VINA RESULT:    -5.320      4.765      8.025
REMARK INTER + INTRA:         -14.974
REMARK INTER:                  -9.496
REMARK INTRA:                  -5.478
REMARK CONF_INDEPENDENT:        4.176
REMARK UNBOUND:                -5.478
REMARK  14 active torsions:
REMARK  status: ('A' for Active; 'I' for Inactive)
REMARK    1  A    between atoms: C_2  and  C_3 
REMARK    2  A    between atoms: C_3  and  C_4 
REMARK    3  A    between atoms: C_4  and  N_5 
REMARK    4  A    between atoms: N_5  and  C_6 
REMARK    5  A    between atoms: N_5  and  C_10 
REMARK    6  A    between atoms: C_6  and  C_7 
REMARK    7  A    between atoms: C_7  and  C_8 
REMARK    8  A    between atoms: C_10  and  C_11 
REMARK    9  A    between atoms: C_14  and  C_15 
REMARK       I    between atoms: C_15  and  N_17 
REMARK   10  A    between atoms: N_17  and  N_18 
REMARK   11  A    between atoms: N_18  and  C_19 
REMARK   12  A    between atoms: C_19  and  N_21 
REMARK   13  A    between atoms: N_21  and  C_22 
REMARK   14  A    between atoms: C_28  and  O_29 
ROOT
ATOM      1  C   UNL d   1      27.563 -15.229  -5.221  0.00  0.00     0.293 C 
ATOM      2  O   UNL d   1      27.405 -14.815  -6.357  0.00  0.00    -0.264 OA
ATOM      3  N   UNL d   1      28.712 -15.950  -4.855  0.00  0.00    -0.262 N 
ATOM      4  H   UNL d   1      28.859 -16.299  -3.913  0.00  0.00     0.190 HD
ENDROOT
BRANCH   1   5
ATOM      5  C   UNL d   1      26.594 -15.039  -4.113  0.00  0.00     0.144 A 
ATOM      6  C   UNL d   1      25.455 -14.252  -4.032  0.00  0.00     0.045 A 
ATOM      7  C   UNL d   1      24.866 -14.450  -2.770  0.00  0.00     0.037 A 
ATOM      8  C   UNL d   1      25.680 -15.321  -2.085  0.00  0.00     0.079 A 
ATOM      9  O   UNL d   1      26.746 -15.685  -2.880  0.00  0.00    -0.308 OA
BRANCH   8  10
ATOM     10  C   UNL d   1      25.606 -15.720  -0.641  0.00  0.00     0.299 C 
BRANCH  10  11
ATOM     11  N   UNL d   1      26.654 -16.829  -0.329  0.00  0.00    -0.065 N 
ATOM     12  H   UNL d   1      27.245 -16.909  -1.166  0.00  0.00     0.280 HD
BRANCH  11  13
ATOM     13  C   UNL d   1      27.561 -16.397   0.823  0.00  0.00     0.235 C 
BRANCH  13  14
ATOM     14  C   UNL d   1      27.889 -14.914   0.777  0.00  0.00     0.027 C 
BRANCH  14  15
ATOM     15  C   UNL d   1      27.403 -14.075   1.932  0.00  0.00    -0.003 C 
ATOM     16  C   UNL d   1      26.739 -12.820   1.359  0.00  0.00     0.005 C 
ENDBRANCH  14  15
ENDBRANCH  13  14
ENDBRANCH  11  13
BRANCH  11  17
ATOM     17  C   UNL d   1      25.899 -18.146  -0.148  0.00  0.00     0.235 C 
BRANCH  17  18
ATOM     18  C   UNL d   1      24.542 -18.145  -0.808  0.00  0.00     0.027 C 
BRANCH  18  19
ATOM     19  C   UNL d   1      23.387 -18.470   0.101  0.00  0.00    -0.003 C 
ATOM     20  C   UNL d   1      22.115 -18.437  -0.745  0.00  0.00     0.005 C 
ENDBRANCH  18  19
ENDBRANCH  17  18
ENDBRANCH  11  17
ENDBRANCH  10  11
ENDBRANCH   8  10
ENDBRANCH   1   5
BRANCH   3  21
ATOM     21  N   UNL d   1      29.768 -16.302  -5.767  0.00  0.00    -0.273 N 
ATOM     22  H   UNL d   1      29.986 -15.620  -6.491  0.00  0.00     0.189 HD
BRANCH  21  23
ATOM     23  C   UNL d   1      30.512 -17.476  -5.516  0.00  0.00     0.191 C 
ATOM     24  S   UNL d   1      31.762 -17.929  -6.558  0.00  0.00    -0.039 SA
BRANCH  23  25
ATOM     25  N   UNL d   1      30.088 -18.182  -4.381  0.00  0.00    -0.330 N 
ATOM     26  H   UNL d   1      29.454 -18.949  -4.543  0.00  0.00     0.168 HD
BRANCH  25  27
ATOM     27  C   UNL d   1      30.673 -18.110  -3.068  0.00  0.00     0.068 A 
ATOM     28  C   UNL d   1      31.795 -18.917  -2.818  0.00  0.00     0.034 A 
ATOM     29  C   UNL d   1      32.403 -18.986  -1.562  0.00  0.00     0.026 A 
ATOM     30  C   UNL d   1      31.920 -18.208  -0.524  0.00  0.00     0.036 A 
ATOM     31 CL   UNL d   1      32.656 -18.324   1.028  0.00  0.00    -0.084 Cl
ATOM     32  C   UNL d   1      30.853 -17.339  -0.750  0.00  0.00     0.062 A 
ATOM     33  C   UNL d   1      30.226 -17.266  -2.022  0.00  0.00     0.096 A 
BRANCH  33  34
ATOM     34  O   UNL d   1      29.176 -16.380  -2.015  0.00  0.00    -0.354 OA
ATOM     35  C   UNL d   1      29.462 -14.996  -1.980  0.00  0.00     0.210 C 
ENDBRANCH  33  34
ENDBRANCH  25  27
ENDBRANCH  23  25
ENDBRANCH  21  23
ENDBRANCH   3  21
TORSDOF 14
ENDMDL
MODEL 8
REMARK VINA RESULT:    -5.166      4.972      7.788
REMARK INTER + INTRA:         -14.991
REMARK INTER:                  -9.342
REMARK INTRA:                  -5.649
REMARK CONF_INDEPENDENT:        4.176
REMARK UNBOUND:                -5.649
REMARK  14 active torsions:
REMARK  status: ('A' for Active; 'I' for Inactive)
REMARK    1  A    between atoms: C_2  and  C_3 
REMARK    2  A    between atoms: C_3  and  C_4 
REMARK    3  A    between atoms: C_4  and  N_5 
REMARK    4  A    between atoms: N_5  and  C_6 
REMARK    5  A    between atoms: N_5  and  C_10 
REMARK    6  A    between atoms: C_6  and  C_7 
REMARK    7  A    between atoms: C_7  and  C_8 
REMARK    8  A    between atoms: C_10  and  C_11 
REMARK    9  A    between atoms: C_14  and  C_15 
REMARK       I    between atoms: C_15  and  N_17 
REMARK   10  A    between atoms: N_17  and  N_18 
REMARK   11  A    between atoms: N_18  and  C_19 
REMARK   12  A    between atoms: C_19  and  N_21 
REMARK   13  A    between atoms: N_21  and  C_22 
REMARK   14  A    between atoms: C_28  and  O_29 
ROOT
ATOM      1  C   UNL d   1      27.364 -11.179  -1.455  0.00  0.00     0.293 C 
ATOM      2  O   UNL d   1      28.109 -10.230  -1.284  0.00  0.00    -0.264 OA
ATOM      3  N   UNL d   1      26.545 -11.275  -2.592  0.00  0.00    -0.262 N 
ATOM      4  H   UNL d   1      25.921 -12.061  -2.750  0.00  0.00     0.190 HD
ENDROOT
BRANCH   1   5
ATOM      5  C   UNL d   1      27.221 -12.317  -0.513  0.00  0.00     0.144 A 
ATOM      6  C   UNL d   1      27.596 -12.445   0.816  0.00  0.00     0.045 A 
ATOM      7  C   UNL d   1      27.208 -13.720   1.268  0.00  0.00     0.037 A 
ATOM      8  C   UNL d   1      26.643 -14.366   0.194  0.00  0.00     0.079 A 
ATOM      9  O   UNL d   1      26.651 -13.534  -0.907  0.00  0.00    -0.308 OA
BRANCH   8  10
ATOM     10  C   UNL d   1      26.232 -15.804   0.086  0.00  0.00     0.299 C 
BRANCH  10  11
ATOM     11  N   UNL d   1      26.305 -16.282  -1.394  0.00  0.00    -0.065 N 
ATOM     12  H   UNL d   1      26.358 -15.431  -1.968  0.00  0.00     0.280 HD
BRANCH  11  13
ATOM     13  C   UNL d   1      27.589 -17.073  -1.637  0.00  0.00     0.235 C 
BRANCH  13  14
ATOM     14  C   UNL d   1      28.833 -16.291  -1.247  0.00  0.00     0.027 C 
BRANCH  14  15
ATOM     15  C   UNL d   1      29.629 -15.677  -2.370  0.00  0.00    -0.003 C 
ATOM     16  C   UNL d   1      29.424 -14.160  -2.322  0.00  0.00     0.005 C 
ENDBRANCH  14  15
ENDBRANCH  13  14
ENDBRANCH  11  13
BRANCH  11  17
ATOM     17  C   UNL d   1      24.991 -16.994  -1.719  0.00  0.00     0.235 C 
BRANCH  17  18
ATOM     18  C   UNL d   1      23.824 -16.481  -0.910  0.00  0.00     0.027 C 
BRANCH  18  19
ATOM     19  C   UNL d   1      23.054 -17.534  -0.158  0.00  0.00    -0.003 C 
ATOM     20  C   UNL d   1      23.291 -18.868  -0.866  0.00  0.00     0.005 C 
ENDBRANCH  18  19
ENDBRANCH  17  18
ENDBRANCH  11  17
ENDBRANCH  10  11
ENDBRANCH   8  10
ENDBRANCH   1   5
BRANCH   3  21
ATOM     21  N   UNL d   1      26.472 -10.271  -3.621  0.00  0.00    -0.273 N 
ATOM     22  H   UNL d   1      27.020  -9.427  -3.467  0.00  0.00     0.189 HD
BRANCH  21  23
ATOM     23  C   UNL d   1      25.779 -10.577  -4.813  0.00  0.00     0.191 C 
ATOM     24  S   UNL d   1      25.303  -9.339  -5.859  0.00  0.00    -0.039 SA
BRANCH  23  25
ATOM     25  N   UNL d   1      25.531 -11.945  -4.987  0.00  0.00    -0.330 N 
ATOM     26  H   UNL d   1      24.582 -12.203  -5.205  0.00  0.00     0.168 HD
BRANCH  25  27
ATOM     27  C   UNL d   1      26.523 -12.973  -5.169  0.00  0.00     0.068 A 
ATOM     28  C   UNL d   1      27.671 -12.637  -5.907  0.00  0.00     0.034 A 
ATOM     29  C   UNL d   1      28.666 -13.569  -6.209  0.00  0.00     0.026 A 
ATOM     30  C   UNL d   1      28.555 -14.866  -5.738  0.00  0.00     0.036 A 
ATOM     31 CL   UNL d   1      29.770 -16.016  -6.143  0.00  0.00    -0.084 Cl
ATOM     32  C   UNL d   1      27.467 -15.221  -4.941  0.00  0.00     0.062 A 
ATOM     33  C   UNL d   1      26.449 -14.282  -4.633  0.00  0.00     0.096 A 
BRANCH  33  34
ATOM     34  O   UNL d   1      25.454 -14.848  -3.871  0.00  0.00    -0.354 OA
ATOM     35  C   UNL d   1      24.404 -14.020  -3.412  0.00  0.00     0.210 C 
ENDBRANCH  33  34
ENDBRANCH  25  27
ENDBRANCH  23  25
ENDBRANCH  21  23
ENDBRANCH   3  21
TORSDOF 14
ENDMDL
