MODEL 1
REMARK VINA RESULT:    -5.241      0.000      0.000
REMARK INTER + INTRA:          -9.707
REMARK INTER:                  -7.926
REMARK INTRA:                  -1.781
REMARK CONF_INDEPENDENT:        2.685
REMARK UNBOUND:                -1.781
REMARK  9 active torsions:
REMARK  status: ('A' for Active; 'I' for Inactive)
REMARK    1  A    between atoms: C_2  and  O_3 
REMARK    2  A    between atoms: O_3  and  C_4 
REMARK    3  A    between atoms: C_4  and  C_6 
REMARK    4  A    between atoms: C_7  and  C_8 
REMARK    5  A    between atoms: C_11  and  O_12 
REMARK    6  A    between atoms: C_13  and  O_14 
REMARK    7  A    between atoms: O_14  and  C_15 
REMARK    8  A    between atoms: C_22  and  C_24 
REMARK    9  A    between atoms: C_22  and  O_23 
ROOT
ATOM      1  C   UNL d   1      26.526 -14.916  -3.091  0.00  0.00     0.177 C 
ATOM      2  C   UNL d   1      27.117 -13.690  -2.365  0.00  0.00     0.136 C 
ATOM      3  N   UNL d   1      26.338 -12.497  -2.685  0.00  0.00    -0.358 N 
ATOM      4  C   UNL d   1      25.916 -12.239  -3.958  0.00  0.00     0.170 C 
ATOM      5  S   UNL d   1      25.892 -10.727  -4.620  0.00  0.00    -0.041 SA
ATOM      6  N   UNL d   1      25.436 -13.344  -4.599  0.00  0.00    -0.328 N 
ATOM      7  C   UNL d   1      26.269 -14.527  -4.559  0.00  0.00     0.249 C 
ATOM      8  H   UNL d   1      26.299 -11.712  -2.046  0.00  0.00     0.162 HD
ATOM      9  H   UNL d   1      24.841 -13.209  -5.407  0.00  0.00     0.165 HD
ENDROOT
BRANCH   2  10
ATOM     10  C   UNL d   1      27.406 -13.922  -0.894  0.00  0.00    -0.032 A 
ATOM     11  C   UNL d   1      28.164 -15.049  -0.521  0.00  0.00     0.012 A 
ATOM     12  C   UNL d   1      28.384 -15.350   0.820  0.00  0.00     0.040 A 
ATOM     13  C   UNL d   1      27.881 -14.508   1.808  0.00  0.00     0.099 A 
ATOM     14  C   UNL d   1      27.141 -13.369   1.465  0.00  0.00     0.102 A 
ATOM     15  C   UNL d   1      26.915 -13.086   0.115  0.00  0.00     0.049 A 
BRANCH  13  16
ATOM     16  O   UNL d   1      28.130 -14.827   3.114  0.00  0.00    -0.358 OA
ATOM     17  H   UNL d   1      28.854 -15.466   3.175  0.00  0.00     0.217 HD
ENDBRANCH  13  16
BRANCH  14  18
ATOM     18  O   UNL d   1      26.565 -12.454   2.312  0.00  0.00    -0.349 OA
BRANCH  18  19
ATOM     19  C   UNL d   1      27.261 -11.221   2.451  0.00  0.00     0.171 C 
ATOM     20  C   UNL d   1      26.283 -10.070   2.408  0.00  0.00     0.034 C 
ENDBRANCH  18  19
ENDBRANCH  14  18
ENDBRANCH   2  10
BRANCH   1  21
ATOM     21  C   UNL d   1      25.286 -15.368  -2.321  0.00  0.00     0.270 C 
ATOM     22  O   UNL d   1      24.136 -15.052  -2.658  0.00  0.00    -0.265 OA
BRANCH  21  23
ATOM     23  O   UNL d   1      25.542 -16.143  -1.235  0.00  0.00    -0.321 OA
BRANCH  23  24
ATOM     24  C   UNL d   1      24.375 -16.588  -0.519  0.00  0.00     0.174 C 
ATOM     25  C   UNL d   1      23.811 -17.824  -1.198  0.00  0.00     0.034 C 
ENDBRANCH  23  24
ENDBRANCH  21  23
ENDBRANCH   1  21
BRANCH   7  26
ATOM     26  C   UNL d   1      27.626 -14.301  -5.376  0.00  0.00     0.438 C 
ATOM     27  F   UNL d   1      28.745 -14.408  -4.629  0.00  0.00    -0.166 F 
ATOM     28  F   UNL d   1      27.760 -15.198  -6.382  0.00  0.00    -0.166 F 
ATOM     29  F   UNL d   1      27.655 -13.066  -5.940  0.00  0.00    -0.166 F 
ENDBRANCH   7  26
BRANCH   7  30
ATOM     30  O   UNL d   1      25.516 -15.553  -5.225  0.00  0.00    -0.363 OA
ATOM     31  H   UNL d   1      24.851 -15.883  -4.597  0.00  0.00     0.213 HD
ENDBRANCH   7  30
TORSDOF 9
ENDMDL
MODEL 2
REMARK VINA RESULT:    -5.109      1.134      2.683
REMARK INTER + INTRA:          -9.834
REMARK INTER:                  -7.794
REMARK INTRA:                  -2.041
REMARK CONF_INDEPENDENT:        2.685
REMARK UNBOUND:                -2.041
REMARK  9 active torsions:
REMARK  status: ('A' for Active; 'I' for Inactive)
REMARK    1  A    between atoms: C_2  and  O_3 
REMARK    2  A    between atoms: O_3  and  C_4 
REMARK    3  A    between atoms: C_4  and  C_6 
REMARK    4  A    between atoms: C_7  and  C_8 
REMARK    5  A    between atoms: C_11  and  O_12 
REMARK    6  A    between atoms: C_13  and  O_14 
REMARK    7  A    between atoms: O_14  and  C_15 
REMARK    8  A    between atoms: C_22  and  C_24 
REMARK    9  A    between atoms: C_22  and  O_23 
ROOT
ATOM      1  C   UNL d   1      26.186 -14.517  -3.198  0.00  0.00     0.177 C 
ATOM      2  C   UNL d   1      26.904 -13.445  -2.352  0.00  0.00     0.136 C 
ATOM      3  N   UNL d   1      26.283 -12.141  -2.566  0.00  0.00    -0.358 N 
ATOM      4  C   UNL d   1      25.924 -11.716  -3.813  0.00  0.00     0.170 C 
ATOM      5  S   UNL d   1      26.098 -10.157  -4.328  0.00  0.00    -0.041 SA
ATOM      6  N   UNL d   1      25.329 -12.690  -4.562  0.00  0.00    -0.328 N 
ATOM      7  C   UNL d   1      26.011 -13.964  -4.626  0.00  0.00     0.249 C 
ATOM      8  H   UNL d   1      26.323 -11.421  -1.855  0.00  0.00     0.162 HD
ATOM      9  H   UNL d   1      24.774 -12.408  -5.360  0.00  0.00     0.165 HD
ENDROOT
BRANCH   2  10
ATOM     10  C   UNL d   1      27.129 -13.847  -0.907  0.00  0.00    -0.032 A 
ATOM     11  C   UNL d   1      26.997 -12.869   0.098  0.00  0.00     0.012 A 
ATOM     12  C   UNL d   1      27.275 -13.170   1.429  0.00  0.00     0.040 A 
ATOM     13  C   UNL d   1      27.655 -14.463   1.779  0.00  0.00     0.099 A 
ATOM     14  C   UNL d   1      27.775 -15.460   0.803  0.00  0.00     0.102 A 
ATOM     15  C   UNL d   1      27.507 -15.141  -0.532  0.00  0.00     0.049 A 
BRANCH  13  16
ATOM     16  O   UNL d   1      27.905 -14.725   3.097  0.00  0.00    -0.358 OA
ATOM     17  H   UNL d   1      28.327 -15.591   3.197  0.00  0.00     0.217 HD
ENDBRANCH  13  16
BRANCH  14  18
ATOM     18  O   UNL d   1      28.153 -16.768   0.980  0.00  0.00    -0.349 OA
BRANCH  18  19
ATOM     19  C   UNL d   1      27.664 -17.687   0.011  0.00  0.00     0.171 C 
ATOM     20  C   UNL d   1      26.603 -18.570   0.626  0.00  0.00     0.034 C 
ENDBRANCH  18  19
ENDBRANCH  14  18
ENDBRANCH   2  10
BRANCH   1  21
ATOM     21  C   UNL d   1      24.884 -14.884  -2.489  0.00  0.00     0.270 C 
ATOM     22  O   UNL d   1      23.780 -14.449  -2.848  0.00  0.00    -0.265 OA
BRANCH  21  23
ATOM     23  O   UNL d   1      25.029 -15.724  -1.431  0.00  0.00    -0.321 OA
BRANCH  23  24
ATOM     24  C   UNL d   1      24.401 -17.009  -1.588  0.00  0.00     0.174 C 
ATOM     25  C   UNL d   1      23.604 -17.335  -0.338  0.00  0.00     0.034 C 
ENDBRANCH  23  24
ENDBRANCH  21  23
ENDBRANCH   1  21
BRANCH   7  26
ATOM     26  C   UNL d   1      27.405 -13.831  -5.402  0.00  0.00     0.438 C 
ATOM     27  F   UNL d   1      27.380 -12.963  -6.435  0.00  0.00    -0.166 F 
ATOM     28  F   UNL d   1      28.396 -13.408  -4.581  0.00  0.00    -0.166 F 
ATOM     29  F   UNL d   1      27.796 -15.027  -5.910  0.00  0.00    -0.166 F 
ENDBRANCH   7  26
BRANCH   7  30
ATOM     30  O   UNL d   1      25.156 -14.823  -5.395  0.00  0.00    -0.363 OA
ATOM     31  H   UNL d   1      24.245 -14.682  -5.087  0.00  0.00     0.213 HD
ENDBRANCH   7  30
TORSDOF 9
ENDMDL
MODEL 3
REMARK VINA RESULT:    -5.034      3.032      4.509
REMARK INTER + INTRA:          -9.774
REMARK INTER:                  -7.719
REMARK INTRA:                  -2.055
REMARK CONF_INDEPENDENT:        2.685
REMARK UNBOUND:                -2.055
REMARK  9 active torsions:
REMARK  status: ('A' for Active; 'I' for Inactive)
REMARK    1  A    between atoms: C_2  and  O_3 
REMARK    2  A    between atoms: O_3  and  C_4 
REMARK    3  A    between atoms: C_4  and  C_6 
REMARK    4  A    between atoms: C_7  and  C_8 
REMARK    5  A    between atoms: C_11  and  O_12 
REMARK    6  A    between atoms: C_13  and  O_14 
REMARK    7  A    between atoms: O_14  and  C_15 
REMARK    8  A    between atoms: C_22  and  C_24 
REMARK    9  A    between atoms: C_22  and  O_23 
ROOT
ATOM      1  C   UNL d   1      27.655 -13.916  -3.960  0.00  0.00     0.177 C 
ATOM      2  C   UNL d   1      26.918 -13.659  -2.629  0.00  0.00     0.136 C 
ATOM      3  N   UNL d   1      25.884 -12.645  -2.820  0.00  0.00    -0.358 N 
ATOM      4  C   UNL d   1      26.115 -11.518  -3.554  0.00  0.00     0.170 C 
ATOM      5  S   UNL d   1      25.530 -10.029  -3.144  0.00  0.00    -0.041 SA
ATOM      6  N   UNL d   1      26.806 -11.758  -4.706  0.00  0.00    -0.328 N 
ATOM      7  C   UNL d   1      28.009 -12.553  -4.584  0.00  0.00     0.249 C 
ATOM      8  H   UNL d   1      25.064 -12.617  -2.225  0.00  0.00     0.162 HD
ATOM      9  H   UNL d   1      26.767 -11.065  -5.442  0.00  0.00     0.165 HD
ENDROOT
BRANCH   2  10
ATOM     10  C   UNL d   1      26.488 -14.921  -1.907  0.00  0.00    -0.032 A 
ATOM     11  C   UNL d   1      27.434 -15.608  -1.120  0.00  0.00     0.012 A 
ATOM     12  C   UNL d   1      27.111 -16.815  -0.506  0.00  0.00     0.040 A 
ATOM     13  C   UNL d   1      25.826 -17.335  -0.640  0.00  0.00     0.099 A 
ATOM     14  C   UNL d   1      24.860 -16.664  -1.400  0.00  0.00     0.102 A 
ATOM     15  C   UNL d   1      25.202 -15.459  -2.023  0.00  0.00     0.049 A 
BRANCH  13  16
ATOM     16  O   UNL d   1      25.541 -18.515  -0.010  0.00  0.00    -0.358 OA
ATOM     17  H   UNL d   1      24.647 -18.811  -0.234  0.00  0.00     0.217 HD
ENDBRANCH  13  16
BRANCH  14  18
ATOM     18  O   UNL d   1      23.565 -17.049  -1.643  0.00  0.00    -0.349 OA
BRANCH  18  19
ATOM     19  C   UNL d   1      22.712 -17.094  -0.505  0.00  0.00     0.171 C 
ATOM     20  C   UNL d   1      22.243 -18.511  -0.269  0.00  0.00     0.034 C 
ENDBRANCH  18  19
ENDBRANCH  14  18
ENDBRANCH   2  10
BRANCH   1  21
ATOM     21  C   UNL d   1      26.768 -14.807  -4.827  0.00  0.00     0.270 C 
ATOM     22  O   UNL d   1      25.534 -14.831  -4.719  0.00  0.00    -0.265 OA
BRANCH  21  23
ATOM     23  O   UNL d   1      27.437 -15.574  -5.726  0.00  0.00    -0.321 OA
BRANCH  23  24
ATOM     24  C   UNL d   1      28.810 -15.845  -5.389  0.00  0.00     0.174 C 
ATOM     25  C   UNL d   1      29.684 -15.603  -6.606  0.00  0.00     0.034 C 
ENDBRANCH  23  24
ENDBRANCH  21  23
ENDBRANCH   1  21
BRANCH   7  26
ATOM     26  C   UNL d   1      29.129 -11.772  -3.747  0.00  0.00     0.438 C 
ATOM     27  F   UNL d   1      28.669 -10.689  -3.087  0.00  0.00    -0.166 F 
ATOM     28  F   UNL d   1      29.700 -12.567  -2.812  0.00  0.00    -0.166 F 
ATOM     29  F   UNL d   1      30.127 -11.336  -4.558  0.00  0.00    -0.166 F 
ENDBRANCH   7  26
BRANCH   7  30
ATOM     30  O   UNL d   1      28.497 -12.726  -5.923  0.00  0.00    -0.363 OA
ATOM     31  H   UNL d   1      28.310 -13.643  -6.187  0.00  0.00     0.213 HD
ENDBRANCH   7  30
TORSDOF 9
ENDMDL
MODEL 4
REMARK VINA RESULT:    -4.801      2.519      4.933
REMARK INTER + INTRA:          -9.434
REMARK INTER:                  -7.486
REMARK INTRA:                  -1.949
REMARK CONF_INDEPENDENT:        2.685
REMARK UNBOUND:                -1.949
REMARK  9 active torsions:
REMARK  status: ('A' for Active; 'I' for Inactive)
REMARK    1  A    between atoms: C_2  and  O_3 
REMARK    2  A    between atoms: O_3  and  C_4 
REMARK    3  A    between atoms: C_4  and  C_6 
REMARK    4  A    between atoms: C_7  and  C_8 
REMARK    5  A    between atoms: C_11  and  O_12 
REMARK    6  A    between atoms: C_13  and  O_14 
REMARK    7  A    between atoms: O_14  and  C_15 
REMARK    8  A    between atoms: C_22  and  C_24 
REMARK    9  A    between atoms: C_22  and  O_23 
ROOT
ATOM      1  C   UNL d   1      26.266 -13.507  -2.206  0.00  0.00     0.177 C 
ATOM      2  C   UNL d   1      26.031 -14.895  -2.841  0.00  0.00     0.136 C 
ATOM      3  N   UNL d   1      27.207 -15.298  -3.607  0.00  0.00    -0.358 N 
ATOM      4  C   UNL d   1      27.868 -14.421  -4.417  0.00  0.00     0.170 C 
ATOM      5  S   UNL d   1      28.500 -14.837  -5.885  0.00  0.00    -0.041 SA
ATOM      6  N   UNL d   1      28.028 -13.187  -3.857  0.00  0.00    -0.328 N 
ATOM      7  C   UNL d   1      26.846 -12.577  -3.288  0.00  0.00     0.249 C 
ATOM      8  H   UNL d   1      27.420 -16.277  -3.758  0.00  0.00     0.162 HD
ATOM      9  H   UNL d   1      28.742 -12.577  -4.236  0.00  0.00     0.165 HD
ENDROOT
BRANCH   2  10
ATOM     10  C   UNL d   1      25.474 -15.928  -1.880  0.00  0.00    -0.032 A 
ATOM     11  C   UNL d   1      26.373 -16.720  -1.140  0.00  0.00     0.012 A 
ATOM     12  C   UNL d   1      25.912 -17.738  -0.309  0.00  0.00     0.040 A 
ATOM     13  C   UNL d   1      24.543 -17.953  -0.177  0.00  0.00     0.099 A 
ATOM     14  C   UNL d   1      23.625 -17.167  -0.885  0.00  0.00     0.102 A 
ATOM     15  C   UNL d   1      24.102 -16.158  -1.728  0.00  0.00     0.049 A 
BRANCH  13  16
ATOM     16  O   UNL d   1      24.126 -18.951   0.659  0.00  0.00    -0.358 OA
ATOM     17  H   UNL d   1      23.159 -18.998   0.676  0.00  0.00     0.217 HD
ENDBRANCH  13  16
BRANCH  14  18
ATOM     18  O   UNL d   1      22.256 -17.262  -0.880  0.00  0.00    -0.349 OA
BRANCH  18  19
ATOM     19  C   UNL d   1      21.728 -18.568  -1.086  0.00  0.00     0.171 C 
ATOM     20  C   UNL d   1      20.230 -18.554  -0.895  0.00  0.00     0.034 C 
ENDBRANCH  18  19
ENDBRANCH  14  18
ENDBRANCH   2  10
BRANCH   1  21
ATOM     21  C   UNL d   1      27.154 -13.695  -0.978  0.00  0.00     0.270 C 
ATOM     22  O   UNL d   1      28.372 -13.466  -0.991  0.00  0.00    -0.265 OA
BRANCH  21  23
ATOM     23  O   UNL d   1      26.505 -14.133   0.132  0.00  0.00    -0.321 OA
BRANCH  23  24
ATOM     24  C   UNL d   1      27.316 -14.203   1.320  0.00  0.00     0.174 C 
ATOM     25  C   UNL d   1      26.983 -13.030   2.224  0.00  0.00     0.034 C 
ENDBRANCH  23  24
ENDBRANCH  21  23
ENDBRANCH   1  21
BRANCH   7  26
ATOM     26  C   UNL d   1      25.777 -12.226  -4.427  0.00  0.00     0.438 C 
ATOM     27  F   UNL d   1      26.220 -12.439  -5.684  0.00  0.00    -0.166 F 
ATOM     28  F   UNL d   1      24.649 -12.964  -4.298  0.00  0.00    -0.166 F 
ATOM     29  F   UNL d   1      25.407 -10.922  -4.363  0.00  0.00    -0.166 F 
ENDBRANCH   7  26
BRANCH   7  30
ATOM     30  O   UNL d   1      27.290 -11.344  -2.703  0.00  0.00    -0.363 OA
ATOM     31  H   UNL d   1      27.813 -11.565  -1.913  0.00  0.00     0.213 HD
ENDBRANCH   7  30
TORSDOF 9
ENDMDL
MODEL 5
REMARK VINA RESULT:    -4.759      3.161      4.802
REMARK INTER + INTRA:          -9.427
REMARK INTER:                  -7.444
REMARK INTRA:                  -1.983
REMARK CONF_INDEPENDENT:        2.685
REMARK UNBOUND:                -1.983
REMARK  9 active torsions:
REMARK  status: ('A' for Active; 'I' for Inactive)
REMARK    1  A    between atoms: C_2  and  O_3 
REMARK    2  A    between atoms: O_3  and  C_4 
REMARK    3  A    between atoms: C_4  and  C_6 
REMARK    4  A    between atoms: C_7  and  C_8 
REMARK    5  A    between atoms: C_11  and  O_12 
REMARK    6  A    between atoms: C_13  and  O_14 
REMARK    7  A    between atoms: O_14  and  C_15 
REMARK    8  A    between atoms: C_22  and  C_24 
REMARK    9  A    between atoms: C_22  and  O_23 
ROOT
ATOM      1  C   UNL d   1      27.927 -13.624  -4.906  0.00  0.00     0.177 C 
ATOM      2  C   UNL d   1      26.701 -13.159  -4.092  0.00  0.00     0.136 C 
ATOM      3  N   UNL d   1      25.802 -12.384  -4.944  0.00  0.00    -0.358 N 
ATOM      4  C   UNL d   1      26.275 -11.450  -5.820  0.00  0.00     0.170 C 
ATOM      5  S   UNL d   1      25.524 -10.007  -6.105  0.00  0.00    -0.041 SA
ATOM      6  N   UNL d   1      27.385 -11.862  -6.499  0.00  0.00    -0.328 N 
ATOM      7  C   UNL d   1      28.459 -12.418  -5.704  0.00  0.00     0.249 C 
ATOM      8  H   UNL d   1      24.811 -12.331  -4.744  0.00  0.00     0.162 HD
ATOM      9  H   UNL d   1      27.627 -11.383  -7.357  0.00  0.00     0.165 HD
ENDROOT
BRANCH   2  10
ATOM     10  C   UNL d   1      26.057 -14.254  -3.265  0.00  0.00    -0.032 A 
ATOM     11  C   UNL d   1      24.655 -14.266  -3.129  0.00  0.00     0.012 A 
ATOM     12  C   UNL d   1      24.025 -15.201  -2.312  0.00  0.00     0.040 A 
ATOM     13  C   UNL d   1      24.784 -16.160  -1.647  0.00  0.00     0.099 A 
ATOM     14  C   UNL d   1      26.178 -16.184  -1.780  0.00  0.00     0.102 A 
ATOM     15  C   UNL d   1      26.800 -15.230  -2.592  0.00  0.00     0.049 A 
BRANCH  13  16
ATOM     16  O   UNL d   1      24.129 -17.072  -0.866  0.00  0.00    -0.358 OA
ATOM     17  H   UNL d   1      24.763 -17.634  -0.398  0.00  0.00     0.217 HD
ENDBRANCH  13  16
BRANCH  14  18
ATOM     18  O   UNL d   1      27.065 -17.045  -1.183  0.00  0.00    -0.349 OA
BRANCH  18  19
ATOM     19  C   UNL d   1      27.165 -16.943   0.232  0.00  0.00     0.171 C 
ATOM     20  C   UNL d   1      26.659 -18.211   0.878  0.00  0.00     0.034 C 
ENDBRANCH  18  19
ENDBRANCH  14  18
ENDBRANCH   2  10
BRANCH   1  21
ATOM     21  C   UNL d   1      27.503 -14.819  -5.757  0.00  0.00     0.270 C 
ATOM     22  O   UNL d   1      26.341 -15.249  -5.776  0.00  0.00    -0.265 OA
BRANCH  21  23
ATOM     23  O   UNL d   1      28.501 -15.378  -6.490  0.00  0.00    -0.321 OA
BRANCH  23  24
ATOM     24  C   UNL d   1      29.634 -15.831  -5.727  0.00  0.00     0.174 C 
ATOM     25  C   UNL d   1      30.489 -16.741  -6.590  0.00  0.00     0.034 C 
ENDBRANCH  23  24
ENDBRANCH  21  23
ENDBRANCH   1  21
BRANCH   7  26
ATOM     26  C   UNL d   1      29.111 -11.302  -4.760  0.00  0.00     0.438 C 
ATOM     27  F   UNL d   1      29.834 -10.374  -5.421  0.00  0.00    -0.166 F 
ATOM     28  F   UNL d   1      28.169 -10.620  -4.068  0.00  0.00    -0.166 F 
ATOM     29  F   UNL d   1      29.945 -11.863  -3.847  0.00  0.00    -0.166 F 
ENDBRANCH   7  26
BRANCH   7  30
ATOM     30  O   UNL d   1      29.457 -12.841  -6.645  0.00  0.00    -0.363 OA
ATOM     31  H   UNL d   1      29.207 -13.726  -6.961  0.00  0.00     0.213 HD
ENDBRANCH   7  30
TORSDOF 9
ENDMDL
MODEL 6
REMARK VINA RESULT:    -4.719      1.247      2.597
REMARK INTER + INTRA:          -9.442
REMARK INTER:                  -7.404
REMARK INTRA:                  -2.038
REMARK CONF_INDEPENDENT:        2.685
REMARK UNBOUND:                -2.038
REMARK  9 active torsions:
REMARK  status: ('A' for Active; 'I' for Inactive)
REMARK    1  A    between atoms: C_2  and  O_3 
REMARK    2  A    between atoms: O_3  and  C_4 
REMARK    3  A    between atoms: C_4  and  C_6 
REMARK    4  A    between atoms: C_7  and  C_8 
REMARK    5  A    between atoms: C_11  and  O_12 
REMARK    6  A    between atoms: C_13  and  O_14 
REMARK    7  A    between atoms: O_14  and  C_15 
REMARK    8  A    between atoms: C_22  and  C_24 
REMARK    9  A    between atoms: C_22  and  O_23 
ROOT
ATOM      1  C   UNL d   1      26.351 -14.510  -3.034  0.00  0.00     0.177 C 
ATOM      2  C   UNL d   1      27.051 -13.411  -2.207  0.00  0.00     0.136 C 
ATOM      3  N   UNL d   1      26.304 -12.160  -2.309  0.00  0.00    -0.358 N 
ATOM      4  C   UNL d   1      25.799 -11.723  -3.499  0.00  0.00     0.170 C 
ATOM      5  S   UNL d   1      25.793 -10.136  -3.958  0.00  0.00    -0.041 SA
ATOM      6  N   UNL d   1      25.223 -12.716  -4.236  0.00  0.00    -0.328 N 
ATOM      7  C   UNL d   1      26.001 -13.923  -4.415  0.00  0.00     0.249 C 
ATOM      8  H   UNL d   1      26.349 -11.464  -1.573  0.00  0.00     0.162 HD
ATOM      9  H   UNL d   1      24.575 -12.456  -4.969  0.00  0.00     0.165 HD
ENDROOT
BRANCH   2  10
ATOM     10  C   UNL d   1      27.439 -13.844  -0.807  0.00  0.00    -0.032 A 
ATOM     11  C   UNL d   1      26.664 -13.397   0.281  0.00  0.00     0.012 A 
ATOM     12  C   UNL d   1      27.030 -13.698   1.590  0.00  0.00     0.040 A 
ATOM     13  C   UNL d   1      28.156 -14.482   1.829  0.00  0.00     0.099 A 
ATOM     14  C   UNL d   1      28.933 -14.958   0.765  0.00  0.00     0.102 A 
ATOM     15  C   UNL d   1      28.563 -14.635  -0.544  0.00  0.00     0.049 A 
BRANCH  13  16
ATOM     16  O   UNL d   1      28.475 -14.771   3.127  0.00  0.00    -0.358 OA
ATOM     17  H   UNL d   1      29.128 -15.485   3.165  0.00  0.00     0.217 HD
ENDBRANCH  13  16
BRANCH  14  18
ATOM     18  O   UNL d   1      30.072 -15.721   0.832  0.00  0.00    -0.349 OA
BRANCH  18  19
ATOM     19  C   UNL d   1      30.419 -16.415  -0.361  0.00  0.00     0.171 C 
ATOM     20  C   UNL d   1      29.525 -17.620  -0.534  0.00  0.00     0.034 C 
ENDBRANCH  18  19
ENDBRANCH  14  18
ENDBRANCH   2  10
BRANCH   1  21
ATOM     21  C   UNL d   1      25.154 -15.015  -2.231  0.00  0.00     0.270 C 
ATOM     22  O   UNL d   1      23.982 -14.825  -2.584  0.00  0.00    -0.265 OA
BRANCH  21  23
ATOM     23  O   UNL d   1      25.474 -15.689  -1.096  0.00  0.00    -0.321 OA
BRANCH  23  24
ATOM     24  C   UNL d   1      25.054 -17.066  -1.069  0.00  0.00     0.174 C 
ATOM     25  C   UNL d   1      25.871 -17.820  -0.035  0.00  0.00     0.034 C 
ENDBRANCH  23  24
ENDBRANCH  21  23
ENDBRANCH   1  21
BRANCH   7  26
ATOM     26  C   UNL d   1      27.302 -13.639  -5.303  0.00  0.00     0.438 C 
ATOM     27  F   UNL d   1      28.428 -13.440  -4.586  0.00  0.00    -0.166 F 
ATOM     28  F   UNL d   1      27.569 -14.668  -6.142  0.00  0.00    -0.166 F 
ATOM     29  F   UNL d   1      27.134 -12.534  -6.074  0.00  0.00    -0.166 F 
ENDBRANCH   7  26
BRANCH   7  30
ATOM     30  O   UNL d   1      25.155 -14.825  -5.144  0.00  0.00    -0.363 OA
ATOM     31  H   UNL d   1      24.236 -14.634  -4.890  0.00  0.00     0.213 HD
ENDBRANCH   7  30
TORSDOF 9
ENDMDL
MODEL 7
REMARK VINA RESULT:    -4.415      3.687      6.137
REMARK INTER + INTRA:          -9.301
REMARK INTER:                  -7.100
REMARK INTRA:                  -2.201
REMARK CONF_INDEPENDENT:        2.685
REMARK UNBOUND:                -2.201
REMARK  9 active torsions:
REMARK  status: ('A' for Active; 'I' for Inactive)
REMARK    1  A    between atoms: C_2  and  O_3 
REMARK    2  A    between atoms: O_3  and  C_4 
REMARK    3  A    between atoms: C_4  and  C_6 
REMARK    4  A    between atoms: C_7  and  C_8 
REMARK    5  A    between atoms: C_11  and  O_12 
REMARK    6  A    between atoms: C_13  and  O_14 
REMARK    7  A    between atoms: O_14  and  C_15 
REMARK    8  A    between atoms: C_22  and  C_24 
REMARK    9  A    between atoms: C_22  and  O_23 
ROOT
ATOM      1  C   UNL d   1      27.815 -14.914   0.327  0.00  0.00     0.177 C 
ATOM      2  C   UNL d   1      28.692 -14.323  -0.796  0.00  0.00     0.136 C 
ATOM      3  N   UNL d   1      30.103 -14.574  -0.513  0.00  0.00    -0.358 N 
ATOM      4  C   UNL d   1      30.620 -14.412   0.740  0.00  0.00     0.170 C 
ATOM      5  S   UNL d   1      32.117 -13.779   1.032  0.00  0.00    -0.041 SA
ATOM      6  N   UNL d   1      29.811 -14.902   1.724  0.00  0.00    -0.328 N 
ATOM      7  C   UNL d   1      28.422 -14.497   1.680  0.00  0.00     0.249 C 
ATOM      8  H   UNL d   1      30.783 -14.631  -1.261  0.00  0.00     0.162 HD
ATOM      9  H   UNL d   1      30.220 -15.097   2.629  0.00  0.00     0.165 HD
ENDROOT
BRANCH   2  10
ATOM     10  C   UNL d   1      28.222 -14.669  -2.196  0.00  0.00    -0.032 A 
ATOM     11  C   UNL d   1      29.178 -15.040  -3.161  0.00  0.00     0.012 A 
ATOM     12  C   UNL d   1      28.805 -15.285  -4.480  0.00  0.00     0.040 A 
ATOM     13  C   UNL d   1      27.464 -15.200  -4.844  0.00  0.00     0.099 A 
ATOM     14  C   UNL d   1      26.488 -14.854  -3.900  0.00  0.00     0.102 A 
ATOM     15  C   UNL d   1      26.879 -14.595  -2.582  0.00  0.00     0.049 A 
BRANCH  13  16
ATOM     16  O   UNL d   1      27.132 -15.463  -6.144  0.00  0.00    -0.358 OA
ATOM     17  H   UNL d   1      26.181 -15.346  -6.282  0.00  0.00     0.217 HD
ENDBRANCH  13  16
BRANCH  14  18
ATOM     18  O   UNL d   1      25.138 -14.710  -4.101  0.00  0.00    -0.349 OA
BRANCH  18  19
ATOM     19  C   UNL d   1      24.620 -13.401  -3.896  0.00  0.00     0.171 C 
ATOM     20  C   UNL d   1      25.530 -12.381  -4.539  0.00  0.00     0.034 C 
ENDBRANCH  18  19
ENDBRANCH  14  18
ENDBRANCH   2  10
BRANCH   1  21
ATOM     21  C   UNL d   1      27.718 -16.422   0.105  0.00  0.00     0.270 C 
ATOM     22  O   UNL d   1      28.421 -17.025  -0.720  0.00  0.00    -0.265 OA
BRANCH  21  23
ATOM     23  O   UNL d   1      26.800 -17.054   0.881  0.00  0.00    -0.321 OA
BRANCH  23  24
ATOM     24  C   UNL d   1      25.931 -17.960   0.177  0.00  0.00     0.174 C 
ATOM     25  C   UNL d   1      24.857 -17.166  -0.545  0.00  0.00     0.034 C 
ENDBRANCH  23  24
ENDBRANCH  21  23
ENDBRANCH   1  21
BRANCH   7  26
ATOM     26  C   UNL d   1      28.274 -12.928   1.957  0.00  0.00     0.438 C 
ATOM     27  F   UNL d   1      29.264 -12.178   1.430  0.00  0.00    -0.166 F 
ATOM     28  F   UNL d   1      27.120 -12.437   1.446  0.00  0.00    -0.166 F 
ATOM     29  F   UNL d   1      28.258 -12.667   3.289  0.00  0.00    -0.166 F 
ENDBRANCH   7  26
BRANCH   7  30
ATOM     30  O   UNL d   1      27.780 -15.200   2.755  0.00  0.00    -0.363 OA
ATOM     31  H   UNL d   1      27.847 -16.151   2.565  0.00  0.00     0.213 HD
ENDBRANCH   7  30
TORSDOF 9
ENDMDL
MODEL 8
REMARK VINA RESULT:    -4.216      4.296      7.008
REMARK INTER + INTRA:          -9.261
REMARK INTER:                  -6.900
REMARK INTRA:                  -2.360
REMARK CONF_INDEPENDENT:        2.685
REMARK UNBOUND:                -2.360
REMARK  9 active torsions:
REMARK  status: ('A' for Active; 'I' for Inactive)
REMARK    1  A    between atoms: C_2  and  O_3 
REMARK    2  A    between atoms: O_3  and  C_4 
REMARK    3  A    between atoms: C_4  and  C_6 
REMARK    4  A    between atoms: C_7  and  C_8 
REMARK    5  A    between atoms: C_11  and  O_12 
REMARK    6  A    between atoms: C_13  and  O_14 
REMARK    7  A    between atoms: O_14  and  C_15 
REMARK    8  A    between atoms: C_22  and  C_24 
REMARK    9  A    between atoms: C_22  and  O_23 
ROOT
ATOM      1  C   UNL d   1      28.426 -14.600   1.971  0.00  0.00     0.177 C 
ATOM      2  C   UNL d   1      27.197 -13.819   1.460  0.00  0.00     0.136 C 
ATOM      3  N   UNL d   1      27.421 -12.383   1.610  0.00  0.00    -0.358 N 
ATOM      4  C   UNL d   1      27.980 -11.862   2.741  0.00  0.00     0.170 C 
ATOM      5  S   UNL d   1      27.493 -10.439   3.425  0.00  0.00    -0.041 SA
ATOM      6  N   UNL d   1      29.038 -12.590   3.203  0.00  0.00    -0.328 N 
ATOM      7  C   UNL d   1      28.832 -14.016   3.337  0.00  0.00     0.249 C 
ATOM      8  H   UNL d   1      26.954 -11.716   1.008  0.00  0.00     0.162 HD
ATOM      9  H   UNL d   1      29.688 -12.142   3.837  0.00  0.00     0.165 HD
ENDROOT
BRANCH   2  10
ATOM     10  C   UNL d   1      26.694 -14.276   0.104  0.00  0.00    -0.032 A 
ATOM     11  C   UNL d   1      26.655 -13.347  -0.954  0.00  0.00     0.012 A 
ATOM     12  C   UNL d   1      26.123 -13.697  -2.192  0.00  0.00     0.040 A 
ATOM     13  C   UNL d   1      25.656 -14.992  -2.402  0.00  0.00     0.099 A 
ATOM     14  C   UNL d   1      25.702 -15.942  -1.374  0.00  0.00     0.102 A 
ATOM     15  C   UNL d   1      26.225 -15.573  -0.130  0.00  0.00     0.049 A 
BRANCH  13  16
ATOM     16  O   UNL d   1      25.156 -15.304  -3.635  0.00  0.00    -0.358 OA
ATOM     17  H   UNL d   1      24.866 -16.227  -3.661  0.00  0.00     0.217 HD
ENDBRANCH  13  16
BRANCH  14  18
ATOM     18  O   UNL d   1      25.269 -17.244  -1.413  0.00  0.00    -0.349 OA
BRANCH  18  19
ATOM     19  C   UNL d   1      24.556 -17.691  -0.265  0.00  0.00     0.171 C 
ATOM     20  C   UNL d   1      23.070 -17.640  -0.530  0.00  0.00     0.034 C 
ENDBRANCH  18  19
ENDBRANCH  14  18
ENDBRANCH   2  10
BRANCH   1  21
ATOM     21  C   UNL d   1      29.510 -14.530   0.897  0.00  0.00     0.270 C 
ATOM     22  O   UNL d   1      29.540 -13.643   0.032  0.00  0.00    -0.265 OA
BRANCH  21  23
ATOM     23  O   UNL d   1      30.439 -15.520   0.961  0.00  0.00    -0.321 OA
BRANCH  23  24
ATOM     24  C   UNL d   1      30.532 -16.341  -0.218  0.00  0.00     0.174 C 
ATOM     25  C   UNL d   1      29.186 -16.991  -0.485  0.00  0.00     0.034 C 
ENDBRANCH  23  24
ENDBRANCH  21  23
ENDBRANCH   1  21
BRANCH   7  26
ATOM     26  C   UNL d   1      27.757 -14.334   4.480  0.00  0.00     0.438 C 
ATOM     27  F   UNL d   1      26.481 -14.075   4.125  0.00  0.00    -0.166 F 
ATOM     28  F   UNL d   1      27.787 -15.638   4.845  0.00  0.00    -0.166 F 
ATOM     29  F   UNL d   1      28.003 -13.605   5.598  0.00  0.00    -0.166 F 
ENDBRANCH   7  26
BRANCH   7  30
ATOM     30  O   UNL d   1      30.096 -14.552   3.756  0.00  0.00    -0.363 OA
ATOM     31  H   UNL d   1      30.334 -15.261   3.135  0.00  0.00     0.213 HD
ENDBRANCH   7  30
TORSDOF 9
ENDMDL
MODEL 9
REMARK VINA RESULT:    -4.175      3.215      4.501
REMARK INTER + INTRA:          -9.263
REMARK INTER:                  -6.859
REMARK INTRA:                  -2.404
REMARK CONF_INDEPENDENT:        2.685
REMARK UNBOUND:                -2.404
REMARK  9 active torsions:
REMARK  status: ('A' for Active; 'I' for Inactive)
REMARK    1  A    between atoms: C_2  and  O_3 
REMARK    2  A    between atoms: O_3  and  C_4 
REMARK    3  A    between atoms: C_4  and  C_6 
REMARK    4  A    between atoms: C_7  and  C_8 
REMARK    5  A    between atoms: C_11  and  O_12 
REMARK    6  A    between atoms: C_13  and  O_14 
REMARK    7  A    between atoms: O_14  and  C_15 
REMARK    8  A    between atoms: C_22  and  C_24 
REMARK    9  A    between atoms: C_22  and  O_23 
ROOT
ATOM      1  C   UNL d   1      26.927 -13.272  -5.281  0.00  0.00     0.177 C 
ATOM      2  C   UNL d   1      28.005 -13.318  -4.177  0.00  0.00     0.136 C 
ATOM      3  N   UNL d   1      27.482 -12.733  -2.946  0.00  0.00    -0.358 N 
ATOM      4  C   UNL d   1      26.746 -11.584  -2.956  0.00  0.00     0.170 C 
ATOM      5  S   UNL d   1      26.880 -10.406  -1.806  0.00  0.00    -0.041 SA
ATOM      6  N   UNL d   1      25.828 -11.542  -3.965  0.00  0.00    -0.328 N 
ATOM      7  C   UNL d   1      26.310 -11.861  -5.292  0.00  0.00     0.249 C 
ATOM      8  H   UNL d   1      27.847 -13.009  -2.041  0.00  0.00     0.162 HD
ATOM      9  H   UNL d   1      25.055 -10.894  -3.884  0.00  0.00     0.165 HD
ENDROOT
BRANCH   2  10
ATOM     10  C   UNL d   1      28.690 -14.664  -4.038  0.00  0.00    -0.032 A 
ATOM     11  C   UNL d   1      29.210 -15.283  -5.192  0.00  0.00     0.012 A 
ATOM     12  C   UNL d   1      29.772 -16.555  -5.127  0.00  0.00     0.040 A 
ATOM     13  C   UNL d   1      29.857 -17.211  -3.902  0.00  0.00     0.099 A 
ATOM     14  C   UNL d   1      29.367 -16.610  -2.736  0.00  0.00     0.102 A 
ATOM     15  C   UNL d   1      28.791 -15.338  -2.817  0.00  0.00     0.049 A 
BRANCH  13  16
ATOM     16  O   UNL d   1      30.430 -18.452  -3.875  0.00  0.00    -0.358 OA
ATOM     17  H   UNL d   1      30.424 -18.809  -2.975  0.00  0.00     0.217 HD
ENDBRANCH  13  16
BRANCH  14  18
ATOM     18  O   UNL d   1      29.358 -17.127  -1.464  0.00  0.00    -0.349 OA
BRANCH  18  19
ATOM     19  C   UNL d   1      28.397 -16.565  -0.577  0.00  0.00     0.171 C 
ATOM     20  C   UNL d   1      27.171 -17.445  -0.523  0.00  0.00     0.034 C 
ENDBRANCH  18  19
ENDBRANCH  14  18
ENDBRANCH   2  10
BRANCH   1  21
ATOM     21  C   UNL d   1      25.935 -14.403  -5.019  0.00  0.00     0.270 C 
ATOM     22  O   UNL d   1      26.145 -15.573  -5.372  0.00  0.00    -0.265 OA
BRANCH  21  23
ATOM     23  O   UNL d   1      24.803 -14.029  -4.370  0.00  0.00    -0.321 OA
BRANCH  23  24
ATOM     24  C   UNL d   1      24.825 -14.233  -2.945  0.00  0.00     0.174 C 
ATOM     25  C   UNL d   1      25.156 -15.685  -2.651  0.00  0.00     0.034 C 
ENDBRANCH  23  24
ENDBRANCH  21  23
ENDBRANCH   1  21
BRANCH   7  26
ATOM     26  C   UNL d   1      27.340 -10.749  -5.809  0.00  0.00     0.438 C 
ATOM     27  F   UNL d   1      28.176 -10.286  -4.857  0.00  0.00    -0.166 F 
ATOM     28  F   UNL d   1      28.129 -11.223  -6.802  0.00  0.00    -0.166 F 
ATOM     29  F   UNL d   1      26.683  -9.670  -6.306  0.00  0.00    -0.166 F 
ENDBRANCH   7  26
BRANCH   7  30
ATOM     30  O   UNL d   1      25.155 -11.825  -6.143  0.00  0.00    -0.363 OA
ATOM     31  H   UNL d   1      24.468 -12.374  -5.728  0.00  0.00     0.213 HD
ENDBRANCH   7  30
TORSDOF 9
ENDMDL
