MODEL 1
REMARK VINA RESULT:    -7.471      0.000      0.000
REMARK INTER + INTRA:         -14.015
REMARK INTER:                 -11.647
REMARK INTRA:                  -2.368
REMARK CONF_INDEPENDENT:        4.176
REMARK UNBOUND:                -2.368
REMARK  14 active torsions:
REMARK  status: ('A' for Active; 'I' for Inactive)
REMARK    1  A    between atoms: C_2  and  O_3 
REMARK    2  A    between atoms: O_3  and  C_4 
REMARK    3  A    between atoms: C_6  and  C_7 
REMARK       I    between atoms: C_7  and  N_9 
REMARK    4  A    between atoms: N_9  and  C_10 
REMARK    5  A    between atoms: C_12  and  C_13 
REMARK    6  A    between atoms: C_13  and  O_15 
REMARK    7  A    between atoms: O_15  and  C_16 
REMARK    8  A    between atoms: C_21  and  C_22 
REMARK    9  A    between atoms: C_22  and  O_24 
REMARK   10  A    between atoms: O_24  and  C_25 
REMARK   11  A    between atoms: C_29  and  O_30 
REMARK   12  A    between atoms: O_30  and  C_31 
REMARK   13  A    between atoms: C_33  and  O_34 
REMARK   14  A    between atoms: O_34  and  C_35 
ROOT
ATOM      1  C   UNL d   1      25.545 -13.975  -3.355  0.00  0.00     0.256 C 
ATOM      2  O   UNL d   1      25.127 -14.794  -4.171  0.00  0.00    -0.267 OA
ATOM      3  N   UNL d   1      25.674 -14.228  -1.977  0.00  0.00    -0.316 N 
ATOM      4  H   UNL d   1      25.689 -13.434  -1.345  0.00  0.00     0.169 HD
ENDROOT
BRANCH   3   5
ATOM      5  C   UNL d   1      25.376 -15.459  -1.355  0.00  0.00     0.094 A 
ATOM      6  S   UNL d   1      23.910 -16.251  -1.711  0.00  0.00    -0.065 SA
ATOM      7  C   UNL d   1      24.301 -17.667  -0.801  0.00  0.00     0.089 A 
ATOM      8  C   UNL d   1      25.545 -17.520  -0.191  0.00  0.00    -0.020 A 
ATOM      9  C   UNL d   1      26.198 -18.537   0.698  0.00  0.00     0.051 C 
ATOM     10  C   UNL d   1      26.186 -16.233  -0.520  0.00  0.00     0.080 A 
BRANCH   7  11
ATOM     11  C   UNL d   1      23.314 -18.773  -0.790  0.00  0.00     0.301 C 
ATOM     12  O   UNL d   1      23.280 -19.700  -1.570  0.00  0.00    -0.259 OA
BRANCH  11  13
ATOM     13  O   UNL d   1      22.416 -18.633   0.249  0.00  0.00    -0.312 OA
BRANCH  13  14
ATOM     14  C   UNL d   1      21.212 -19.443   0.264  0.00  0.00     0.124 C 
ATOM     15  C   UNL d   1      20.500 -19.325   1.605  0.00  0.00     0.040 C 
ATOM     16  C   UNL d   1      20.246 -18.953  -0.830  0.00  0.00     0.040 C 
ENDBRANCH  13  14
ENDBRANCH  11  13
ENDBRANCH   7  11
BRANCH  10  17
ATOM     17  C   UNL d   1      27.499 -15.753  -0.031  0.00  0.00     0.297 C 
ATOM     18  O   UNL d   1      28.539 -15.977  -0.630  0.00  0.00    -0.259 OA
BRANCH  17  19
ATOM     19  O   UNL d   1      27.432 -15.048   1.149  0.00  0.00    -0.313 OA
BRANCH  19  20
ATOM     20  C   UNL d   1      27.614 -13.613   1.100  0.00  0.00     0.124 C 
ATOM     21  C   UNL d   1      28.058 -13.174  -0.291  0.00  0.00     0.040 C 
ATOM     22  C   UNL d   1      26.281 -12.922   1.422  0.00  0.00     0.040 C 
ENDBRANCH  19  20
ENDBRANCH  17  19
ENDBRANCH  10  17
ENDBRANCH   3   5
BRANCH   1  23
ATOM     23  C   UNL d   1      25.808 -12.556  -3.870  0.00  0.00     0.037 A 
ATOM     24  C   UNL d   1      25.902 -12.328  -5.275  0.00  0.00     0.057 A 
ATOM     25  C   UNL d   1      25.932 -11.026  -5.856  0.00  0.00     0.105 A 
ATOM     26  C   UNL d   1      25.886  -9.922  -4.965  0.00  0.00     0.135 A 
ATOM     27  C   UNL d   1      25.886 -10.141  -3.555  0.00  0.00     0.105 A 
ATOM     28  C   UNL d   1      25.869 -11.445  -3.024  0.00  0.00     0.057 A 
BRANCH  25  29
ATOM     29  O   UNL d   1      25.737 -11.028  -7.240  0.00  0.00    -0.349 OA
BRANCH  29  30
ATOM     30  C   UNL d   1      26.719 -10.456  -8.111  0.00  0.00     0.171 C 
ATOM     31  C   UNL d   1      26.721 -10.883  -9.565  0.00  0.00     0.034 C 
ENDBRANCH  29  30
ENDBRANCH  25  29
BRANCH  26  32
ATOM     32  O   UNL d   1      25.735  -8.587  -5.247  0.00  0.00    -0.346 OA
BRANCH  32  33
ATOM     33  C   UNL d   1      24.621  -8.171  -5.924  0.00  0.00     0.171 C 
ATOM     34  C   UNL d   1      23.565  -7.277  -5.356  0.00  0.00     0.034 C 
ENDBRANCH  32  33
ENDBRANCH  26  32
BRANCH  27  35
ATOM     35  O   UNL d   1      25.835  -9.140  -2.583  0.00  0.00    -0.349 OA
BRANCH  35  36
ATOM     36  C   UNL d   1      27.021  -8.354  -2.397  0.00  0.00     0.171 C 
ATOM     37  C   UNL d   1      26.751  -6.981  -1.856  0.00  0.00     0.034 C 
ENDBRANCH  35  36
ENDBRANCH  27  35
ENDBRANCH   1  23
TORSDOF 14
ENDMDL
MODEL 2
REMARK VINA RESULT:    -6.827      2.283      3.380
REMARK INTER + INTRA:         -13.872
REMARK INTER:                 -11.003
REMARK INTRA:                  -2.868
REMARK CONF_INDEPENDENT:        4.176
REMARK UNBOUND:                -2.868
REMARK  14 active torsions:
REMARK  status: ('A' for Active; 'I' for Inactive)
REMARK    1  A    between atoms: C_2  and  O_3 
REMARK    2  A    between atoms: O_3  and  C_4 
REMARK    3  A    between atoms: C_6  and  C_7 
REMARK       I    between atoms: C_7  and  N_9 
REMARK    4  A    between atoms: N_9  and  C_10 
REMARK    5  A    between atoms: C_12  and  C_13 
REMARK    6  A    between atoms: C_13  and  O_15 
REMARK    7  A    between atoms: O_15  and  C_16 
REMARK    8  A    between atoms: C_21  and  C_22 
REMARK    9  A    between atoms: C_22  and  O_24 
REMARK   10  A    between atoms: O_24  and  C_25 
REMARK   11  A    between atoms: C_29  and  O_30 
REMARK   12  A    between atoms: O_30  and  C_31 
REMARK   13  A    between atoms: C_33  and  O_34 
REMARK   14  A    between atoms: O_34  and  C_35 
ROOT
ATOM      1  C   UNL d   1      25.909 -14.327  -4.038  0.00  0.00     0.256 C 
ATOM      2  O   UNL d   1      24.720 -14.384  -4.348  0.00  0.00    -0.267 OA
ATOM      3  N   UNL d   1      26.458 -14.946  -2.900  0.00  0.00    -0.316 N 
ATOM      4  H   UNL d   1      27.332 -14.581  -2.534  0.00  0.00     0.169 HD
ENDROOT
BRANCH   3   5
ATOM      5  C   UNL d   1      25.731 -15.737  -1.986  0.00  0.00     0.094 A 
ATOM      6  S   UNL d   1      24.027 -15.708  -2.013  0.00  0.00    -0.065 SA
ATOM      7  C   UNL d   1      23.856 -16.966  -0.840  0.00  0.00     0.089 A 
ATOM      8  C   UNL d   1      25.108 -17.388  -0.398  0.00  0.00    -0.020 A 
ATOM      9  C   UNL d   1      25.349 -18.446   0.637  0.00  0.00     0.051 C 
ATOM     10  C   UNL d   1      26.212 -16.679  -1.073  0.00  0.00     0.080 A 
BRANCH   7  11
ATOM     11  C   UNL d   1      22.482 -17.392  -0.484  0.00  0.00     0.301 C 
ATOM     12  O   UNL d   1      21.461 -16.799  -0.761  0.00  0.00    -0.259 OA
BRANCH  11  13
ATOM     13  O   UNL d   1      22.491 -18.585   0.210  0.00  0.00    -0.312 OA
BRANCH  13  14
ATOM     14  C   UNL d   1      21.401 -19.525   0.026  0.00  0.00     0.124 C 
ATOM     15  C   UNL d   1      20.336 -19.330   1.097  0.00  0.00     0.040 C 
ATOM     16  C   UNL d   1      20.742 -19.290  -1.345  0.00  0.00     0.040 C 
ENDBRANCH  13  14
ENDBRANCH  11  13
ENDBRANCH   7  11
BRANCH  10  17
ATOM     17  C   UNL d   1      27.661 -16.874  -0.831  0.00  0.00     0.297 C 
ATOM     18  O   UNL d   1      28.118 -17.932  -0.427  0.00  0.00    -0.259 OA
BRANCH  17  19
ATOM     19  O   UNL d   1      28.426 -15.762  -1.098  0.00  0.00    -0.313 OA
BRANCH  19  20
ATOM     20  C   UNL d   1      29.572 -15.911  -1.967  0.00  0.00     0.124 C 
ATOM     21  C   UNL d   1      29.185 -16.642  -3.247  0.00  0.00     0.040 C 
ATOM     22  C   UNL d   1      30.104 -14.521  -2.347  0.00  0.00     0.040 C 
ENDBRANCH  19  20
ENDBRANCH  17  19
ENDBRANCH  10  17
ENDBRANCH   3   5
BRANCH   1  23
ATOM     23  C   UNL d   1      26.802 -13.413  -4.882  0.00  0.00     0.037 A 
ATOM     24  C   UNL d   1      27.815 -13.989  -5.704  0.00  0.00     0.057 A 
ATOM     25  C   UNL d   1      28.548 -13.248  -6.677  0.00  0.00     0.105 A 
ATOM     26  C   UNL d   1      28.248 -11.866  -6.796  0.00  0.00     0.135 A 
ATOM     27  C   UNL d   1      27.303 -11.263  -5.913  0.00  0.00     0.105 A 
ATOM     28  C   UNL d   1      26.610 -12.030  -4.958  0.00  0.00     0.057 A 
BRANCH  25  29
ATOM     29  O   UNL d   1      29.276 -14.052  -7.559  0.00  0.00    -0.349 OA
BRANCH  29  30
ATOM     30  C   UNL d   1      30.452 -14.736  -7.113  0.00  0.00     0.171 C 
ATOM     31  C   UNL d   1      30.307 -16.162  -6.620  0.00  0.00     0.034 C 
ENDBRANCH  29  30
ENDBRANCH  25  29
BRANCH  26  32
ATOM     32  O   UNL d   1      28.670 -10.965  -7.742  0.00  0.00    -0.346 OA
BRANCH  32  33
ATOM     33  C   UNL d   1      28.373 -11.194  -9.058  0.00  0.00     0.171 C 
ATOM     34  C   UNL d   1      26.999 -11.119  -9.645  0.00  0.00     0.034 C 
ENDBRANCH  32  33
ENDBRANCH  26  32
BRANCH  27  35
ATOM     35  O   UNL d   1      26.919  -9.920  -5.937  0.00  0.00    -0.349 OA
BRANCH  35  36
ATOM     36  C   UNL d   1      25.595  -9.631  -6.408  0.00  0.00     0.171 C 
ATOM     37  C   UNL d   1      24.697  -9.051  -5.356  0.00  0.00     0.034 C 
ENDBRANCH  35  36
ENDBRANCH  27  35
ENDBRANCH   1  23
TORSDOF 14
ENDMDL
MODEL 3
REMARK VINA RESULT:    -6.687      2.408      9.001
REMARK INTER + INTRA:         -13.874
REMARK INTER:                 -10.864
REMARK INTRA:                  -3.011
REMARK CONF_INDEPENDENT:        4.176
REMARK UNBOUND:                -3.011
REMARK  14 active torsions:
REMARK  status: ('A' for Active; 'I' for Inactive)
REMARK    1  A    between atoms: C_2  and  O_3 
REMARK    2  A    between atoms: O_3  and  C_4 
REMARK    3  A    between atoms: C_6  and  C_7 
REMARK       I    between atoms: C_7  and  N_9 
REMARK    4  A    between atoms: N_9  and  C_10 
REMARK    5  A    between atoms: C_12  and  C_13 
REMARK    6  A    between atoms: C_13  and  O_15 
REMARK    7  A    between atoms: O_15  and  C_16 
REMARK    8  A    between atoms: C_21  and  C_22 
REMARK    9  A    between atoms: C_22  and  O_24 
REMARK   10  A    between atoms: O_24  and  C_25 
REMARK   11  A    between atoms: C_29  and  O_30 
REMARK   12  A    between atoms: O_30  and  C_31 
REMARK   13  A    between atoms: C_33  and  O_34 
REMARK   14  A    between atoms: O_34  and  C_35 
ROOT
ATOM      1  C   UNL d   1      25.292 -14.223  -3.423  0.00  0.00     0.256 C 
ATOM      2  O   UNL d   1      24.234 -14.069  -4.031  0.00  0.00    -0.267 OA
ATOM      3  N   UNL d   1      26.535 -13.739  -3.868  0.00  0.00    -0.316 N 
ATOM      4  H   UNL d   1      27.375 -14.185  -3.514  0.00  0.00     0.169 HD
ENDROOT
BRANCH   3   5
ATOM      5  C   UNL d   1      26.730 -12.986  -5.045  0.00  0.00     0.094 A 
ATOM      6  S   UNL d   1      26.014 -11.446  -5.191  0.00  0.00    -0.065 SA
ATOM      7  C   UNL d   1      26.790 -11.082  -6.691  0.00  0.00     0.089 A 
ATOM      8  C   UNL d   1      27.575 -12.157  -7.103  0.00  0.00    -0.020 A 
ATOM      9  C   UNL d   1      28.374 -12.210  -8.371  0.00  0.00     0.051 C 
ATOM     10  C   UNL d   1      27.553 -13.273  -6.138  0.00  0.00     0.080 A 
BRANCH   7  11
ATOM     11  C   UNL d   1      26.524  -9.757  -7.300  0.00  0.00     0.301 C 
ATOM     12  O   UNL d   1      26.524  -9.508  -8.486  0.00  0.00    -0.259 OA
BRANCH  11  13
ATOM     13  O   UNL d   1      26.252  -8.808  -6.334  0.00  0.00    -0.312 OA
BRANCH  13  14
ATOM     14  C   UNL d   1      24.876  -8.561  -5.945  0.00  0.00     0.124 C 
ATOM     15  C   UNL d   1      24.780  -8.284  -4.451  0.00  0.00     0.040 C 
ATOM     16  C   UNL d   1      24.342  -7.325  -6.691  0.00  0.00     0.040 C 
ENDBRANCH  13  14
ENDBRANCH  11  13
ENDBRANCH   7  11
BRANCH  10  17
ATOM     17  C   UNL d   1      28.263 -14.566  -6.272  0.00  0.00     0.297 C 
ATOM     18  O   UNL d   1      28.968 -14.826  -7.234  0.00  0.00    -0.259 OA
BRANCH  17  19
ATOM     19  O   UNL d   1      28.048 -15.431  -5.223  0.00  0.00    -0.313 OA
BRANCH  19  20
ATOM     20  C   UNL d   1      29.161 -15.743  -4.353  0.00  0.00     0.124 C 
ATOM     21  C   UNL d   1      28.664 -16.215  -2.992  0.00  0.00     0.040 C 
ATOM     22  C   UNL d   1      29.994 -16.871  -4.980  0.00  0.00     0.040 C 
ENDBRANCH  19  20
ENDBRANCH  17  19
ENDBRANCH  10  17
ENDBRANCH   3   5
BRANCH   1  23
ATOM     23  C   UNL d   1      25.252 -15.115  -2.178  0.00  0.00     0.037 A 
ATOM     24  C   UNL d   1      24.407 -16.264  -2.167  0.00  0.00     0.057 A 
ATOM     25  C   UNL d   1      24.459 -17.263  -1.151  0.00  0.00     0.105 A 
ATOM     26  C   UNL d   1      25.392 -17.067  -0.101  0.00  0.00     0.135 A 
ATOM     27  C   UNL d   1      26.176 -15.875  -0.055  0.00  0.00     0.105 A 
ATOM     28  C   UNL d   1      26.084 -14.908  -1.074  0.00  0.00     0.057 A 
BRANCH  25  29
ATOM     29  O   UNL d   1      23.760 -18.429  -1.479  0.00  0.00    -0.349 OA
BRANCH  29  30
ATOM     30  C   UNL d   1      22.887 -19.043  -0.524  0.00  0.00     0.171 C 
ATOM     31  C   UNL d   1      21.393 -18.949  -0.758  0.00  0.00     0.034 C 
ENDBRANCH  29  30
ENDBRANCH  25  29
BRANCH  26  32
ATOM     32  O   UNL d   1      25.768 -17.930   0.898  0.00  0.00    -0.346 OA
BRANCH  32  33
ATOM     33  C   UNL d   1      26.972 -18.575   0.805  0.00  0.00     0.171 C 
ATOM     34  C   UNL d   1      28.065 -18.200  -0.145  0.00  0.00     0.034 C 
ENDBRANCH  32  33
ENDBRANCH  26  32
BRANCH  27  35
ATOM     35  O   UNL d   1      27.130 -15.573   0.918  0.00  0.00    -0.349 OA
BRANCH  35  36
ATOM     36  C   UNL d   1      28.130 -14.605   0.569  0.00  0.00     0.171 C 
ATOM     37  C   UNL d   1      29.462 -15.211   0.239  0.00  0.00     0.034 C 
ENDBRANCH  35  36
ENDBRANCH  27  35
ENDBRANCH   1  23
TORSDOF 14
ENDMDL
MODEL 4
REMARK VINA RESULT:    -6.676      3.228      4.853
REMARK INTER + INTRA:         -13.711
REMARK INTER:                 -10.853
REMARK INTRA:                  -2.859
REMARK CONF_INDEPENDENT:        4.176
REMARK UNBOUND:                -2.859
REMARK  14 active torsions:
REMARK  status: ('A' for Active; 'I' for Inactive)
REMARK    1  A    between atoms: C_2  and  O_3 
REMARK    2  A    between atoms: O_3  and  C_4 
REMARK    3  A    between atoms: C_6  and  C_7 
REMARK       I    between atoms: C_7  and  N_9 
REMARK    4  A    between atoms: N_9  and  C_10 
REMARK    5  A    between atoms: C_12  and  C_13 
REMARK    6  A    between atoms: C_13  and  O_15 
REMARK    7  A    between atoms: O_15  and  C_16 
REMARK    8  A    between atoms: C_21  and  C_22 
REMARK    9  A    between atoms: C_22  and  O_24 
REMARK   10  A    between atoms: O_24  and  C_25 
REMARK   11  A    between atoms: C_29  and  O_30 
REMARK   12  A    between atoms: O_30  and  C_31 
REMARK   13  A    between atoms: C_33  and  O_34 
REMARK   14  A    between atoms: O_34  and  C_35 
ROOT
ATOM      1  C   UNL d   1      26.657 -14.970  -4.714  0.00  0.00     0.256 C 
ATOM      2  O   UNL d   1      25.468 -15.008  -5.023  0.00  0.00    -0.267 OA
ATOM      3  N   UNL d   1      27.158 -15.351  -3.456  0.00  0.00    -0.316 N 
ATOM      4  H   UNL d   1      28.057 -14.979  -3.168  0.00  0.00     0.169 HD
ENDROOT
BRANCH   3   5
ATOM      5  C   UNL d   1      26.373 -15.857  -2.398  0.00  0.00     0.094 A 
ATOM      6  S   UNL d   1      24.697 -15.550  -2.369  0.00  0.00    -0.065 SA
ATOM      7  C   UNL d   1      24.403 -16.560  -0.999  0.00  0.00     0.089 A 
ATOM      8  C   UNL d   1      25.597 -17.109  -0.537  0.00  0.00    -0.020 A 
ATOM      9  C   UNL d   1      25.731 -18.015   0.651  0.00  0.00     0.051 C 
ATOM     10  C   UNL d   1      26.756 -16.709  -1.358  0.00  0.00     0.080 A 
BRANCH   7  11
ATOM     11  C   UNL d   1      23.003 -16.691  -0.528  0.00  0.00     0.301 C 
ATOM     12  O   UNL d   1      22.085 -15.956  -0.822  0.00  0.00    -0.259 OA
BRANCH  11  13
ATOM     13  O   UNL d   1      22.852 -17.786   0.298  0.00  0.00    -0.312 OA
BRANCH  13  14
ATOM     14  C   UNL d   1      22.324 -19.023  -0.247  0.00  0.00     0.124 C 
ATOM     15  C   UNL d   1      20.808 -18.952  -0.374  0.00  0.00     0.040 C 
ATOM     16  C   UNL d   1      22.906 -19.257  -1.653  0.00  0.00     0.040 C 
ENDBRANCH  13  14
ENDBRANCH  11  13
ENDBRANCH   7  11
BRANCH  10  17
ATOM     17  C   UNL d   1      28.167 -17.101  -1.139  0.00  0.00     0.297 C 
ATOM     18  O   UNL d   1      28.490 -17.936  -0.309  0.00  0.00    -0.259 OA
BRANCH  17  19
ATOM     19  O   UNL d   1      29.062 -16.437  -1.946  0.00  0.00    -0.313 OA
BRANCH  19  20
ATOM     20  C   UNL d   1      30.339 -17.063  -2.212  0.00  0.00     0.124 C 
ATOM     21  C   UNL d   1      31.065 -16.344  -3.343  0.00  0.00     0.040 C 
ATOM     22  C   UNL d   1      31.213 -16.986  -0.952  0.00  0.00     0.040 C 
ENDBRANCH  19  20
ENDBRANCH  17  19
ENDBRANCH  10  17
ENDBRANCH   3   5
BRANCH   1  23
ATOM     23  C   UNL d   1      27.618 -14.342  -5.728  0.00  0.00     0.037 A 
ATOM     24  C   UNL d   1      27.424 -12.986  -6.128  0.00  0.00     0.057 A 
ATOM     25  C   UNL d   1      28.377 -12.252  -6.894  0.00  0.00     0.105 A 
ATOM     26  C   UNL d   1      29.557 -12.938  -7.282  0.00  0.00     0.135 A 
ATOM     27  C   UNL d   1      29.716 -14.321  -6.967  0.00  0.00     0.105 A 
ATOM     28  C   UNL d   1      28.743 -15.010  -6.218  0.00  0.00     0.057 A 
BRANCH  25  29
ATOM     29  O   UNL d   1      28.127 -10.878  -6.928  0.00  0.00    -0.349 OA
BRANCH  29  30
ATOM     30  C   UNL d   1      26.937 -10.373  -7.544  0.00  0.00     0.171 C 
ATOM     31  C   UNL d   1      26.652 -10.768  -8.979  0.00  0.00     0.034 C 
ENDBRANCH  29  30
ENDBRANCH  25  29
BRANCH  26  32
ATOM     32  O   UNL d   1      30.696 -12.442  -7.868  0.00  0.00    -0.346 OA
BRANCH  32  33
ATOM     33  C   UNL d   1      30.727 -12.274  -9.226  0.00  0.00     0.171 C 
ATOM     34  C   UNL d   1      29.517 -12.200 -10.102  0.00  0.00     0.034 C 
ENDBRANCH  32  33
ENDBRANCH  26  32
BRANCH  27  35
ATOM     35  O   UNL d   1      30.831 -15.099  -7.286  0.00  0.00    -0.349 OA
BRANCH  35  36
ATOM     36  C   UNL d   1      30.945 -16.371  -6.631  0.00  0.00     0.171 C 
ATOM     37  C   UNL d   1      31.176 -17.513  -7.574  0.00  0.00     0.034 C 
ENDBRANCH  35  36
ENDBRANCH  27  35
ENDBRANCH   1  23
TORSDOF 14
ENDMDL
MODEL 5
REMARK VINA RESULT:    -6.597      3.185      4.753
REMARK INTER + INTRA:         -13.670
REMARK INTER:                 -10.774
REMARK INTRA:                  -2.896
REMARK CONF_INDEPENDENT:        4.176
REMARK UNBOUND:                -2.896
REMARK  14 active torsions:
REMARK  status: ('A' for Active; 'I' for Inactive)
REMARK    1  A    between atoms: C_2  and  O_3 
REMARK    2  A    between atoms: O_3  and  C_4 
REMARK    3  A    between atoms: C_6  and  C_7 
REMARK       I    between atoms: C_7  and  N_9 
REMARK    4  A    between atoms: N_9  and  C_10 
REMARK    5  A    between atoms: C_12  and  C_13 
REMARK    6  A    between atoms: C_13  and  O_15 
REMARK    7  A    between atoms: O_15  and  C_16 
REMARK    8  A    between atoms: C_21  and  C_22 
REMARK    9  A    between atoms: C_22  and  O_24 
REMARK   10  A    between atoms: O_24  and  C_25 
REMARK   11  A    between atoms: C_29  and  O_30 
REMARK   12  A    between atoms: O_30  and  C_31 
REMARK   13  A    between atoms: C_33  and  O_34 
REMARK   14  A    between atoms: O_34  and  C_35 
ROOT
ATOM      1  C   UNL d   1      26.598 -14.865  -4.429  0.00  0.00     0.256 C 
ATOM      2  O   UNL d   1      25.434 -14.924  -4.819  0.00  0.00    -0.267 OA
ATOM      3  N   UNL d   1      27.024 -15.277  -3.153  0.00  0.00    -0.316 N 
ATOM      4  H   UNL d   1      27.891 -14.891  -2.792  0.00  0.00     0.169 HD
ENDROOT
BRANCH   3   5
ATOM      5  C   UNL d   1      26.185 -15.842  -2.169  0.00  0.00     0.094 A 
ATOM      6  S   UNL d   1      24.510 -15.536  -2.212  0.00  0.00    -0.065 SA
ATOM      7  C   UNL d   1      24.145 -16.624  -0.920  0.00  0.00     0.089 A 
ATOM      8  C   UNL d   1      25.314 -17.199  -0.428  0.00  0.00    -0.020 A 
ATOM      9  C   UNL d   1      25.387 -18.172   0.712  0.00  0.00     0.051 C 
ATOM     10  C   UNL d   1      26.514 -16.753  -1.162  0.00  0.00     0.080 A 
BRANCH   7  11
ATOM     11  C   UNL d   1      22.722 -16.780  -0.533  0.00  0.00     0.301 C 
ATOM     12  O   UNL d   1      21.805 -16.082  -0.907  0.00  0.00    -0.259 OA
BRANCH  11  13
ATOM     13  O   UNL d   1      22.550 -17.853   0.318  0.00  0.00    -0.312 OA
BRANCH  13  14
ATOM     14  C   UNL d   1      22.224 -19.155  -0.234  0.00  0.00     0.124 C 
ATOM     15  C   UNL d   1      20.721 -19.297  -0.431  0.00  0.00     0.040 C 
ATOM     16  C   UNL d   1      22.899 -19.316  -1.609  0.00  0.00     0.040 C 
ENDBRANCH  13  14
ENDBRANCH  11  13
ENDBRANCH   7  11
BRANCH  10  17
ATOM     17  C   UNL d   1      27.912 -17.158  -0.890  0.00  0.00     0.297 C 
ATOM     18  O   UNL d   1      28.190 -18.197  -0.311  0.00  0.00    -0.259 OA
BRANCH  17  19
ATOM     19  O   UNL d   1      28.851 -16.260  -1.343  0.00  0.00    -0.313 OA
BRANCH  19  20
ATOM     20  C   UNL d   1      29.773 -16.693  -2.371  0.00  0.00     0.124 C 
ATOM     21  C   UNL d   1      30.613 -15.522  -2.868  0.00  0.00     0.040 C 
ATOM     22  C   UNL d   1      30.719 -17.753  -1.789  0.00  0.00     0.040 C 
ENDBRANCH  19  20
ENDBRANCH  17  19
ENDBRANCH  10  17
ENDBRANCH   3   5
BRANCH   1  23
ATOM     23  C   UNL d   1      27.605 -14.174  -5.353  0.00  0.00     0.037 A 
ATOM     24  C   UNL d   1      28.702 -14.921  -5.876  0.00  0.00     0.057 A 
ATOM     25  C   UNL d   1      29.563 -14.432  -6.902  0.00  0.00     0.105 A 
ATOM     26  C   UNL d   1      29.305 -13.125  -7.392  0.00  0.00     0.135 A 
ATOM     27  C   UNL d   1      28.268 -12.336  -6.810  0.00  0.00     0.105 A 
ATOM     28  C   UNL d   1      27.449 -12.855  -5.790  0.00  0.00     0.057 A 
BRANCH  25  29
ATOM     29  O   UNL d   1      30.381 -15.418  -7.461  0.00  0.00    -0.349 OA
BRANCH  29  30
ATOM     30  C   UNL d   1      31.309 -16.139  -6.645  0.00  0.00     0.171 C 
ATOM     31  C   UNL d   1      30.774 -17.248  -5.761  0.00  0.00     0.034 C 
ENDBRANCH  29  30
ENDBRANCH  25  29
BRANCH  26  32
ATOM     32  O   UNL d   1      29.856 -12.479  -8.471  0.00  0.00    -0.346 OA
BRANCH  32  33
ATOM     33  C   UNL d   1      31.078 -12.883  -8.936  0.00  0.00     0.171 C 
ATOM     34  C   UNL d   1      32.358 -12.773  -8.170  0.00  0.00     0.034 C 
ENDBRANCH  32  33
ENDBRANCH  26  32
BRANCH  27  35
ATOM     35  O   UNL d   1      27.914 -11.046  -7.210  0.00  0.00    -0.349 OA
BRANCH  35  36
ATOM     36  C   UNL d   1      26.673 -10.903  -7.918  0.00  0.00     0.171 C 
ATOM     37  C   UNL d   1      26.776 -11.232  -9.378  0.00  0.00     0.034 C 
ENDBRANCH  35  36
ENDBRANCH  27  35
ENDBRANCH   1  23
TORSDOF 14
ENDMDL
MODEL 6
REMARK VINA RESULT:    -6.529      1.474      2.004
REMARK INTER + INTRA:         -13.472
REMARK INTER:                 -10.705
REMARK INTRA:                  -2.767
REMARK CONF_INDEPENDENT:        4.176
REMARK UNBOUND:                -2.767
REMARK  14 active torsions:
REMARK  status: ('A' for Active; 'I' for Inactive)
REMARK    1  A    between atoms: C_2  and  O_3 
REMARK    2  A    between atoms: O_3  and  C_4 
REMARK    3  A    between atoms: C_6  and  C_7 
REMARK       I    between atoms: C_7  and  N_9 
REMARK    4  A    between atoms: N_9  and  C_10 
REMARK    5  A    between atoms: C_12  and  C_13 
REMARK    6  A    between atoms: C_13  and  O_15 
REMARK    7  A    between atoms: O_15  and  C_16 
REMARK    8  A    between atoms: C_21  and  C_22 
REMARK    9  A    between atoms: C_22  and  O_24 
REMARK   10  A    between atoms: O_24  and  C_25 
REMARK   11  A    between atoms: C_29  and  O_30 
REMARK   12  A    between atoms: O_30  and  C_31 
REMARK   13  A    between atoms: C_33  and  O_34 
REMARK   14  A    between atoms: O_34  and  C_35 
ROOT
ATOM      1  C   UNL d   1      25.680 -13.738  -3.312  0.00  0.00     0.256 C 
ATOM      2  O   UNL d   1      24.760 -14.223  -3.968  0.00  0.00    -0.267 OA
ATOM      3  N   UNL d   1      26.159 -14.279  -2.105  0.00  0.00    -0.316 N 
ATOM      4  H   UNL d   1      26.655 -13.662  -1.469  0.00  0.00     0.169 HD
ENDROOT
BRANCH   3   5
ATOM      5  C   UNL d   1      25.676 -15.462  -1.507  0.00  0.00     0.094 A 
ATOM      6  S   UNL d   1      24.178 -16.106  -2.000  0.00  0.00    -0.065 SA
ATOM      7  C   UNL d   1      24.331 -17.539  -1.046  0.00  0.00     0.089 A 
ATOM      8  C   UNL d   1      25.518 -17.510  -0.319  0.00  0.00    -0.020 A 
ATOM      9  C   UNL d   1      25.973 -18.573   0.637  0.00  0.00     0.051 C 
ATOM     10  C   UNL d   1      26.318 -16.301  -0.591  0.00  0.00     0.080 A 
BRANCH   7  11
ATOM     11  C   UNL d   1      23.238 -18.538  -1.125  0.00  0.00     0.301 C 
ATOM     12  O   UNL d   1      23.025 -19.283  -2.057  0.00  0.00    -0.259 OA
BRANCH  11  13
ATOM     13  O   UNL d   1      22.473 -18.535   0.024  0.00  0.00    -0.312 OA
BRANCH  13  14
ATOM     14  C   UNL d   1      21.256 -19.324   0.071  0.00  0.00     0.124 C 
ATOM     15  C   UNL d   1      20.661 -19.314   1.473  0.00  0.00     0.040 C 
ATOM     16  C   UNL d   1      20.214 -18.723  -0.890  0.00  0.00     0.040 C 
ENDBRANCH  13  14
ENDBRANCH  11  13
ENDBRANCH   7  11
BRANCH  10  17
ATOM     17  C   UNL d   1      27.620 -15.950   0.021  0.00  0.00     0.297 C 
ATOM     18  O   UNL d   1      28.409 -16.799   0.406  0.00  0.00    -0.259 OA
BRANCH  17  19
ATOM     19  O   UNL d   1      27.846 -14.596   0.116  0.00  0.00    -0.313 OA
BRANCH  19  20
ATOM     20  C   UNL d   1      27.096 -13.843   1.098  0.00  0.00     0.124 C 
ATOM     21  C   UNL d   1      27.613 -14.128   2.503  0.00  0.00     0.040 C 
ATOM     22  C   UNL d   1      27.260 -12.342   0.819  0.00  0.00     0.040 C 
ENDBRANCH  19  20
ENDBRANCH  17  19
ENDBRANCH  10  17
ENDBRANCH   3   5
BRANCH   1  23
ATOM     23  C   UNL d   1      26.232 -12.389  -3.784  0.00  0.00     0.037 A 
ATOM     24  C   UNL d   1      27.469 -12.350  -4.495  0.00  0.00     0.057 A 
ATOM     25  C   UNL d   1      27.955 -11.183  -5.155  0.00  0.00     0.105 A 
ATOM     26  C   UNL d   1      27.158 -10.012  -5.064  0.00  0.00     0.135 A 
ATOM     27  C   UNL d   1      25.967 -10.018  -4.278  0.00  0.00     0.105 A 
ATOM     28  C   UNL d   1      25.530 -11.190  -3.633  0.00  0.00     0.057 A 
BRANCH  25  29
ATOM     29  O   UNL d   1      29.024 -11.435  -6.019  0.00  0.00    -0.349 OA
BRANCH  29  30
ATOM     30  C   UNL d   1      29.221 -12.744  -6.565  0.00  0.00     0.171 C 
ATOM     31  C   UNL d   1      28.542 -13.082  -7.877  0.00  0.00     0.034 C 
ENDBRANCH  29  30
ENDBRANCH  25  29
BRANCH  26  32
ATOM     32  O   UNL d   1      27.294  -8.818  -5.727  0.00  0.00    -0.346 OA
BRANCH  32  33
ATOM     33  C   UNL d   1      28.364  -8.014  -5.440  0.00  0.00     0.171 C 
ATOM     34  C   UNL d   1      28.457  -7.116  -4.247  0.00  0.00     0.034 C 
ENDBRANCH  32  33
ENDBRANCH  26  32
BRANCH  27  35
ATOM     35  O   UNL d   1      25.099  -8.935  -4.119  0.00  0.00    -0.349 OA
BRANCH  35  36
ATOM     36  C   UNL d   1      24.309  -8.564  -5.259  0.00  0.00     0.171 C 
ATOM     37  C   UNL d   1      23.956  -7.107  -5.293  0.00  0.00     0.034 C 
ENDBRANCH  35  36
ENDBRANCH  27  35
ENDBRANCH   1  23
TORSDOF 14
ENDMDL
MODEL 7
REMARK VINA RESULT:    -6.508      4.189      7.785
REMARK INTER + INTRA:         -13.461
REMARK INTER:                 -10.684
REMARK INTRA:                  -2.777
REMARK CONF_INDEPENDENT:        4.176
REMARK UNBOUND:                -2.777
REMARK  14 active torsions:
REMARK  status: ('A' for Active; 'I' for Inactive)
REMARK    1  A    between atoms: C_2  and  O_3 
REMARK    2  A    between atoms: O_3  and  C_4 
REMARK    3  A    between atoms: C_6  and  C_7 
REMARK       I    between atoms: C_7  and  N_9 
REMARK    4  A    between atoms: N_9  and  C_10 
REMARK    5  A    between atoms: C_12  and  C_13 
REMARK    6  A    between atoms: C_13  and  O_15 
REMARK    7  A    between atoms: O_15  and  C_16 
REMARK    8  A    between atoms: C_21  and  C_22 
REMARK    9  A    between atoms: C_22  and  O_24 
REMARK   10  A    between atoms: O_24  and  C_25 
REMARK   11  A    between atoms: C_29  and  O_30 
REMARK   12  A    between atoms: O_30  and  C_31 
REMARK   13  A    between atoms: C_33  and  O_34 
REMARK   14  A    between atoms: O_34  and  C_35 
ROOT
ATOM      1  C   UNL d   1      27.063 -14.256   1.078  0.00  0.00     0.256 C 
ATOM      2  O   UNL d   1      27.700 -15.234   1.464  0.00  0.00    -0.267 OA
ATOM      3  N   UNL d   1      26.826 -13.111   1.859  0.00  0.00    -0.316 N 
ATOM      4  H   UNL d   1      26.035 -12.523   1.616  0.00  0.00     0.169 HD
ENDROOT
BRANCH   3   5
ATOM      5  C   UNL d   1      27.311 -12.917   3.170  0.00  0.00     0.094 A 
ATOM      6  S   UNL d   1      27.866 -14.253   4.071  0.00  0.00    -0.065 SA
ATOM      7  C   UNL d   1      28.436 -13.294   5.390  0.00  0.00     0.089 A 
ATOM      8  C   UNL d   1      28.170 -11.946   5.158  0.00  0.00    -0.020 A 
ATOM      9  C   UNL d   1      28.500 -10.825   6.098  0.00  0.00     0.051 C 
ATOM     10  C   UNL d   1      27.520 -11.716   3.854  0.00  0.00     0.080 A 
BRANCH   7  11
ATOM     11  C   UNL d   1      29.086 -13.997   6.522  0.00  0.00     0.301 C 
ATOM     12  O   UNL d   1      29.968 -14.824   6.431  0.00  0.00    -0.259 OA
BRANCH  11  13
ATOM     13  O   UNL d   1      28.569 -13.582   7.733  0.00  0.00    -0.312 OA
BRANCH  13  14
ATOM     14  C   UNL d   1      28.944 -14.285   8.946  0.00  0.00     0.124 C 
ATOM     15  C   UNL d   1      30.423 -14.089   9.246  0.00  0.00     0.040 C 
ATOM     16  C   UNL d   1      28.141 -13.726  10.135  0.00  0.00     0.040 C 
ENDBRANCH  13  14
ENDBRANCH  11  13
ENDBRANCH   7  11
BRANCH  10  17
ATOM     17  C   UNL d   1      27.090 -10.410   3.303  0.00  0.00     0.297 C 
ATOM     18  O   UNL d   1      27.110  -9.384   3.966  0.00  0.00    -0.259 OA
BRANCH  17  19
ATOM     19  O   UNL d   1      26.669 -10.468   1.994  0.00  0.00    -0.313 OA
BRANCH  19  20
ATOM     20  C   UNL d   1      27.015  -9.372   1.115  0.00  0.00     0.124 C 
ATOM     21  C   UNL d   1      27.408  -9.892  -0.263  0.00  0.00     0.040 C 
ATOM     22  C   UNL d   1      25.798  -8.450   0.953  0.00  0.00     0.040 C 
ENDBRANCH  19  20
ENDBRANCH  17  19
ENDBRANCH  10  17
ENDBRANCH   3   5
BRANCH   1  23
ATOM     23  C   UNL d   1      26.384 -14.367  -0.290  0.00  0.00     0.037 A 
ATOM     24  C   UNL d   1      26.513 -13.297  -1.225  0.00  0.00     0.057 A 
ATOM     25  C   UNL d   1      26.103 -13.395  -2.587  0.00  0.00     0.105 A 
ATOM     26  C   UNL d   1      25.519 -14.621  -2.998  0.00  0.00     0.135 A 
ATOM     27  C   UNL d   1      25.301 -15.663  -2.047  0.00  0.00     0.105 A 
ATOM     28  C   UNL d   1      25.712 -15.519  -0.709  0.00  0.00     0.057 A 
BRANCH  25  29
ATOM     29  O   UNL d   1      26.576 -12.352  -3.389  0.00  0.00    -0.349 OA
BRANCH  29  30
ATOM     30  C   UNL d   1      25.734 -11.237  -3.699  0.00  0.00     0.171 C 
ATOM     31  C   UNL d   1      25.901 -10.568  -5.049  0.00  0.00     0.034 C 
ENDBRANCH  29  30
ENDBRANCH  25  29
BRANCH  26  32
ATOM     32  O   UNL d   1      25.193 -15.045  -4.263  0.00  0.00    -0.346 OA
BRANCH  32  33
ATOM     33  C   UNL d   1      26.170 -15.574  -5.061  0.00  0.00     0.171 C 
ATOM     34  C   UNL d   1      27.351 -14.814  -5.576  0.00  0.00     0.034 C 
ENDBRANCH  32  33
ENDBRANCH  26  32
BRANCH  27  35
ATOM     35  O   UNL d   1      24.746 -16.912  -2.331  0.00  0.00    -0.349 OA
BRANCH  35  36
ATOM     36  C   UNL d   1      24.346 -17.715  -1.211  0.00  0.00     0.171 C 
ATOM     37  C   UNL d   1      22.921 -17.498  -0.797  0.00  0.00     0.034 C 
ENDBRANCH  35  36
ENDBRANCH  27  35
ENDBRANCH   1  23
TORSDOF 14
ENDMDL
MODEL 8
REMARK VINA RESULT:    -6.352      1.073      3.077
REMARK INTER + INTRA:         -13.505
REMARK INTER:                 -10.528
REMARK INTRA:                  -2.977
REMARK CONF_INDEPENDENT:        4.176
REMARK UNBOUND:                -2.977
REMARK  14 active torsions:
REMARK  status: ('A' for Active; 'I' for Inactive)
REMARK    1  A    between atoms: C_2  and  O_3 
REMARK    2  A    between atoms: O_3  and  C_4 
REMARK    3  A    between atoms: C_6  and  C_7 
REMARK       I    between atoms: C_7  and  N_9 
REMARK    4  A    between atoms: N_9  and  C_10 
REMARK    5  A    between atoms: C_12  and  C_13 
REMARK    6  A    between atoms: C_13  and  O_15 
REMARK    7  A    between atoms: O_15  and  C_16 
REMARK    8  A    between atoms: C_21  and  C_22 
REMARK    9  A    between atoms: C_22  and  O_24 
REMARK   10  A    between atoms: O_24  and  C_25 
REMARK   11  A    between atoms: C_29  and  O_30 
REMARK   12  A    between atoms: O_30  and  C_31 
REMARK   13  A    between atoms: C_33  and  O_34 
REMARK   14  A    between atoms: O_34  and  C_35 
ROOT
ATOM      1  C   UNL d   1      25.512 -13.806  -3.498  0.00  0.00     0.256 C 
ATOM      2  O   UNL d   1      24.735 -14.450  -4.201  0.00  0.00    -0.267 OA
ATOM      3  N   UNL d   1      25.901 -14.185  -2.200  0.00  0.00    -0.316 N 
ATOM      4  H   UNL d   1      26.248 -13.463  -1.576  0.00  0.00     0.169 HD
ENDROOT
BRANCH   3   5
ATOM      5  C   UNL d   1      25.481 -15.363  -1.547  0.00  0.00     0.094 A 
ATOM      6  S   UNL d   1      24.031 -16.121  -2.023  0.00  0.00    -0.065 SA
ATOM      7  C   UNL d   1      24.256 -17.491  -0.995  0.00  0.00     0.089 A 
ATOM      8  C   UNL d   1      25.429 -17.354  -0.256  0.00  0.00    -0.020 A 
ATOM      9  C   UNL d   1      25.933 -18.337   0.759  0.00  0.00     0.051 C 
ATOM     10  C   UNL d   1      26.158 -16.113  -0.581  0.00  0.00     0.080 A 
BRANCH   7  11
ATOM     11  C   UNL d   1      23.226 -18.557  -1.034  0.00  0.00     0.301 C 
ATOM     12  O   UNL d   1      23.048 -19.337  -1.945  0.00  0.00    -0.259 OA
BRANCH  11  13
ATOM     13  O   UNL d   1      22.478 -18.574   0.126  0.00  0.00    -0.312 OA
BRANCH  13  14
ATOM     14  C   UNL d   1      21.288 -19.402   0.194  0.00  0.00     0.124 C 
ATOM     15  C   UNL d   1      20.664 -19.336   1.581  0.00  0.00     0.040 C 
ATOM     16  C   UNL d   1      20.246 -18.893  -0.819  0.00  0.00     0.040 C 
ENDBRANCH  13  14
ENDBRANCH  11  13
ENDBRANCH   7  11
BRANCH  10  17
ATOM     17  C   UNL d   1      27.428 -15.654   0.027  0.00  0.00     0.297 C 
ATOM     18  O   UNL d   1      28.180 -16.413   0.617  0.00  0.00    -0.259 OA
BRANCH  17  19
ATOM     19  O   UNL d   1      27.669 -14.308  -0.134  0.00  0.00    -0.313 OA
BRANCH  19  20
ATOM     20  C   UNL d   1      27.170 -13.398   0.874  0.00  0.00     0.124 C 
ATOM     21  C   UNL d   1      27.624 -13.833   2.263  0.00  0.00     0.040 C 
ATOM     22  C   UNL d   1      27.724 -11.991   0.604  0.00  0.00     0.040 C 
ENDBRANCH  19  20
ENDBRANCH  17  19
ENDBRANCH  10  17
ENDBRANCH   3   5
BRANCH   1  23
ATOM     23  C   UNL d   1      25.968 -12.446  -4.035  0.00  0.00     0.037 A 
ATOM     24  C   UNL d   1      26.456 -11.462  -3.124  0.00  0.00     0.057 A 
ATOM     25  C   UNL d   1      27.096 -10.258  -3.542  0.00  0.00     0.105 A 
ATOM     26  C   UNL d   1      27.220 -10.046  -4.940  0.00  0.00     0.135 A 
ATOM     27  C   UNL d   1      26.653 -10.980  -5.857  0.00  0.00     0.105 A 
ATOM     28  C   UNL d   1      26.018 -12.151  -5.400  0.00  0.00     0.057 A 
BRANCH  25  29
ATOM     29  O   UNL d   1      27.744  -9.582  -2.505  0.00  0.00    -0.349 OA
BRANCH  29  30
ATOM     30  C   UNL d   1      27.074  -8.540  -1.788  0.00  0.00     0.171 C 
ATOM     31  C   UNL d   1      25.569  -8.428  -1.931  0.00  0.00     0.034 C 
ENDBRANCH  29  30
ENDBRANCH  25  29
BRANCH  26  32
ATOM     32  O   UNL d   1      27.925  -9.077  -5.610  0.00  0.00    -0.346 OA
BRANCH  32  33
ATOM     33  C   UNL d   1      27.290  -7.919  -5.969  0.00  0.00     0.171 C 
ATOM     34  C   UNL d   1      26.052  -7.391  -5.317  0.00  0.00     0.034 C 
ENDBRANCH  32  33
ENDBRANCH  26  32
BRANCH  27  35
ATOM     35  O   UNL d   1      26.717 -10.886  -7.249  0.00  0.00    -0.349 OA
BRANCH  35  36
ATOM     36  C   UNL d   1      27.710 -11.685  -7.909  0.00  0.00     0.171 C 
ATOM     37  C   UNL d   1      28.214 -11.079  -9.185  0.00  0.00     0.034 C 
ENDBRANCH  35  36
ENDBRANCH  27  35
ENDBRANCH   1  23
TORSDOF 14
ENDMDL
MODEL 9
REMARK VINA RESULT:    -6.224      3.759      7.897
REMARK INTER + INTRA:         -13.385
REMARK INTER:                 -10.400
REMARK INTRA:                  -2.985
REMARK CONF_INDEPENDENT:        4.176
REMARK UNBOUND:                -2.985
REMARK  14 active torsions:
REMARK  status: ('A' for Active; 'I' for Inactive)
REMARK    1  A    between atoms: C_2  and  O_3 
REMARK    2  A    between atoms: O_3  and  C_4 
REMARK    3  A    between atoms: C_6  and  C_7 
REMARK       I    between atoms: C_7  and  N_9 
REMARK    4  A    between atoms: N_9  and  C_10 
REMARK    5  A    between atoms: C_12  and  C_13 
REMARK    6  A    between atoms: C_13  and  O_15 
REMARK    7  A    between atoms: O_15  and  C_16 
REMARK    8  A    between atoms: C_21  and  C_22 
REMARK    9  A    between atoms: C_22  and  O_24 
REMARK   10  A    between atoms: O_24  and  C_25 
REMARK   11  A    between atoms: C_29  and  O_30 
REMARK   12  A    between atoms: O_30  and  C_31 
REMARK   13  A    between atoms: C_33  and  O_34 
REMARK   14  A    between atoms: O_34  and  C_35 
ROOT
ATOM      1  C   UNL d   1      26.951 -13.310   0.872  0.00  0.00     0.256 C 
ATOM      2  O   UNL d   1      26.991 -14.152   1.766  0.00  0.00    -0.267 OA
ATOM      3  N   UNL d   1      27.032 -11.923   1.091  0.00  0.00    -0.316 N 
ATOM      4  H   UNL d   1      26.656 -11.305   0.378  0.00  0.00     0.169 HD
ENDROOT
BRANCH   3   5
ATOM      5  C   UNL d   1      27.202 -11.316   2.353  0.00  0.00     0.094 A 
ATOM      6  S   UNL d   1      27.779 -12.242   3.663  0.00  0.00    -0.065 SA
ATOM      7  C   UNL d   1      27.901 -10.891   4.734  0.00  0.00     0.089 A 
ATOM      8  C   UNL d   1      27.466  -9.730   4.099  0.00  0.00    -0.020 A 
ATOM      9  C   UNL d   1      27.405  -8.370   4.729  0.00  0.00     0.051 C 
ATOM     10  C   UNL d   1      27.064  -9.970   2.700  0.00  0.00     0.080 A 
BRANCH   7  11
ATOM     11  C   UNL d   1      28.417 -11.142   6.101  0.00  0.00     0.301 C 
ATOM     12  O   UNL d   1      29.076 -10.370   6.763  0.00  0.00    -0.259 OA
BRANCH  11  13
ATOM     13  O   UNL d   1      28.039 -12.389   6.558  0.00  0.00    -0.312 OA
BRANCH  13  14
ATOM     14  C   UNL d   1      29.026 -13.449   6.635  0.00  0.00     0.124 C 
ATOM     15  C   UNL d   1      29.240 -13.883   8.079  0.00  0.00     0.040 C 
ATOM     16  C   UNL d   1      28.533 -14.673   5.842  0.00  0.00     0.040 C 
ENDBRANCH  13  14
ENDBRANCH  11  13
ENDBRANCH   7  11
BRANCH  10  17
ATOM     17  C   UNL d   1      26.542  -8.961   1.750  0.00  0.00     0.297 C 
ATOM     18  O   UNL d   1      25.835  -8.031   2.108  0.00  0.00    -0.259 OA
BRANCH  17  19
ATOM     19  O   UNL d   1      26.924  -9.173   0.445  0.00  0.00    -0.313 OA
BRANCH  19  20
ATOM     20  C   UNL d   1      28.337  -9.167   0.134  0.00  0.00     0.124 C 
ATOM     21  C   UNL d   1      28.612  -9.968  -1.133  0.00  0.00     0.040 C 
ATOM     22  C   UNL d   1      28.797  -7.721  -0.099  0.00  0.00     0.040 C 
ENDBRANCH  19  20
ENDBRANCH  17  19
ENDBRANCH  10  17
ENDBRANCH   3   5
BRANCH   1  23
ATOM     23  C   UNL d   1      26.662 -13.815  -0.545  0.00  0.00     0.037 A 
ATOM     24  C   UNL d   1      26.149 -15.135  -0.725  0.00  0.00     0.057 A 
ATOM     25  C   UNL d   1      25.652 -15.616  -1.972  0.00  0.00     0.105 A 
ATOM     26  C   UNL d   1      25.703 -14.724  -3.075  0.00  0.00     0.135 A 
ATOM     27  C   UNL d   1      26.299 -13.436  -2.924  0.00  0.00     0.105 A 
ATOM     28  C   UNL d   1      26.789 -13.006  -1.677  0.00  0.00     0.057 A 
BRANCH  25  29
ATOM     29  O   UNL d   1      24.942 -16.815  -1.864  0.00  0.00    -0.349 OA
BRANCH  29  30
ATOM     30  C   UNL d   1      24.661 -17.378  -0.578  0.00  0.00     0.171 C 
ATOM     31  C   UNL d   1      23.723 -18.567  -0.506  0.00  0.00     0.034 C 
ENDBRANCH  29  30
ENDBRANCH  25  29
BRANCH  26  32
ATOM     32  O   UNL d   1      25.152 -14.859  -4.325  0.00  0.00    -0.346 OA
BRANCH  32  33
ATOM     33  C   UNL d   1      25.929 -15.331  -5.348  0.00  0.00     0.171 C 
ATOM     34  C   UNL d   1      27.309 -14.845  -5.660  0.00  0.00     0.034 C 
ENDBRANCH  32  33
ENDBRANCH  26  32
BRANCH  27  35
ATOM     35  O   UNL d   1      26.400 -12.471  -3.928  0.00  0.00    -0.349 OA
BRANCH  35  36
ATOM     36  C   UNL d   1      26.294 -11.099  -3.523  0.00  0.00     0.171 C 
ATOM     37  C   UNL d   1      25.592 -10.231  -4.525  0.00  0.00     0.034 C 
ENDBRANCH  35  36
ENDBRANCH  27  35
ENDBRANCH   1  23
TORSDOF 14
ENDMDL
