MODEL 1
REMARK VINA RESULT:    -8.979      0.000      0.000
REMARK INTER + INTRA:         -12.118
REMARK INTER:                 -11.067
REMARK INTRA:                  -1.050
REMARK CONF_INDEPENDENT:        2.088
REMARK UNBOUND:                -1.050
REMARK  7 active torsions:
REMARK  status: ('A' for Active; 'I' for Inactive)
REMARK    1  A    between atoms: C_2  and  C_3 
REMARK       I    between atoms: C_2  and  N_20 
REMARK    2  A    between atoms: C_3  and  N_4 
REMARK    3  A    between atoms: N_4  and  C_5 
REMARK    4  A    between atoms: C_8  and  C_9 
REMARK       I    between atoms: C_9  and  N_11 
REMARK    5  A    between atoms: N_11  and  C_12 
REMARK    6  A    between atoms: C_12  and  C_13 
REMARK    7  A    between atoms: N_20  and  C_21 
ROOT
ATOM      1  C   UNL d   1      26.522 -16.531   0.046  0.00  0.00     0.028 A 
ATOM      2  C   UNL d   1      25.559 -15.885  -0.731  0.00  0.00     0.030 A 
ATOM      3  C   UNL d   1      24.354 -16.527  -1.076  0.00  0.00     0.019 A 
ATOM      4  C   UNL d   1      24.123 -17.868  -0.728  0.00  0.00     0.032 A 
ATOM      5  C   UNL d   1      25.105 -18.529   0.013  0.00  0.00     0.019 A 
ATOM      6  C   UNL d   1      26.293 -17.873   0.367  0.00  0.00     0.030 A 
ENDROOT
BRANCH   1   7
ATOM      7  N   UNL d   1      27.670 -15.872   0.442  0.00  0.00    -0.381 N 
ATOM      8  H   UNL d   1      28.506 -15.886  -0.134  0.00  0.00     0.160 HD
BRANCH   7   9
ATOM      9  C   UNL d   1      27.751 -15.205   1.731  0.00  0.00     0.223 C 
BRANCH   9  10
ATOM     10  C   UNL d   1      27.054 -13.833   1.755  0.00  0.00     0.239 C 
ATOM     11  O   UNL d   1      26.496 -13.355   0.764  0.00  0.00    -0.271 OA
ATOM     12  N   UNL d   1      26.966 -13.169   2.968  0.00  0.00    -0.326 N 
ATOM     13  H   UNL d   1      26.320 -12.386   2.958  0.00  0.00     0.169 HD
BRANCH  12  14
ATOM     14  C   UNL d   1      27.614 -13.484   4.176  0.00  0.00     0.036 A 
ATOM     15  C   UNL d   1      27.904 -14.816   4.484  0.00  0.00     0.032 A 
ATOM     16  C   UNL d   1      28.523 -15.131   5.702  0.00  0.00     0.046 A 
ATOM     17  C   UNL d   1      28.891 -14.114   6.582  0.00  0.00     0.138 A 
ATOM     18  F   UNL d   1      29.537 -14.431   7.713  0.00  0.00    -0.204 F 
ATOM     19  C   UNL d   1      28.580 -12.795   6.294  0.00  0.00     0.074 A 
ATOM     20 CL   UNL d   1      28.958 -11.518   7.382  0.00  0.00    -0.081 Cl
ATOM     21  C   UNL d   1      27.910 -12.493   5.114  0.00  0.00     0.056 A 
ENDBRANCH  12  14
ENDBRANCH   9  10
ENDBRANCH   7   9
ENDBRANCH   1   7
BRANCH   4  22
ATOM     22  C   UNL d   1      22.870 -18.545  -1.206  0.00  0.00     0.251 C 
ATOM     23  O   UNL d   1      22.899 -19.230  -2.234  0.00  0.00    -0.268 OA
ATOM     24  N   UNL d   1      21.716 -18.402  -0.461  0.00  0.00    -0.351 N 
ATOM     25  H   UNL d   1      21.704 -17.878   0.399  0.00  0.00     0.163 HD
BRANCH  24  26
ATOM     26  C   UNL d   1      20.489 -19.087  -0.829  0.00  0.00     0.187 C 
BRANCH  26  27
ATOM     27  C   UNL d   1      19.870 -19.691   0.384  0.00  0.00     0.070 A 
ATOM     28  C   UNL d   1      18.814 -20.566   0.534  0.00  0.00     0.036 A 
ATOM     29  C   UNL d   1      18.677 -20.809   1.918  0.00  0.00     0.027 A 
ATOM     30  C   UNL d   1      19.665 -20.078   2.534  0.00  0.00     0.142 A 
ATOM     31  O   UNL d   1      20.395 -19.390   1.611  0.00  0.00    -0.325 OA
ENDBRANCH  26  27
ENDBRANCH  24  26
ENDBRANCH   4  22
TORSDOF 7
ENDMDL
MODEL 2
REMARK VINA RESULT:    -8.604      4.504      5.724
REMARK INTER + INTRA:         -12.328
REMARK INTER:                 -10.692
REMARK INTRA:                  -1.636
REMARK CONF_INDEPENDENT:        2.088
REMARK UNBOUND:                -1.636
REMARK  7 active torsions:
REMARK  status: ('A' for Active; 'I' for Inactive)
REMARK    1  A    between atoms: C_2  and  C_3 
REMARK       I    between atoms: C_2  and  N_20 
REMARK    2  A    between atoms: C_3  and  N_4 
REMARK    3  A    between atoms: N_4  and  C_5 
REMARK    4  A    between atoms: C_8  and  C_9 
REMARK       I    between atoms: C_9  and  N_11 
REMARK    5  A    between atoms: N_11  and  C_12 
REMARK    6  A    between atoms: C_12  and  C_13 
REMARK    7  A    between atoms: N_20  and  C_21 
ROOT
ATOM      1  C   UNL d   1      26.554 -17.215   0.029  0.00  0.00     0.028 A 
ATOM      2  C   UNL d   1      26.011 -16.854  -1.205  0.00  0.00     0.030 A 
ATOM      3  C   UNL d   1      24.725 -17.283  -1.585  0.00  0.00     0.019 A 
ATOM      4  C   UNL d   1      23.986 -18.163  -0.776  0.00  0.00     0.032 A 
ATOM      5  C   UNL d   1      24.547 -18.558   0.440  0.00  0.00     0.019 A 
ATOM      6  C   UNL d   1      25.821 -18.108   0.817  0.00  0.00     0.030 A 
ENDROOT
BRANCH   1   7
ATOM      7  N   UNL d   1      27.785 -16.732   0.428  0.00  0.00    -0.381 N 
ATOM      8  H   UNL d   1      28.355 -17.240   1.098  0.00  0.00     0.160 HD
BRANCH   7   9
ATOM      9  C   UNL d   1      28.275 -15.442  -0.030  0.00  0.00     0.223 C 
BRANCH   9  10
ATOM     10  C   UNL d   1      27.304 -14.282   0.255  0.00  0.00     0.239 C 
ATOM     11  O   UNL d   1      27.109 -13.844   1.392  0.00  0.00    -0.271 OA
ATOM     12  N   UNL d   1      26.715 -13.646  -0.825  0.00  0.00    -0.326 N 
ATOM     13  H   UNL d   1      26.262 -12.770  -0.586  0.00  0.00     0.169 HD
BRANCH  12  14
ATOM     14  C   UNL d   1      26.721 -14.047  -2.173  0.00  0.00     0.036 A 
ATOM     15  C   UNL d   1      25.525 -14.086  -2.894  0.00  0.00     0.032 A 
ATOM     16  C   UNL d   1      25.530 -14.514  -4.230  0.00  0.00     0.046 A 
ATOM     17  C   UNL d   1      26.731 -14.853  -4.851  0.00  0.00     0.138 A 
ATOM     18  F   UNL d   1      26.721 -15.201  -6.145  0.00  0.00    -0.204 F 
ATOM     19  C   UNL d   1      27.914 -14.844  -4.132  0.00  0.00     0.074 A 
ATOM     20 CL   UNL d   1      29.407 -15.319  -4.842  0.00  0.00    -0.081 Cl
ATOM     21  C   UNL d   1      27.897 -14.479  -2.791  0.00  0.00     0.056 A 
ENDBRANCH  12  14
ENDBRANCH   9  10
ENDBRANCH   7   9
ENDBRANCH   1   7
BRANCH   4  22
ATOM     22  C   UNL d   1      22.663 -18.678  -1.269  0.00  0.00     0.251 C 
ATOM     23  O   UNL d   1      22.613 -19.324  -2.320  0.00  0.00    -0.268 OA
ATOM     24  N   UNL d   1      21.535 -18.434  -0.511  0.00  0.00    -0.351 N 
ATOM     25  H   UNL d   1      21.585 -17.943   0.367  0.00  0.00     0.163 HD
BRANCH  24  26
ATOM     26  C   UNL d   1      20.238 -18.965  -0.894  0.00  0.00     0.187 C 
BRANCH  26  27
ATOM     27  C   UNL d   1      19.632 -19.685   0.260  0.00  0.00     0.070 A 
ATOM     28  C   UNL d   1      18.670 -20.673   0.319  0.00  0.00     0.036 A 
ATOM     29  C   UNL d   1      18.495 -20.992   1.684  0.00  0.00     0.027 A 
ATOM     30  C   UNL d   1      19.368 -20.190   2.379  0.00  0.00     0.142 A 
ATOM     31  O   UNL d   1      20.062 -19.386   1.523  0.00  0.00    -0.325 OA
ENDBRANCH  26  27
ENDBRANCH  24  26
ENDBRANCH   4  22
TORSDOF 7
ENDMDL
MODEL 3
REMARK VINA RESULT:    -8.273      5.214      6.537
REMARK INTER + INTRA:         -11.750
REMARK INTER:                 -10.361
REMARK INTRA:                  -1.389
REMARK CONF_INDEPENDENT:        2.088
REMARK UNBOUND:                -1.389
REMARK  7 active torsions:
REMARK  status: ('A' for Active; 'I' for Inactive)
REMARK    1  A    between atoms: C_2  and  C_3 
REMARK       I    between atoms: C_2  and  N_20 
REMARK    2  A    between atoms: C_3  and  N_4 
REMARK    3  A    between atoms: N_4  and  C_5 
REMARK    4  A    between atoms: C_8  and  C_9 
REMARK       I    between atoms: C_9  and  N_11 
REMARK    5  A    between atoms: N_11  and  C_12 
REMARK    6  A    between atoms: C_12  and  C_13 
REMARK    7  A    between atoms: N_20  and  C_21 
ROOT
ATOM      1  C   UNL d   1      26.766 -17.158  -0.595  0.00  0.00     0.028 A 
ATOM      2  C   UNL d   1      26.116 -18.153   0.137  0.00  0.00     0.030 A 
ATOM      3  C   UNL d   1      24.738 -18.390  -0.025  0.00  0.00     0.019 A 
ATOM      4  C   UNL d   1      23.956 -17.573  -0.859  0.00  0.00     0.032 A 
ATOM      5  C   UNL d   1      24.598 -16.551  -1.559  0.00  0.00     0.019 A 
ATOM      6  C   UNL d   1      25.976 -16.336  -1.404  0.00  0.00     0.030 A 
ENDROOT
BRANCH   1   7
ATOM      7  N   UNL d   1      28.131 -16.979  -0.485  0.00  0.00    -0.381 N 
ATOM      8  H   UNL d   1      28.652 -17.382   0.288  0.00  0.00     0.160 HD
BRANCH   7   9
ATOM      9  C   UNL d   1      28.861 -16.140  -1.423  0.00  0.00     0.223 C 
BRANCH   9  10
ATOM     10  C   UNL d   1      29.558 -16.936  -2.541  0.00  0.00     0.239 C 
ATOM     11  O   UNL d   1      30.285 -17.907  -2.310  0.00  0.00    -0.271 OA
ATOM     12  N   UNL d   1      29.266 -16.607  -3.854  0.00  0.00    -0.326 N 
ATOM     13  H   UNL d   1      29.586 -17.295  -4.529  0.00  0.00     0.169 HD
BRANCH  12  14
ATOM     14  C   UNL d   1      28.558 -15.488  -4.328  0.00  0.00     0.036 A 
ATOM     15  C   UNL d   1      29.192 -14.566  -5.166  0.00  0.00     0.032 A 
ATOM     16  C   UNL d   1      28.492 -13.436  -5.614  0.00  0.00     0.046 A 
ATOM     17  C   UNL d   1      27.155 -13.257  -5.263  0.00  0.00     0.138 A 
ATOM     18  F   UNL d   1      26.487 -12.203  -5.751  0.00  0.00    -0.204 F 
ATOM     19  C   UNL d   1      26.532 -14.152  -4.409  0.00  0.00     0.074 A 
ATOM     20 CL   UNL d   1      24.904 -13.932  -3.899  0.00  0.00    -0.081 Cl
ATOM     21  C   UNL d   1      27.247 -15.238  -3.917  0.00  0.00     0.056 A 
ENDBRANCH  12  14
ENDBRANCH   9  10
ENDBRANCH   7   9
ENDBRANCH   1   7
BRANCH   4  22
ATOM     22  C   UNL d   1      22.471 -17.796  -0.922  0.00  0.00     0.251 C 
ATOM     23  O   UNL d   1      21.702 -16.853  -0.708  0.00  0.00    -0.268 OA
ATOM     24  N   UNL d   1      22.004 -19.055  -1.246  0.00  0.00    -0.351 N 
ATOM     25  H   UNL d   1      22.633 -19.812  -1.461  0.00  0.00     0.163 HD
BRANCH  24  26
ATOM     26  C   UNL d   1      20.584 -19.320  -1.393  0.00  0.00     0.187 C 
BRANCH  26  27
ATOM     27  C   UNL d   1      20.011 -19.715  -0.076  0.00  0.00     0.070 A 
ATOM     28  C   UNL d   1      18.773 -20.220   0.269  0.00  0.00     0.036 A 
ATOM     29  C   UNL d   1      18.790 -20.425   1.666  0.00  0.00     0.027 A 
ATOM     30  C   UNL d   1      20.041 -20.046   2.093  0.00  0.00     0.142 A 
ATOM     31  O   UNL d   1      20.791 -19.608   1.042  0.00  0.00    -0.325 OA
ENDBRANCH  26  27
ENDBRANCH  24  26
ENDBRANCH   4  22
TORSDOF 7
ENDMDL
MODEL 4
REMARK VINA RESULT:    -8.267      5.690      7.250
REMARK INTER + INTRA:         -11.614
REMARK INTER:                 -10.355
REMARK INTRA:                  -1.259
REMARK CONF_INDEPENDENT:        2.088
REMARK UNBOUND:                -1.259
REMARK  7 active torsions:
REMARK  status: ('A' for Active; 'I' for Inactive)
REMARK    1  A    between atoms: C_2  and  C_3 
REMARK       I    between atoms: C_2  and  N_20 
REMARK    2  A    between atoms: C_3  and  N_4 
REMARK    3  A    between atoms: N_4  and  C_5 
REMARK    4  A    between atoms: C_8  and  C_9 
REMARK       I    between atoms: C_9  and  N_11 
REMARK    5  A    between atoms: N_11  and  C_12 
REMARK    6  A    between atoms: C_12  and  C_13 
REMARK    7  A    between atoms: N_20  and  C_21 
ROOT
ATOM      1  C   UNL d   1      26.800 -17.329  -0.288  0.00  0.00     0.028 A 
ATOM      2  C   UNL d   1      26.123 -16.754  -1.365  0.00  0.00     0.030 A 
ATOM      3  C   UNL d   1      24.723 -16.855  -1.479  0.00  0.00     0.019 A 
ATOM      4  C   UNL d   1      23.975 -17.614  -0.565  0.00  0.00     0.032 A 
ATOM      5  C   UNL d   1      24.657 -18.224   0.489  0.00  0.00     0.019 A 
ATOM      6  C   UNL d   1      26.049 -18.101   0.604  0.00  0.00     0.030 A 
ENDROOT
BRANCH   1   7
ATOM      7  N   UNL d   1      28.164 -17.165  -0.142  0.00  0.00    -0.381 N 
ATOM      8  H   UNL d   1      28.583 -17.060   0.777  0.00  0.00     0.160 HD
BRANCH   7   9
ATOM      9  C   UNL d   1      29.040 -17.055  -1.297  0.00  0.00     0.223 C 
BRANCH   9  10
ATOM     10  C   UNL d   1      30.531 -17.217  -0.952  0.00  0.00     0.239 C 
ATOM     11  O   UNL d   1      30.956 -17.143   0.204  0.00  0.00    -0.271 OA
ATOM     12  N   UNL d   1      31.401 -17.565  -1.972  0.00  0.00    -0.326 N 
ATOM     13  H   UNL d   1      32.316 -17.861  -1.646  0.00  0.00     0.169 HD
BRANCH  12  14
ATOM     14  C   UNL d   1      31.145 -17.596  -3.355  0.00  0.00     0.036 A 
ATOM     15  C   UNL d   1      30.850 -16.412  -4.036  0.00  0.00     0.032 A 
ATOM     16  C   UNL d   1      30.566 -16.450  -5.409  0.00  0.00     0.046 A 
ATOM     17  C   UNL d   1      30.624 -17.659  -6.101  0.00  0.00     0.138 A 
ATOM     18  F   UNL d   1      30.408 -17.664  -7.424  0.00  0.00    -0.204 F 
ATOM     19  C   UNL d   1      30.886 -18.839  -5.425  0.00  0.00     0.074 A 
ATOM     20 CL   UNL d   1      30.901 -20.359  -6.229  0.00  0.00    -0.081 Cl
ATOM     21  C   UNL d   1      31.106 -18.806  -4.053  0.00  0.00     0.056 A 
ENDBRANCH  12  14
ENDBRANCH   9  10
ENDBRANCH   7   9
ENDBRANCH   1   7
BRANCH   4  22
ATOM     22  C   UNL d   1      22.497 -17.780  -0.785  0.00  0.00     0.251 C 
ATOM     23  O   UNL d   1      21.780 -16.781  -0.894  0.00  0.00    -0.268 OA
ATOM     24  N   UNL d   1      21.984 -19.059  -0.886  0.00  0.00    -0.351 N 
ATOM     25  H   UNL d   1      22.577 -19.871  -0.838  0.00  0.00     0.163 HD
BRANCH  24  26
ATOM     26  C   UNL d   1      20.578 -19.288  -1.168  0.00  0.00     0.187 C 
BRANCH  26  27
ATOM     27  C   UNL d   1      19.911 -19.851   0.039  0.00  0.00     0.070 A 
ATOM     28  C   UNL d   1      20.153 -19.671   1.385  0.00  0.00     0.036 A 
ATOM     29  C   UNL d   1      19.198 -20.445   2.080  0.00  0.00     0.027 A 
ATOM     30  C   UNL d   1      18.420 -21.045   1.118  0.00  0.00     0.142 A 
ATOM     31  O   UNL d   1      18.848 -20.694  -0.129  0.00  0.00    -0.325 OA
ENDBRANCH  26  27
ENDBRANCH  24  26
ENDBRANCH   4  22
TORSDOF 7
ENDMDL
MODEL 5
REMARK VINA RESULT:    -8.166      4.648      5.753
REMARK INTER + INTRA:         -12.363
REMARK INTER:                 -10.254
REMARK INTRA:                  -2.109
REMARK CONF_INDEPENDENT:        2.088
REMARK UNBOUND:                -2.109
REMARK  7 active torsions:
REMARK  status: ('A' for Active; 'I' for Inactive)
REMARK    1  A    between atoms: C_2  and  C_3 
REMARK       I    between atoms: C_2  and  N_20 
REMARK    2  A    between atoms: C_3  and  N_4 
REMARK    3  A    between atoms: N_4  and  C_5 
REMARK    4  A    between atoms: C_8  and  C_9 
REMARK       I    between atoms: C_9  and  N_11 
REMARK    5  A    between atoms: N_11  and  C_12 
REMARK    6  A    between atoms: C_12  and  C_13 
REMARK    7  A    between atoms: N_20  and  C_21 
ROOT
ATOM      1  C   UNL d   1      26.725 -16.651   0.214  0.00  0.00     0.028 A 
ATOM      2  C   UNL d   1      25.722 -15.867  -0.359  0.00  0.00     0.030 A 
ATOM      3  C   UNL d   1      24.496 -16.433  -0.757  0.00  0.00     0.019 A 
ATOM      4  C   UNL d   1      24.278 -17.819  -0.676  0.00  0.00     0.032 A 
ATOM      5  C   UNL d   1      25.298 -18.610  -0.143  0.00  0.00     0.019 A 
ATOM      6  C   UNL d   1      26.507 -18.031   0.269  0.00  0.00     0.030 A 
ENDROOT
BRANCH   1   7
ATOM      7  N   UNL d   1      27.896 -16.078   0.669  0.00  0.00    -0.381 N 
ATOM      8  H   UNL d   1      27.987 -15.766   1.631  0.00  0.00     0.160 HD
BRANCH   7   9
ATOM      9  C   UNL d   1      29.012 -15.825  -0.228  0.00  0.00     0.223 C 
BRANCH   9  10
ATOM     10  C   UNL d   1      29.348 -14.331  -0.380  0.00  0.00     0.239 C 
ATOM     11  O   UNL d   1      29.987 -13.704   0.470  0.00  0.00    -0.271 OA
ATOM     12  N   UNL d   1      29.007 -13.705  -1.568  0.00  0.00    -0.326 N 
ATOM     13  H   UNL d   1      29.439 -12.794  -1.688  0.00  0.00     0.169 HD
BRANCH  12  14
ATOM     14  C   UNL d   1      28.198 -14.201  -2.606  0.00  0.00     0.036 A 
ATOM     15  C   UNL d   1      28.728 -15.102  -3.533  0.00  0.00     0.032 A 
ATOM     16  C   UNL d   1      27.927 -15.572  -4.584  0.00  0.00     0.046 A 
ATOM     17  C   UNL d   1      26.593 -15.179  -4.676  0.00  0.00     0.138 A 
ATOM     18  F   UNL d   1      25.829 -15.687  -5.652  0.00  0.00    -0.204 F 
ATOM     19  C   UNL d   1      26.072 -14.263  -3.778  0.00  0.00     0.074 A 
ATOM     20 CL   UNL d   1      24.451 -13.701  -3.896  0.00  0.00    -0.081 Cl
ATOM     21  C   UNL d   1      26.886 -13.751  -2.774  0.00  0.00     0.056 A 
ENDBRANCH  12  14
ENDBRANCH   9  10
ENDBRANCH   7   9
ENDBRANCH   1   7
BRANCH   4  22
ATOM     22  C   UNL d   1      22.996 -18.393  -1.210  0.00  0.00     0.251 C 
ATOM     23  O   UNL d   1      22.989 -18.955  -2.309  0.00  0.00    -0.268 OA
ATOM     24  N   UNL d   1      21.857 -18.298  -0.435  0.00  0.00    -0.351 N 
ATOM     25  H   UNL d   1      21.874 -17.877   0.480  0.00  0.00     0.163 HD
BRANCH  24  26
ATOM     26  C   UNL d   1      20.602 -18.894  -0.859  0.00  0.00     0.187 C 
BRANCH  26  27
ATOM     27  C   UNL d   1      19.955 -19.574   0.297  0.00  0.00     0.070 A 
ATOM     28  C   UNL d   1      18.918 -20.483   0.361  0.00  0.00     0.036 A 
ATOM     29  C   UNL d   1      18.736 -20.800   1.725  0.00  0.00     0.027 A 
ATOM     30  C   UNL d   1      19.679 -20.076   2.415  0.00  0.00     0.142 A 
ATOM     31  O   UNL d   1      20.424 -19.323   1.556  0.00  0.00    -0.325 OA
ENDBRANCH  26  27
ENDBRANCH  24  26
ENDBRANCH   4  22
TORSDOF 7
ENDMDL
MODEL 6
REMARK VINA RESULT:    -8.112      1.617      1.766
REMARK INTER + INTRA:         -11.804
REMARK INTER:                 -10.200
REMARK INTRA:                  -1.603
REMARK CONF_INDEPENDENT:        2.088
REMARK UNBOUND:                -1.603
REMARK  7 active torsions:
REMARK  status: ('A' for Active; 'I' for Inactive)
REMARK    1  A    between atoms: C_2  and  C_3 
REMARK       I    between atoms: C_2  and  N_20 
REMARK    2  A    between atoms: C_3  and  N_4 
REMARK    3  A    between atoms: N_4  and  C_5 
REMARK    4  A    between atoms: C_8  and  C_9 
REMARK       I    between atoms: C_9  and  N_11 
REMARK    5  A    between atoms: N_11  and  C_12 
REMARK    6  A    between atoms: C_12  and  C_13 
REMARK    7  A    between atoms: N_20  and  C_21 
ROOT
ATOM      1  C   UNL d   1      26.385 -16.549   0.254  0.00  0.00     0.028 A 
ATOM      2  C   UNL d   1      25.425 -15.887  -0.513  0.00  0.00     0.030 A 
ATOM      3  C   UNL d   1      24.248 -16.541  -0.926  0.00  0.00     0.019 A 
ATOM      4  C   UNL d   1      24.046 -17.905  -0.658  0.00  0.00     0.032 A 
ATOM      5  C   UNL d   1      25.026 -18.579   0.073  0.00  0.00     0.019 A 
ATOM      6  C   UNL d   1      26.185 -17.912   0.496  0.00  0.00     0.030 A 
ENDROOT
BRANCH   1   7
ATOM      7  N   UNL d   1      27.502 -15.883   0.718  0.00  0.00    -0.381 N 
ATOM      8  H   UNL d   1      28.067 -16.267   1.469  0.00  0.00     0.160 HD
BRANCH   7   9
ATOM      9  C   UNL d   1      27.865 -14.570   0.207  0.00  0.00     0.223 C 
BRANCH   9  10
ATOM     10  C   UNL d   1      29.375 -14.281   0.283  0.00  0.00     0.239 C 
ATOM     11  O   UNL d   1      30.141 -14.504  -0.659  0.00  0.00    -0.271 OA
ATOM     12  N   UNL d   1      29.861 -13.648   1.415  0.00  0.00    -0.326 N 
ATOM     13  H   UNL d   1      30.809 -13.299   1.313  0.00  0.00     0.169 HD
BRANCH  12  14
ATOM     14  C   UNL d   1      29.187 -13.404   2.626  0.00  0.00     0.036 A 
ATOM     15  C   UNL d   1      28.980 -14.449   3.530  0.00  0.00     0.032 A 
ATOM     16  C   UNL d   1      28.282 -14.209   4.723  0.00  0.00     0.046 A 
ATOM     17  C   UNL d   1      27.839 -12.923   5.027  0.00  0.00     0.138 A 
ATOM     18  F   UNL d   1      27.229 -12.704   6.200  0.00  0.00    -0.204 F 
ATOM     19  C   UNL d   1      28.016 -11.891   4.121  0.00  0.00     0.074 A 
ATOM     20 CL   UNL d   1      27.427 -10.305   4.429  0.00  0.00    -0.081 Cl
ATOM     21  C   UNL d   1      28.653 -12.145   2.912  0.00  0.00     0.056 A 
ENDBRANCH  12  14
ENDBRANCH   9  10
ENDBRANCH   7   9
ENDBRANCH   1   7
BRANCH   4  22
ATOM     22  C   UNL d   1      22.825 -18.588  -1.208  0.00  0.00     0.251 C 
ATOM     23  O   UNL d   1      22.898 -19.204  -2.275  0.00  0.00    -0.268 OA
ATOM     24  N   UNL d   1      21.651 -18.528  -0.482  0.00  0.00    -0.351 N 
ATOM     25  H   UNL d   1      21.605 -18.061   0.409  0.00  0.00     0.163 HD
BRANCH  24  26
ATOM     26  C   UNL d   1      20.455 -19.226  -0.921  0.00  0.00     0.187 C 
BRANCH  26  27
ATOM     27  C   UNL d   1      19.740 -19.783   0.260  0.00  0.00     0.070 A 
ATOM     28  C   UNL d   1      18.644 -20.617   0.356  0.00  0.00     0.036 A 
ATOM     29  C   UNL d   1      18.411 -20.828   1.733  0.00  0.00     0.027 A 
ATOM     30  C   UNL d   1      19.384 -20.121   2.399  0.00  0.00     0.142 A 
ATOM     31  O   UNL d   1      20.196 -19.477   1.512  0.00  0.00    -0.325 OA
ENDBRANCH  26  27
ENDBRANCH  24  26
ENDBRANCH   4  22
TORSDOF 7
ENDMDL
MODEL 7
REMARK VINA RESULT:    -8.067      4.276      5.543
REMARK INTER + INTRA:         -12.179
REMARK INTER:                 -10.155
REMARK INTRA:                  -2.024
REMARK CONF_INDEPENDENT:        2.088
REMARK UNBOUND:                -2.024
REMARK  7 active torsions:
REMARK  status: ('A' for Active; 'I' for Inactive)
REMARK    1  A    between atoms: C_2  and  C_3 
REMARK       I    between atoms: C_2  and  N_20 
REMARK    2  A    between atoms: C_3  and  N_4 
REMARK    3  A    between atoms: N_4  and  C_5 
REMARK    4  A    between atoms: C_8  and  C_9 
REMARK       I    between atoms: C_9  and  N_11 
REMARK    5  A    between atoms: N_11  and  C_12 
REMARK    6  A    between atoms: C_12  and  C_13 
REMARK    7  A    between atoms: N_20  and  C_21 
ROOT
ATOM      1  C   UNL d   1      26.505 -16.615   0.211  0.00  0.00     0.028 A 
ATOM      2  C   UNL d   1      26.206 -17.943   0.521  0.00  0.00     0.030 A 
ATOM      3  C   UNL d   1      25.068 -18.575  -0.015  0.00  0.00     0.019 A 
ATOM      4  C   UNL d   1      24.149 -17.863  -0.804  0.00  0.00     0.032 A 
ATOM      5  C   UNL d   1      24.425 -16.523  -1.079  0.00  0.00     0.019 A 
ATOM      6  C   UNL d   1      25.572 -15.909  -0.555  0.00  0.00     0.030 A 
ENDROOT
BRANCH   1   7
ATOM      7  N   UNL d   1      27.660 -16.022   0.681  0.00  0.00    -0.381 N 
ATOM      8  H   UNL d   1      28.448 -16.584   0.991  0.00  0.00     0.160 HD
BRANCH   7   9
ATOM      9  C   UNL d   1      27.764 -14.579   0.828  0.00  0.00     0.223 C 
BRANCH   9  10
ATOM     10  C   UNL d   1      29.083 -14.002   0.284  0.00  0.00     0.239 C 
ATOM     11  O   UNL d   1      30.130 -14.009   0.938  0.00  0.00    -0.271 OA
ATOM     12  N   UNL d   1      29.108 -13.559  -1.028  0.00  0.00    -0.326 N 
ATOM     13  H   UNL d   1      30.044 -13.393  -1.386  0.00  0.00     0.169 HD
BRANCH  12  14
ATOM     14  C   UNL d   1      28.019 -13.371  -1.898  0.00  0.00     0.036 A 
ATOM     15  C   UNL d   1      27.386 -12.126  -1.962  0.00  0.00     0.032 A 
ATOM     16  C   UNL d   1      26.282 -11.949  -2.808  0.00  0.00     0.046 A 
ATOM     17  C   UNL d   1      25.848 -12.997  -3.619  0.00  0.00     0.138 A 
ATOM     18  F   UNL d   1      24.830 -12.789  -4.465  0.00  0.00    -0.204 F 
ATOM     19  C   UNL d   1      26.453 -14.240  -3.537  0.00  0.00     0.074 A 
ATOM     20 CL   UNL d   1      25.906 -15.576  -4.472  0.00  0.00    -0.081 Cl
ATOM     21  C   UNL d   1      27.508 -14.429  -2.652  0.00  0.00     0.056 A 
ENDBRANCH  12  14
ENDBRANCH   9  10
ENDBRANCH   7   9
ENDBRANCH   1   7
BRANCH   4  22
ATOM     22  C   UNL d   1      22.895 -18.549  -1.269  0.00  0.00     0.251 C 
ATOM     23  O   UNL d   1      22.924 -19.256  -2.281  0.00  0.00    -0.268 OA
ATOM     24  N   UNL d   1      21.740 -18.389  -0.527  0.00  0.00    -0.351 N 
ATOM     25  H   UNL d   1      21.729 -17.847   0.321  0.00  0.00     0.163 HD
BRANCH  24  26
ATOM     26  C   UNL d   1      20.513 -19.081  -0.881  0.00  0.00     0.187 C 
BRANCH  26  27
ATOM     27  C   UNL d   1      19.907 -19.680   0.341  0.00  0.00     0.070 A 
ATOM     28  C   UNL d   1      18.839 -20.538   0.506  0.00  0.00     0.036 A 
ATOM     29  C   UNL d   1      18.723 -20.785   1.892  0.00  0.00     0.027 A 
ATOM     30  C   UNL d   1      19.735 -20.074   2.492  0.00  0.00     0.142 A 
ATOM     31  O   UNL d   1      20.459 -19.394   1.559  0.00  0.00    -0.325 OA
ENDBRANCH  26  27
ENDBRANCH  24  26
ENDBRANCH   4  22
TORSDOF 7
ENDMDL
MODEL 8
REMARK VINA RESULT:    -7.863      2.368      3.055
REMARK INTER + INTRA:         -11.234
REMARK INTER:                  -9.951
REMARK INTRA:                  -1.284
REMARK CONF_INDEPENDENT:        2.088
REMARK UNBOUND:                -1.284
REMARK  7 active torsions:
REMARK  status: ('A' for Active; 'I' for Inactive)
REMARK    1  A    between atoms: C_2  and  C_3 
REMARK       I    between atoms: C_2  and  N_20 
REMARK    2  A    between atoms: C_3  and  N_4 
REMARK    3  A    between atoms: N_4  and  C_5 
REMARK    4  A    between atoms: C_8  and  C_9 
REMARK       I    between atoms: C_9  and  N_11 
REMARK    5  A    between atoms: N_11  and  C_12 
REMARK    6  A    between atoms: C_12  and  C_13 
REMARK    7  A    between atoms: N_20  and  C_21 
ROOT
ATOM      1  C   UNL d   1      26.485 -17.191   0.126  0.00  0.00     0.028 A 
ATOM      2  C   UNL d   1      25.882 -18.447   0.203  0.00  0.00     0.030 A 
ATOM      3  C   UNL d   1      24.530 -18.625  -0.146  0.00  0.00     0.019 A 
ATOM      4  C   UNL d   1      23.721 -17.530  -0.493  0.00  0.00     0.032 A 
ATOM      5  C   UNL d   1      24.313 -16.267  -0.529  0.00  0.00     0.019 A 
ATOM      6  C   UNL d   1      25.667 -16.104  -0.198  0.00  0.00     0.030 A 
ENDROOT
BRANCH   1   7
ATOM      7  N   UNL d   1      27.830 -17.034   0.399  0.00  0.00    -0.381 N 
ATOM      8  H   UNL d   1      28.176 -17.049   1.354  0.00  0.00     0.160 HD
BRANCH   7   9
ATOM      9  C   UNL d   1      28.789 -16.761  -0.659  0.00  0.00     0.223 C 
BRANCH   9  10
ATOM     10  C   UNL d   1      28.398 -15.565  -1.545  0.00  0.00     0.239 C 
ATOM     11  O   UNL d   1      28.048 -15.697  -2.722  0.00  0.00    -0.271 OA
ATOM     12  N   UNL d   1      28.338 -14.312  -0.959  0.00  0.00    -0.326 N 
ATOM     13  H   UNL d   1      27.875 -13.614  -1.532  0.00  0.00     0.169 HD
BRANCH  12  14
ATOM     14  C   UNL d   1      28.788 -13.932   0.319  0.00  0.00     0.036 A 
ATOM     15  C   UNL d   1      30.057 -13.365   0.470  0.00  0.00     0.032 A 
ATOM     16  C   UNL d   1      30.515 -13.015   1.748  0.00  0.00     0.046 A 
ATOM     17  C   UNL d   1      29.690 -13.187   2.858  0.00  0.00     0.138 A 
ATOM     18  F   UNL d   1      30.123 -12.790   4.062  0.00  0.00    -0.204 F 
ATOM     19  C   UNL d   1      28.444 -13.776   2.717  0.00  0.00     0.074 A 
ATOM     20 CL   UNL d   1      27.422 -14.067   4.070  0.00  0.00    -0.081 Cl
ATOM     21  C   UNL d   1      28.017 -14.179   1.457  0.00  0.00     0.056 A 
ENDBRANCH  12  14
ENDBRANCH   9  10
ENDBRANCH   7   9
ENDBRANCH   1   7
BRANCH   4  22
ATOM     22  C   UNL d   1      22.258 -17.752  -0.755  0.00  0.00     0.251 C 
ATOM     23  O   UNL d   1      21.509 -16.781  -0.897  0.00  0.00    -0.268 OA
ATOM     24  N   UNL d   1      21.794 -19.049  -0.858  0.00  0.00    -0.351 N 
ATOM     25  H   UNL d   1      22.414 -19.839  -0.784  0.00  0.00     0.163 HD
BRANCH  24  26
ATOM     26  C   UNL d   1      20.407 -19.332  -1.181  0.00  0.00     0.187 C 
BRANCH  26  27
ATOM     27  C   UNL d   1      19.715 -19.876   0.021  0.00  0.00     0.070 A 
ATOM     28  C   UNL d   1      19.950 -19.700   1.369  0.00  0.00     0.036 A 
ATOM     29  C   UNL d   1      18.969 -20.448   2.056  0.00  0.00     0.027 A 
ATOM     30  C   UNL d   1      18.184 -21.029   1.089  0.00  0.00     0.142 A 
ATOM     31  O   UNL d   1      18.631 -20.691  -0.154  0.00  0.00    -0.325 OA
ENDBRANCH  26  27
ENDBRANCH  24  26
ENDBRANCH   4  22
TORSDOF 7
ENDMDL
MODEL 9
REMARK VINA RESULT:    -7.338      3.401      4.216
REMARK INTER + INTRA:         -11.217
REMARK INTER:                  -9.427
REMARK INTRA:                  -1.790
REMARK CONF_INDEPENDENT:        2.088
REMARK UNBOUND:                -1.790
REMARK  7 active torsions:
REMARK  status: ('A' for Active; 'I' for Inactive)
REMARK    1  A    between atoms: C_2  and  C_3 
REMARK       I    between atoms: C_2  and  N_20 
REMARK    2  A    between atoms: C_3  and  N_4 
REMARK    3  A    between atoms: N_4  and  C_5 
REMARK    4  A    between atoms: C_8  and  C_9 
REMARK       I    between atoms: C_9  and  N_11 
REMARK    5  A    between atoms: N_11  and  C_12 
REMARK    6  A    between atoms: C_12  and  C_13 
REMARK    7  A    between atoms: N_20  and  C_21 
ROOT
ATOM      1  C   UNL d   1      26.354 -16.644   0.276  0.00  0.00     0.028 A 
ATOM      2  C   UNL d   1      25.484 -16.027  -0.624  0.00  0.00     0.030 A 
ATOM      3  C   UNL d   1      24.298 -16.662  -1.038  0.00  0.00     0.019 A 
ATOM      4  C   UNL d   1      23.997 -17.973  -0.630  0.00  0.00     0.032 A 
ATOM      5  C   UNL d   1      24.889 -18.606   0.238  0.00  0.00     0.019 A 
ATOM      6  C   UNL d   1      26.058 -17.956   0.659  0.00  0.00     0.030 A 
ENDROOT
BRANCH   1   7
ATOM      7  N   UNL d   1      27.479 -15.987   0.734  0.00  0.00    -0.381 N 
ATOM      8  H   UNL d   1      28.264 -16.501   1.122  0.00  0.00     0.160 HD
BRANCH   7   9
ATOM      9  C   UNL d   1      27.550 -14.534   0.757  0.00  0.00     0.223 C 
BRANCH   9  10
ATOM     10  C   UNL d   1      27.896 -13.918  -0.611  0.00  0.00     0.239 C 
ATOM     11  O   UNL d   1      27.264 -12.973  -1.091  0.00  0.00    -0.271 OA
ATOM     12  N   UNL d   1      29.025 -14.380  -1.266  0.00  0.00    -0.326 N 
ATOM     13  H   UNL d   1      29.313 -13.796  -2.045  0.00  0.00     0.169 HD
BRANCH  12  14
ATOM     14  C   UNL d   1      29.812 -15.502  -0.948  0.00  0.00     0.036 A 
ATOM     15  C   UNL d   1      29.661 -16.687  -1.673  0.00  0.00     0.032 A 
ATOM     16  C   UNL d   1      30.425 -17.813  -1.335  0.00  0.00     0.046 A 
ATOM     17  C   UNL d   1      31.367 -17.736  -0.310  0.00  0.00     0.138 A 
ATOM     18  F   UNL d   1      32.130 -18.805  -0.043  0.00  0.00    -0.204 F 
ATOM     19  C   UNL d   1      31.498 -16.574   0.431  0.00  0.00     0.074 A 
ATOM     20 CL   UNL d   1      32.601 -16.458   1.746  0.00  0.00    -0.081 Cl
ATOM     21  C   UNL d   1      30.696 -15.479   0.133  0.00  0.00     0.056 A 
ENDBRANCH  12  14
ENDBRANCH   9  10
ENDBRANCH   7   9
ENDBRANCH   1   7
BRANCH   4  22
ATOM     22  C   UNL d   1      22.773 -18.650  -1.178  0.00  0.00     0.251 C 
ATOM     23  O   UNL d   1      22.854 -19.308  -2.220  0.00  0.00    -0.268 OA
ATOM     24  N   UNL d   1      21.587 -18.539  -0.479  0.00  0.00    -0.351 N 
ATOM     25  H   UNL d   1      21.533 -18.038   0.392  0.00  0.00     0.163 HD
BRANCH  24  26
ATOM     26  C   UNL d   1      20.385 -19.228  -0.916  0.00  0.00     0.187 C 
BRANCH  26  27
ATOM     27  C   UNL d   1      19.696 -19.826   0.261  0.00  0.00     0.070 A 
ATOM     28  C   UNL d   1      18.663 -20.737   0.350  0.00  0.00     0.036 A 
ATOM     29  C   UNL d   1      18.427 -20.953   1.726  0.00  0.00     0.027 A 
ATOM     30  C   UNL d   1      19.336 -20.171   2.397  0.00  0.00     0.142 A 
ATOM     31  O   UNL d   1      20.111 -19.476   1.516  0.00  0.00    -0.325 OA
ENDBRANCH  26  27
ENDBRANCH  24  26
ENDBRANCH   4  22
TORSDOF 7
ENDMDL
