MODEL 1
REMARK VINA RESULT:    -9.729      0.000      0.000
REMARK INTER + INTRA:         -16.512
REMARK INTER:                 -14.203
REMARK INTRA:                  -2.309
REMARK CONF_INDEPENDENT:        4.474
REMARK UNBOUND:                -2.309
REMARK  15 active torsions:
REMARK  status: ('A' for Active; 'I' for Inactive)
REMARK    1  A    between atoms: C_2  and  C_3 
REMARK    2  A    between atoms: C_3  and  C_4 
REMARK    3  A    between atoms: C_6  and  C_7 
REMARK    4  A    between atoms: N_8  and  N_9 
REMARK       I    between atoms: N_9  and  C_10 
REMARK    5  A    between atoms: C_10  and  C_12 
REMARK    6  A    between atoms: C_12  and  C_13 
REMARK    7  A    between atoms: C_14  and  C_13 
REMARK    8  A    between atoms: C_14  and  C_16 
REMARK    9  A    between atoms: C_14  and  O_15 
REMARK   10  A    between atoms: C_19  and  O_20 
REMARK   11  A    between atoms: O_20  and  C_21 
REMARK   12  A    between atoms: C_26  and  O_27 
REMARK   13  A    between atoms: C_29  and  O_30 
REMARK   14  A    between atoms: O_30  and  C_31 
REMARK   15  A    between atoms: C_31  and  C_32 
ROOT
ATOM      1  C   UNL d   1      31.901 -21.193  -0.443  0.00  0.00     0.150 C 
ATOM      2  N   UNL d   1      31.227 -20.367  -1.193  0.00  0.00    -0.184 NA
ENDROOT
BRANCH   1   3
ATOM      3  C   UNL d   1      32.116 -21.195   1.026  0.00  0.00    -0.014 C 
ATOM      4  C   UNL d   1      33.262 -20.602   1.535  0.00  0.00     0.023 C 
ATOM      5  C   UNL d   1      33.394 -20.347   2.919  0.00  0.00    -0.018 C 
ATOM      6  C   UNL d   1      32.313 -20.670   3.781  0.00  0.00     0.109 C 
ATOM      7  C   UNL d   1      31.184 -21.304   3.253  0.00  0.00     0.102 C 
ATOM      8  C   UNL d   1      31.185 -21.681   1.923  0.00  0.00     0.052 C 
BRANCH   5   9
ATOM      9  C   UNL d   1      34.605 -19.578   3.383  0.00  0.00     0.068 C 
BRANCH   9  10
ATOM     10  C   UNL d   1      35.886 -20.293   3.607  0.00  0.00    -0.032 C 
ATOM     11  C   UNL d   1      36.608 -20.026   4.701  0.00  0.00     0.007 C 
ENDBRANCH   9  10
ENDBRANCH   5   9
BRANCH   6  12
ATOM     12  O   UNL d   1      32.235 -20.450   5.123  0.00  0.00    -0.343 OA
BRANCH  12  13
ATOM     13  C   UNL d   1      32.094 -21.518   6.020  0.00  0.00     0.214 C 
BRANCH  13  14
ATOM     14  C   UNL d   1      33.368 -21.900   6.678  0.00  0.00    -0.034 C 
ATOM     15  C   UNL d   1      33.781 -23.223   6.767  0.00  0.00     0.009 C 
ATOM     16  C   UNL d   1      34.909 -23.536   7.500  0.00  0.00     0.001 C 
ATOM     17  C   UNL d   1      35.695 -22.509   8.017  0.00  0.00     0.000 C 
ATOM     18  C   UNL d   1      35.333 -21.173   7.848  0.00  0.00     0.001 C 
ATOM     19  C   UNL d   1      34.162 -20.866   7.182  0.00  0.00     0.009 C 
ENDBRANCH  13  14
ENDBRANCH  12  13
ENDBRANCH   6  12
BRANCH   7  20
ATOM     20  O   UNL d   1      29.987 -21.617   3.851  0.00  0.00    -0.353 OA
ATOM     21  C   UNL d   1      28.904 -21.951   3.003  0.00  0.00     0.210 C 
ENDBRANCH   7  20
ENDBRANCH   1   3
BRANCH   2  22
ATOM     22  N   UNL d   1      30.634 -19.281  -0.634  0.00  0.00    -0.247 N 
ATOM     23  C   UNL d   1      30.445 -18.108  -1.321  0.00  0.00     0.237 C 
ATOM     24  O   UNL d   1      30.879 -17.863  -2.450  0.00  0.00    -0.272 OA
ATOM     25  H   UNL d   1      30.644 -19.189   0.371  0.00  0.00     0.192 HD
BRANCH  23  26
ATOM     26  C   UNL d   1      29.610 -17.129  -0.517  0.00  0.00     0.107 C 
BRANCH  26  27
ATOM     27  C   UNL d   1      28.166 -17.609  -0.471  0.00  0.00     0.046 C 
BRANCH  27  28
ATOM     28  C   UNL d   1      27.168 -16.500  -0.157  0.00  0.00     0.151 C 
BRANCH  28  29
ATOM     29  C   UNL d   1      25.723 -16.927  -0.352  0.00  0.00    -0.029 A 
ATOM     30  C   UNL d   1      24.752 -16.057  -0.878  0.00  0.00     0.012 A 
ATOM     31  C   UNL d   1      23.404 -16.405  -0.921  0.00  0.00     0.037 A 
ATOM     32  C   UNL d   1      23.006 -17.679  -0.545  0.00  0.00     0.068 A 
ATOM     33  C   UNL d   1      23.957 -18.568  -0.049  0.00  0.00     0.037 A 
ATOM     34  C   UNL d   1      25.295 -18.192   0.060  0.00  0.00     0.012 A 
BRANCH  32  35
ATOM     35  O   UNL d   1      21.679 -17.950  -0.726  0.00  0.00    -0.352 OA
BRANCH  35  36
ATOM     36  C   UNL d   1      21.324 -19.326  -0.627  0.00  0.00     0.171 C 
ATOM     37  C   UNL d   1      20.468 -19.515   0.608  0.00  0.00     0.034 C 
ENDBRANCH  35  36
ENDBRANCH  32  35
ENDBRANCH  28  29
BRANCH  28  38
ATOM     38  O   UNL d   1      27.404 -16.090   1.195  0.00  0.00    -0.391 OA
ATOM     39  H   UNL d   1      28.066 -16.701   1.565  0.00  0.00     0.210 HD
ENDBRANCH  28  38
ENDBRANCH  27  28
ENDBRANCH  26  27
ENDBRANCH  23  26
ENDBRANCH   2  22
TORSDOF 15
ENDMDL
MODEL 2
REMARK VINA RESULT:    -9.313      6.221     10.344
REMARK INTER + INTRA:         -17.218
REMARK INTER:                 -13.788
REMARK INTRA:                  -3.430
REMARK CONF_INDEPENDENT:        4.474
REMARK UNBOUND:                -3.430
REMARK  15 active torsions:
REMARK  status: ('A' for Active; 'I' for Inactive)
REMARK    1  A    between atoms: C_2  and  C_3 
REMARK    2  A    between atoms: C_3  and  C_4 
REMARK    3  A    between atoms: C_6  and  C_7 
REMARK    4  A    between atoms: N_8  and  N_9 
REMARK       I    between atoms: N_9  and  C_10 
REMARK    5  A    between atoms: C_10  and  C_12 
REMARK    6  A    between atoms: C_12  and  C_13 
REMARK    7  A    between atoms: C_14  and  C_13 
REMARK    8  A    between atoms: C_14  and  C_16 
REMARK    9  A    between atoms: C_14  and  O_15 
REMARK   10  A    between atoms: C_19  and  O_20 
REMARK   11  A    between atoms: O_20  and  C_21 
REMARK   12  A    between atoms: C_26  and  O_27 
REMARK   13  A    between atoms: C_29  and  O_30 
REMARK   14  A    between atoms: O_30  and  C_31 
REMARK   15  A    between atoms: C_31  and  C_32 
ROOT
ATOM      1  C   UNL d   1      30.821 -17.071  -1.812  0.00  0.00     0.150 C 
ATOM      2  N   UNL d   1      30.653 -17.092  -0.520  0.00  0.00    -0.184 NA
ENDROOT
BRANCH   1   3
ATOM      3  C   UNL d   1      29.870 -16.717  -2.896  0.00  0.00    -0.014 C 
ATOM      4  C   UNL d   1      28.794 -15.893  -2.599  0.00  0.00     0.023 C 
ATOM      5  C   UNL d   1      28.014 -15.320  -3.628  0.00  0.00    -0.018 C 
ATOM      6  C   UNL d   1      28.373 -15.568  -4.980  0.00  0.00     0.109 C 
ATOM      7  C   UNL d   1      29.436 -16.434  -5.256  0.00  0.00     0.102 C 
ATOM      8  C   UNL d   1      30.052 -17.097  -4.211  0.00  0.00     0.052 C 
BRANCH   5   9
ATOM      9  C   UNL d   1      26.948 -14.329  -3.237  0.00  0.00     0.068 C 
BRANCH   9  10
ATOM     10  C   UNL d   1      25.518 -14.687  -3.402  0.00  0.00    -0.032 C 
ATOM     11  C   UNL d   1      24.663 -13.782  -3.893  0.00  0.00     0.007 C 
ENDBRANCH   9  10
ENDBRANCH   5   9
BRANCH   6  12
ATOM     12  O   UNL d   1      27.780 -15.063  -6.097  0.00  0.00    -0.343 OA
BRANCH  12  13
ATOM     13  C   UNL d   1      27.781 -13.685  -6.352  0.00  0.00     0.214 C 
BRANCH  13  14
ATOM     14  C   UNL d   1      28.785 -13.279  -7.367  0.00  0.00    -0.034 C 
ATOM     15  C   UNL d   1      30.129 -13.606  -7.242  0.00  0.00     0.009 C 
ATOM     16  C   UNL d   1      31.040 -13.096  -8.146  0.00  0.00     0.001 C 
ATOM     17  C   UNL d   1      30.581 -12.381  -9.251  0.00  0.00     0.000 C 
ATOM     18  C   UNL d   1      29.220 -12.132  -9.429  0.00  0.00     0.001 C 
ATOM     19  C   UNL d   1      28.318 -12.576  -8.481  0.00  0.00     0.009 C 
ENDBRANCH  13  14
ENDBRANCH  12  13
ENDBRANCH   6  12
BRANCH   7  20
ATOM     20  O   UNL d   1      30.032 -16.745  -6.455  0.00  0.00    -0.353 OA
ATOM     21  C   UNL d   1      30.884 -17.874  -6.484  0.00  0.00     0.210 C 
ENDBRANCH   7  20
ENDBRANCH   1   3
BRANCH   2  22
ATOM     22  N   UNL d   1      29.433 -16.806   0.006  0.00  0.00    -0.247 N 
ATOM     23  C   UNL d   1      29.117 -15.567   0.504  0.00  0.00     0.237 C 
ATOM     24  O   UNL d   1      29.906 -14.628   0.639  0.00  0.00    -0.272 OA
ATOM     25  H   UNL d   1      28.871 -17.564   0.363  0.00  0.00     0.192 HD
BRANCH  23  26
ATOM     26  C   UNL d   1      27.646 -15.480   0.865  0.00  0.00     0.107 C 
BRANCH  26  27
ATOM     27  C   UNL d   1      26.818 -16.200  -0.191  0.00  0.00     0.046 C 
BRANCH  27  28
ATOM     28  C   UNL d   1      26.184 -17.491   0.313  0.00  0.00     0.151 C 
BRANCH  28  29
ATOM     29  C   UNL d   1      24.746 -17.667  -0.147  0.00  0.00    -0.029 A 
ATOM     30  C   UNL d   1      23.942 -16.575  -0.519  0.00  0.00     0.012 A 
ATOM     31  C   UNL d   1      22.587 -16.727  -0.803  0.00  0.00     0.037 A 
ATOM     32  C   UNL d   1      22.025 -17.994  -0.834  0.00  0.00     0.068 A 
ATOM     33  C   UNL d   1      22.811 -19.094  -0.498  0.00  0.00     0.037 A 
ATOM     34  C   UNL d   1      24.150 -18.930  -0.145  0.00  0.00     0.012 A 
BRANCH  32  35
ATOM     35  O   UNL d   1      20.716 -18.039  -1.226  0.00  0.00    -0.352 OA
BRANCH  35  36
ATOM     36  C   UNL d   1      20.108 -19.325  -1.157  0.00  0.00     0.171 C 
ATOM     37  C   UNL d   1      19.575 -19.533   0.245  0.00  0.00     0.034 C 
ENDBRANCH  35  36
ENDBRANCH  32  35
ENDBRANCH  28  29
BRANCH  28  38
ATOM     38  O   UNL d   1      27.004 -18.572  -0.144  0.00  0.00    -0.391 OA
ATOM     39  H   UNL d   1      27.693 -18.710   0.529  0.00  0.00     0.210 HD
ENDBRANCH  28  38
ENDBRANCH  27  28
ENDBRANCH  26  27
ENDBRANCH  23  26
ENDBRANCH   2  22
TORSDOF 15
ENDMDL
MODEL 3
REMARK VINA RESULT:    -8.777      6.513      9.678
REMARK INTER + INTRA:         -16.612
REMARK INTER:                 -13.251
REMARK INTRA:                  -3.360
REMARK CONF_INDEPENDENT:        4.474
REMARK UNBOUND:                -3.360
REMARK  15 active torsions:
REMARK  status: ('A' for Active; 'I' for Inactive)
REMARK    1  A    between atoms: C_2  and  C_3 
REMARK    2  A    between atoms: C_3  and  C_4 
REMARK    3  A    between atoms: C_6  and  C_7 
REMARK    4  A    between atoms: N_8  and  N_9 
REMARK       I    between atoms: N_9  and  C_10 
REMARK    5  A    between atoms: C_10  and  C_12 
REMARK    6  A    between atoms: C_12  and  C_13 
REMARK    7  A    between atoms: C_14  and  C_13 
REMARK    8  A    between atoms: C_14  and  C_16 
REMARK    9  A    between atoms: C_14  and  O_15 
REMARK   10  A    between atoms: C_19  and  O_20 
REMARK   11  A    between atoms: O_20  and  C_21 
REMARK   12  A    between atoms: C_26  and  O_27 
REMARK   13  A    between atoms: C_29  and  O_30 
REMARK   14  A    between atoms: O_30  and  C_31 
REMARK   15  A    between atoms: C_31  and  C_32 
ROOT
ATOM      1  C   UNL d   1      25.897 -14.547  -4.831  0.00  0.00     0.150 C 
ATOM      2  N   UNL d   1      25.155 -14.679  -3.768  0.00  0.00    -0.184 NA
ENDROOT
BRANCH   1   3
ATOM      3  C   UNL d   1      27.364 -14.708  -5.001  0.00  0.00    -0.014 C 
ATOM      4  C   UNL d   1      28.044 -15.575  -4.158  0.00  0.00     0.023 C 
ATOM      5  C   UNL d   1      29.375 -15.961  -4.435  0.00  0.00    -0.018 C 
ATOM      6  C   UNL d   1      29.997 -15.479  -5.617  0.00  0.00     0.109 C 
ATOM      7  C   UNL d   1      29.308 -14.574  -6.431  0.00  0.00     0.102 C 
ATOM      8  C   UNL d   1      28.075 -14.103  -6.019  0.00  0.00     0.052 C 
BRANCH   5   9
ATOM      9  C   UNL d   1      30.004 -17.008  -3.552  0.00  0.00     0.068 C 
BRANCH   9  10
ATOM     10  C   UNL d   1      30.400 -16.658  -2.166  0.00  0.00    -0.032 C 
ATOM     11  C   UNL d   1      29.771 -17.232  -1.134  0.00  0.00     0.007 C 
ENDBRANCH   9  10
ENDBRANCH   5   9
BRANCH   6  12
ATOM     12  O   UNL d   1      31.242 -15.782  -6.075  0.00  0.00    -0.343 OA
BRANCH  12  13
ATOM     13  C   UNL d   1      31.421 -16.393  -7.324  0.00  0.00     0.214 C 
BRANCH  13  14
ATOM     14  C   UNL d   1      31.203 -17.861  -7.293  0.00  0.00    -0.034 C 
ATOM     15  C   UNL d   1      30.722 -18.508  -6.162  0.00  0.00     0.009 C 
ATOM     16  C   UNL d   1      30.658 -19.888  -6.144  0.00  0.00     0.001 C 
ATOM     17  C   UNL d   1      30.938 -20.601  -7.308  0.00  0.00     0.000 C 
ATOM     18  C   UNL d   1      31.330 -19.945  -8.475  0.00  0.00     0.001 C 
ATOM     19  C   UNL d   1      31.469 -18.571  -8.467  0.00  0.00     0.009 C 
ENDBRANCH  13  14
ENDBRANCH  12  13
ENDBRANCH   6  12
BRANCH   7  20
ATOM     20  O   UNL d   1      29.646 -14.057  -7.658  0.00  0.00    -0.353 OA
ATOM     21  C   UNL d   1      29.241 -12.730  -7.938  0.00  0.00     0.210 C 
ENDBRANCH   7  20
ENDBRANCH   1   3
BRANCH   2  22
ATOM     22  N   UNL d   1      25.735 -14.961  -2.572  0.00  0.00    -0.247 N 
ATOM     23  C   UNL d   1      26.520 -14.057  -1.901  0.00  0.00     0.237 C 
ATOM     24  O   UNL d   1      26.880 -12.960  -2.338  0.00  0.00    -0.272 OA
ATOM     25  H   UNL d   1      25.896 -15.927  -2.329  0.00  0.00     0.192 HD
BRANCH  23  26
ATOM     26  C   UNL d   1      26.892 -14.569  -0.523  0.00  0.00     0.107 C 
BRANCH  26  27
ATOM     27  C   UNL d   1      25.697 -15.283   0.095  0.00  0.00     0.046 C 
BRANCH  27  28
ATOM     28  C   UNL d   1      25.720 -16.793  -0.115  0.00  0.00     0.151 C 
BRANCH  28  29
ATOM     29  C   UNL d   1      24.334 -17.389  -0.302  0.00  0.00    -0.029 A 
ATOM     30  C   UNL d   1      24.096 -18.772  -0.207  0.00  0.00     0.012 A 
ATOM     31  C   UNL d   1      22.857 -19.324  -0.520  0.00  0.00     0.037 A 
ATOM     32  C   UNL d   1      21.788 -18.496  -0.825  0.00  0.00     0.068 A 
ATOM     33  C   UNL d   1      21.993 -17.120  -0.895  0.00  0.00     0.037 A 
ATOM     34  C   UNL d   1      23.254 -16.575  -0.651  0.00  0.00     0.012 A 
BRANCH  32  35
ATOM     35  O   UNL d   1      20.594 -19.134  -1.011  0.00  0.00    -0.352 OA
BRANCH  35  36
ATOM     36  C   UNL d   1      20.282 -20.128  -0.039  0.00  0.00     0.171 C 
ATOM     37  C   UNL d   1      18.776 -20.222   0.090  0.00  0.00     0.034 C 
ENDBRANCH  35  36
ENDBRANCH  32  35
ENDBRANCH  28  29
BRANCH  28  38
ATOM     38  O   UNL d   1      26.547 -17.049  -1.255  0.00  0.00    -0.391 OA
ATOM     39  H   UNL d   1      27.470 -16.987  -0.956  0.00  0.00     0.210 HD
ENDBRANCH  28  38
ENDBRANCH  27  28
ENDBRANCH  26  27
ENDBRANCH  23  26
ENDBRANCH   2  22
TORSDOF 15
ENDMDL
MODEL 4
REMARK VINA RESULT:    -8.701      6.227     11.224
REMARK INTER + INTRA:         -16.886
REMARK INTER:                 -13.176
REMARK INTRA:                  -3.710
REMARK CONF_INDEPENDENT:        4.474
REMARK UNBOUND:                -3.710
REMARK  15 active torsions:
REMARK  status: ('A' for Active; 'I' for Inactive)
REMARK    1  A    between atoms: C_2  and  C_3 
REMARK    2  A    between atoms: C_3  and  C_4 
REMARK    3  A    between atoms: C_6  and  C_7 
REMARK    4  A    between atoms: N_8  and  N_9 
REMARK       I    between atoms: N_9  and  C_10 
REMARK    5  A    between atoms: C_10  and  C_12 
REMARK    6  A    between atoms: C_12  and  C_13 
REMARK    7  A    between atoms: C_14  and  C_13 
REMARK    8  A    between atoms: C_14  and  C_16 
REMARK    9  A    between atoms: C_14  and  O_15 
REMARK   10  A    between atoms: C_19  and  O_20 
REMARK   11  A    between atoms: O_20  and  C_21 
REMARK   12  A    between atoms: C_26  and  O_27 
REMARK   13  A    between atoms: C_29  and  O_30 
REMARK   14  A    between atoms: O_30  and  C_31 
REMARK   15  A    between atoms: C_31  and  C_32 
ROOT
ATOM      1  C   UNL d   1      29.874 -16.392  -1.566  0.00  0.00     0.150 C 
ATOM      2  N   UNL d   1      30.151 -16.022  -0.347  0.00  0.00    -0.184 NA
ENDROOT
BRANCH   1   3
ATOM      3  C   UNL d   1      28.603 -16.299  -2.329  0.00  0.00    -0.014 C 
ATOM      4  C   UNL d   1      27.402 -16.364  -1.639  0.00  0.00     0.023 C 
ATOM      5  C   UNL d   1      26.184 -16.026  -2.270  0.00  0.00    -0.018 C 
ATOM      6  C   UNL d   1      26.211 -15.575  -3.616  0.00  0.00     0.109 C 
ATOM      7  C   UNL d   1      27.428 -15.556  -4.305  0.00  0.00     0.102 C 
ATOM      8  C   UNL d   1      28.558 -16.059  -3.688  0.00  0.00     0.052 C 
BRANCH   5   9
ATOM      9  C   UNL d   1      24.937 -15.988  -1.423  0.00  0.00     0.068 C 
BRANCH   9  10
ATOM     10  C   UNL d   1      24.591 -17.156  -0.575  0.00  0.00    -0.032 C 
ATOM     11  C   UNL d   1      23.305 -17.451  -0.351  0.00  0.00     0.007 C 
ENDBRANCH   9  10
ENDBRANCH   5   9
BRANCH   6  12
ATOM     12  O   UNL d   1      25.155 -15.157  -4.367  0.00  0.00    -0.343 OA
BRANCH  12  13
ATOM     13  C   UNL d   1      24.552 -13.914  -4.131  0.00  0.00     0.214 C 
BRANCH  13  14
ATOM     14  C   UNL d   1      25.530 -12.827  -3.878  0.00  0.00    -0.034 C 
ATOM     15  C   UNL d   1      26.082 -12.613  -2.621  0.00  0.00     0.009 C 
ATOM     16  C   UNL d   1      26.888 -11.511  -2.411  0.00  0.00     0.001 C 
ATOM     17  C   UNL d   1      27.253 -10.713  -3.494  0.00  0.00     0.000 C 
ATOM     18  C   UNL d   1      26.775 -10.983  -4.777  0.00  0.00     0.001 C 
ATOM     19  C   UNL d   1      25.905 -12.039  -4.970  0.00  0.00     0.009 C 
ENDBRANCH  13  14
ENDBRANCH  12  13
ENDBRANCH   6  12
BRANCH   7  20
ATOM     20  O   UNL d   1      27.725 -15.072  -5.556  0.00  0.00    -0.353 OA
ATOM     21  C   UNL d   1      28.712 -14.061  -5.644  0.00  0.00     0.210 C 
ENDBRANCH   7  20
ENDBRANCH   1   3
BRANCH   2  22
ATOM     22  N   UNL d   1      29.173 -15.501   0.438  0.00  0.00    -0.247 N 
ATOM     23  C   UNL d   1      28.616 -14.270   0.205  0.00  0.00     0.237 C 
ATOM     24  O   UNL d   1      29.000 -13.461  -0.645  0.00  0.00    -0.272 OA
ATOM     25  H   UNL d   1      29.088 -15.834   1.387  0.00  0.00     0.192 HD
BRANCH  23  26
ATOM     26  C   UNL d   1      27.437 -14.016   1.125  0.00  0.00     0.107 C 
BRANCH  26  27
ATOM     27  C   UNL d   1      27.780 -14.483   2.533  0.00  0.00     0.046 C 
BRANCH  27  28
ATOM     28  C   UNL d   1      29.005 -13.791   3.119  0.00  0.00     0.151 C 
BRANCH  28  29
ATOM     29  C   UNL d   1      28.846 -13.444   4.590  0.00  0.00    -0.029 A 
ATOM     30  C   UNL d   1      29.203 -14.341   5.612  0.00  0.00     0.012 A 
ATOM     31  C   UNL d   1      28.923 -14.075   6.951  0.00  0.00     0.037 A 
ATOM     32  C   UNL d   1      28.382 -12.851   7.314  0.00  0.00     0.068 A 
ATOM     33  C   UNL d   1      28.048 -11.934   6.320  0.00  0.00     0.037 A 
ATOM     34  C   UNL d   1      28.264 -12.233   4.975  0.00  0.00     0.012 A 
BRANCH  32  35
ATOM     35  O   UNL d   1      28.247 -12.653   8.659  0.00  0.00    -0.352 OA
BRANCH  35  36
ATOM     36  C   UNL d   1      29.054 -13.494   9.479  0.00  0.00     0.171 C 
ATOM     37  C   UNL d   1      28.147 -14.300  10.384  0.00  0.00     0.034 C 
ENDBRANCH  35  36
ENDBRANCH  32  35
ENDBRANCH  28  29
BRANCH  28  38
ATOM     38  O   UNL d   1      30.122 -14.664   2.917  0.00  0.00    -0.391 OA
ATOM     39  H   UNL d   1      29.781 -15.575   2.961  0.00  0.00     0.210 HD
ENDBRANCH  28  38
ENDBRANCH  27  28
ENDBRANCH  26  27
ENDBRANCH  23  26
ENDBRANCH   2  22
TORSDOF 15
ENDMDL
MODEL 5
REMARK VINA RESULT:    -8.322      7.405      9.995
REMARK INTER + INTRA:         -16.521
REMARK INTER:                 -12.797
REMARK INTRA:                  -3.724
REMARK CONF_INDEPENDENT:        4.474
REMARK UNBOUND:                -3.724
REMARK  15 active torsions:
REMARK  status: ('A' for Active; 'I' for Inactive)
REMARK    1  A    between atoms: C_2  and  C_3 
REMARK    2  A    between atoms: C_3  and  C_4 
REMARK    3  A    between atoms: C_6  and  C_7 
REMARK    4  A    between atoms: N_8  and  N_9 
REMARK       I    between atoms: N_9  and  C_10 
REMARK    5  A    between atoms: C_10  and  C_12 
REMARK    6  A    between atoms: C_12  and  C_13 
REMARK    7  A    between atoms: C_14  and  C_13 
REMARK    8  A    between atoms: C_14  and  C_16 
REMARK    9  A    between atoms: C_14  and  O_15 
REMARK   10  A    between atoms: C_19  and  O_20 
REMARK   11  A    between atoms: O_20  and  C_21 
REMARK   12  A    between atoms: C_26  and  O_27 
REMARK   13  A    between atoms: C_29  and  O_30 
REMARK   14  A    between atoms: O_30  and  C_31 
REMARK   15  A    between atoms: C_31  and  C_32 
ROOT
ATOM      1  C   UNL d   1      25.172 -13.914  -4.313  0.00  0.00     0.150 C 
ATOM      2  N   UNL d   1      24.772 -14.212  -3.108  0.00  0.00    -0.184 NA
ENDROOT
BRANCH   1   3
ATOM      3  C   UNL d   1      26.460 -14.201  -4.992  0.00  0.00    -0.014 C 
ATOM      4  C   UNL d   1      27.033 -13.217  -5.784  0.00  0.00     0.023 C 
ATOM      5  C   UNL d   1      28.365 -13.336  -6.240  0.00  0.00    -0.018 C 
ATOM      6  C   UNL d   1      29.129 -14.464  -5.839  0.00  0.00     0.109 C 
ATOM      7  C   UNL d   1      28.519 -15.465  -5.075  0.00  0.00     0.102 C 
ATOM      8  C   UNL d   1      27.167 -15.373  -4.804  0.00  0.00     0.052 C 
BRANCH   5   9
ATOM      9  C   UNL d   1      28.965 -12.168  -6.980  0.00  0.00     0.068 C 
BRANCH   9  10
ATOM     10  C   UNL d   1      28.396 -11.758  -8.288  0.00  0.00    -0.032 C 
ATOM     11  C   UNL d   1      28.507 -12.575  -9.342  0.00  0.00     0.007 C 
ENDBRANCH   9  10
ENDBRANCH   5   9
BRANCH   6  12
ATOM     12  O   UNL d   1      30.433 -14.723  -6.131  0.00  0.00    -0.343 OA
BRANCH  12  13
ATOM     13  C   UNL d   1      30.780 -15.714  -7.059  0.00  0.00     0.214 C 
BRANCH  13  14
ATOM     14  C   UNL d   1      31.126 -17.012  -6.428  0.00  0.00    -0.034 C 
ATOM     15  C   UNL d   1      32.052 -17.103  -5.397  0.00  0.00     0.009 C 
ATOM     16  C   UNL d   1      32.431 -18.347  -4.932  0.00  0.00     0.001 C 
ATOM     17  C   UNL d   1      31.775 -19.483  -5.403  0.00  0.00     0.000 C 
ATOM     18  C   UNL d   1      30.777 -19.385  -6.372  0.00  0.00     0.001 C 
ATOM     19  C   UNL d   1      30.454 -18.146  -6.892  0.00  0.00     0.009 C 
ENDBRANCH  13  14
ENDBRANCH  12  13
ENDBRANCH   6  12
BRANCH   7  20
ATOM     20  O   UNL d   1      29.064 -16.580  -4.486  0.00  0.00    -0.353 OA
ATOM     21  C   UNL d   1      29.535 -16.449  -3.158  0.00  0.00     0.210 C 
ENDBRANCH   7  20
ENDBRANCH   1   3
BRANCH   2  22
ATOM     22  N   UNL d   1      25.619 -14.842  -2.254  0.00  0.00    -0.247 N 
ATOM     23  C   UNL d   1      26.664 -14.198  -1.641  0.00  0.00     0.237 C 
ATOM     24  O   UNL d   1      27.023 -13.039  -1.870  0.00  0.00    -0.272 OA
ATOM     25  H   UNL d   1      25.720 -15.844  -2.325  0.00  0.00     0.192 HD
BRANCH  23  26
ATOM     26  C   UNL d   1      27.335 -15.091  -0.615  0.00  0.00     0.107 C 
BRANCH  26  27
ATOM     27  C   UNL d   1      26.273 -15.784   0.229  0.00  0.00     0.046 C 
BRANCH  27  28
ATOM     28  C   UNL d   1      25.948 -17.196  -0.247  0.00  0.00     0.151 C 
BRANCH  28  29
ATOM     29  C   UNL d   1      24.457 -17.439  -0.413  0.00  0.00    -0.029 A 
ATOM     30  C   UNL d   1      23.918 -18.734  -0.511  0.00  0.00     0.012 A 
ATOM     31  C   UNL d   1      22.573 -18.947  -0.805  0.00  0.00     0.037 A 
ATOM     32  C   UNL d   1      21.706 -17.869  -0.894  0.00  0.00     0.068 A 
ATOM     33  C   UNL d   1      22.213 -16.577  -0.770  0.00  0.00     0.037 A 
ATOM     34  C   UNL d   1      23.574 -16.365  -0.547  0.00  0.00     0.012 A 
BRANCH  32  35
ATOM     35  O   UNL d   1      20.392 -18.195  -1.079  0.00  0.00    -0.352 OA
BRANCH  35  36
ATOM     36  C   UNL d   1      20.060 -19.551  -0.798  0.00  0.00     0.171 C 
ATOM     37  C   UNL d   1      19.534 -19.636   0.618  0.00  0.00     0.034 C 
ENDBRANCH  35  36
ENDBRANCH  32  35
ENDBRANCH  28  29
BRANCH  28  38
ATOM     38  O   UNL d   1      26.640 -17.394  -1.485  0.00  0.00    -0.391 OA
ATOM     39  H   UNL d   1      27.592 -17.404  -1.280  0.00  0.00     0.210 HD
ENDBRANCH  28  38
ENDBRANCH  27  28
ENDBRANCH  26  27
ENDBRANCH  23  26
ENDBRANCH   2  22
TORSDOF 15
ENDMDL
MODEL 6
REMARK VINA RESULT:    -8.243      6.159      9.794
REMARK INTER + INTRA:         -16.706
REMARK INTER:                 -12.718
REMARK INTRA:                  -3.988
REMARK CONF_INDEPENDENT:        4.474
REMARK UNBOUND:                -3.988
REMARK  15 active torsions:
REMARK  status: ('A' for Active; 'I' for Inactive)
REMARK    1  A    between atoms: C_2  and  C_3 
REMARK    2  A    between atoms: C_3  and  C_4 
REMARK    3  A    between atoms: C_6  and  C_7 
REMARK    4  A    between atoms: N_8  and  N_9 
REMARK       I    between atoms: N_9  and  C_10 
REMARK    5  A    between atoms: C_10  and  C_12 
REMARK    6  A    between atoms: C_12  and  C_13 
REMARK    7  A    between atoms: C_14  and  C_13 
REMARK    8  A    between atoms: C_14  and  C_16 
REMARK    9  A    between atoms: C_14  and  O_15 
REMARK   10  A    between atoms: C_19  and  O_20 
REMARK   11  A    between atoms: O_20  and  C_21 
REMARK   12  A    between atoms: C_26  and  O_27 
REMARK   13  A    between atoms: C_29  and  O_30 
REMARK   14  A    between atoms: O_30  and  C_31 
REMARK   15  A    between atoms: C_31  and  C_32 
ROOT
ATOM      1  C   UNL d   1      30.848 -16.920  -1.626  0.00  0.00     0.150 C 
ATOM      2  N   UNL d   1      30.722 -16.911  -0.328  0.00  0.00    -0.184 NA
ENDROOT
BRANCH   1   3
ATOM      3  C   UNL d   1      29.840 -16.672  -2.687  0.00  0.00    -0.014 C 
ATOM      4  C   UNL d   1      28.612 -16.134  -2.331  0.00  0.00     0.023 C 
ATOM      5  C   UNL d   1      27.723 -15.641  -3.312  0.00  0.00    -0.018 C 
ATOM      6  C   UNL d   1      28.124 -15.665  -4.675  0.00  0.00     0.109 C 
ATOM      7  C   UNL d   1      29.349 -16.248  -5.016  0.00  0.00     0.102 C 
ATOM      8  C   UNL d   1      30.097 -16.866  -4.030  0.00  0.00     0.052 C 
BRANCH   5   9
ATOM      9  C   UNL d   1      26.469 -14.949  -2.845  0.00  0.00     0.068 C 
BRANCH   9  10
ATOM     10  C   UNL d   1      26.562 -13.614  -2.204  0.00  0.00    -0.032 C 
ATOM     11  C   UNL d   1      27.612 -13.327  -1.426  0.00  0.00     0.007 C 
ENDBRANCH   9  10
ENDBRANCH   5   9
BRANCH   6  12
ATOM     12  O   UNL d   1      27.433 -15.189  -5.746  0.00  0.00    -0.343 OA
BRANCH  12  13
ATOM     13  C   UNL d   1      27.833 -14.014  -6.397  0.00  0.00     0.214 C 
BRANCH  13  14
ATOM     14  C   UNL d   1      27.613 -12.792  -5.585  0.00  0.00    -0.034 C 
ATOM     15  C   UNL d   1      26.427 -12.070  -5.649  0.00  0.00     0.009 C 
ATOM     16  C   UNL d   1      26.322 -10.873  -4.970  0.00  0.00     0.001 C 
ATOM     17  C   UNL d   1      27.351 -10.477  -4.117  0.00  0.00     0.000 C 
ATOM     18  C   UNL d   1      28.504 -11.248  -3.978  0.00  0.00     0.001 C 
ATOM     19  C   UNL d   1      28.640 -12.407  -4.718  0.00  0.00     0.009 C 
ENDBRANCH  13  14
ENDBRANCH  12  13
ENDBRANCH   6  12
BRANCH   7  20
ATOM     20  O   UNL d   1      29.996 -16.298  -6.227  0.00  0.00    -0.353 OA
ATOM     21  C   UNL d   1      30.610 -17.521  -6.586  0.00  0.00     0.210 C 
ENDBRANCH   7  20
ENDBRANCH   1   3
BRANCH   2  22
ATOM     22  N   UNL d   1      29.503 -16.695   0.229  0.00  0.00    -0.247 N 
ATOM     23  C   UNL d   1      29.153 -15.497   0.799  0.00  0.00     0.237 C 
ATOM     24  O   UNL d   1      29.913 -14.541   0.975  0.00  0.00    -0.272 OA
ATOM     25  H   UNL d   1      28.972 -17.490   0.551  0.00  0.00     0.192 HD
BRANCH  23  26
ATOM     26  C   UNL d   1      27.686 -15.479   1.185  0.00  0.00     0.107 C 
BRANCH  26  27
ATOM     27  C   UNL d   1      26.857 -16.091   0.063  0.00  0.00     0.046 C 
BRANCH  27  28
ATOM     28  C   UNL d   1      26.275 -17.455   0.416  0.00  0.00     0.151 C 
BRANCH  28  29
ATOM     29  C   UNL d   1      24.843 -17.632  -0.062  0.00  0.00    -0.029 A 
ATOM     30  C   UNL d   1      24.023 -16.538  -0.388  0.00  0.00     0.012 A 
ATOM     31  C   UNL d   1      22.672 -16.698  -0.687  0.00  0.00     0.037 A 
ATOM     32  C   UNL d   1      22.132 -17.971  -0.781  0.00  0.00     0.068 A 
ATOM     33  C   UNL d   1      22.933 -19.073  -0.492  0.00  0.00     0.037 A 
ATOM     34  C   UNL d   1      24.268 -18.904  -0.122  0.00  0.00     0.012 A 
BRANCH  32  35
ATOM     35  O   UNL d   1      20.827 -18.019  -1.184  0.00  0.00    -0.352 OA
BRANCH  35  36
ATOM     36  C   UNL d   1      20.270 -19.327  -1.278  0.00  0.00     0.171 C 
ATOM     37  C   UNL d   1      19.532 -19.631   0.008  0.00  0.00     0.034 C 
ENDBRANCH  35  36
ENDBRANCH  32  35
ENDBRANCH  28  29
BRANCH  28  38
ATOM     38  O   UNL d   1      27.134 -18.444  -0.163  0.00  0.00    -0.391 OA
ATOM     39  H   UNL d   1      27.729 -18.751   0.544  0.00  0.00     0.210 HD
ENDBRANCH  28  38
ENDBRANCH  27  28
ENDBRANCH  26  27
ENDBRANCH  23  26
ENDBRANCH   2  22
TORSDOF 15
ENDMDL
MODEL 7
REMARK VINA RESULT:    -7.322      5.767     10.229
REMARK INTER + INTRA:         -16.664
REMARK INTER:                 -11.797
REMARK INTRA:                  -4.867
REMARK CONF_INDEPENDENT:        4.474
REMARK UNBOUND:                -4.867
REMARK  15 active torsions:
REMARK  status: ('A' for Active; 'I' for Inactive)
REMARK    1  A    between atoms: C_2  and  C_3 
REMARK    2  A    between atoms: C_3  and  C_4 
REMARK    3  A    between atoms: C_6  and  C_7 
REMARK    4  A    between atoms: N_8  and  N_9 
REMARK       I    between atoms: N_9  and  C_10 
REMARK    5  A    between atoms: C_10  and  C_12 
REMARK    6  A    between atoms: C_12  and  C_13 
REMARK    7  A    between atoms: C_14  and  C_13 
REMARK    8  A    between atoms: C_14  and  C_16 
REMARK    9  A    between atoms: C_14  and  O_15 
REMARK   10  A    between atoms: C_19  and  O_20 
REMARK   11  A    between atoms: O_20  and  C_21 
REMARK   12  A    between atoms: C_26  and  O_27 
REMARK   13  A    between atoms: C_29  and  O_30 
REMARK   14  A    between atoms: O_30  and  C_31 
REMARK   15  A    between atoms: C_31  and  C_32 
ROOT
ATOM      1  C   UNL d   1      30.461 -17.530  -0.408  0.00  0.00     0.150 C 
ATOM      2  N   UNL d   1      31.354 -17.011   0.387  0.00  0.00    -0.184 NA
ENDROOT
BRANCH   1   3
ATOM      3  C   UNL d   1      29.089 -17.068  -0.739  0.00  0.00    -0.014 C 
ATOM      4  C   UNL d   1      28.008 -17.828  -0.318  0.00  0.00     0.023 C 
ATOM      5  C   UNL d   1      26.693 -17.314  -0.376  0.00  0.00    -0.018 C 
ATOM      6  C   UNL d   1      26.496 -15.985  -0.835  0.00  0.00     0.109 C 
ATOM      7  C   UNL d   1      27.595 -15.251  -1.293  0.00  0.00     0.102 C 
ATOM      8  C   UNL d   1      28.830 -15.868  -1.370  0.00  0.00     0.052 C 
BRANCH   5   9
ATOM      9  C   UNL d   1      25.585 -18.142   0.223  0.00  0.00     0.068 C 
BRANCH   9  10
ATOM     10  C   UNL d   1      24.176 -17.857  -0.145  0.00  0.00    -0.032 C 
ATOM     11  C   UNL d   1      23.372 -18.863  -0.509  0.00  0.00     0.007 C 
ENDBRANCH   9  10
ENDBRANCH   5   9
BRANCH   6  12
ATOM     12  O   UNL d   1      25.320 -15.304  -0.909  0.00  0.00    -0.343 OA
BRANCH  12  13
ATOM     13  C   UNL d   1      24.553 -15.318  -2.083  0.00  0.00     0.214 C 
BRANCH  13  14
ATOM     14  C   UNL d   1      25.268 -14.758  -3.256  0.00  0.00    -0.034 C 
ATOM     15  C   UNL d   1      25.904 -15.571  -4.186  0.00  0.00     0.009 C 
ATOM     16  C   UNL d   1      26.661 -14.996  -5.187  0.00  0.00     0.001 C 
ATOM     17  C   UNL d   1      26.660 -13.611  -5.337  0.00  0.00     0.000 C 
ATOM     18  C   UNL d   1      25.944 -12.795  -4.460  0.00  0.00     0.001 C 
ATOM     19  C   UNL d   1      25.250 -13.369  -3.412  0.00  0.00     0.009 C 
ENDBRANCH  13  14
ENDBRANCH  12  13
ENDBRANCH   6  12
BRANCH   7  20
ATOM     20  O   UNL d   1      27.678 -13.935  -1.679  0.00  0.00    -0.353 OA
ATOM     21  C   UNL d   1      28.866 -13.522  -2.328  0.00  0.00     0.210 C 
ENDBRANCH   7  20
ENDBRANCH   1   3
BRANCH   2  22
ATOM     22  N   UNL d   1      31.052 -15.898   1.104  0.00  0.00    -0.247 N 
ATOM     23  C   UNL d   1      31.122 -14.636   0.572  0.00  0.00     0.237 C 
ATOM     24  O   UNL d   1      31.564 -14.355  -0.546  0.00  0.00    -0.272 OA
ATOM     25  H   UNL d   1      31.117 -15.940   2.110  0.00  0.00     0.192 HD
BRANCH  23  26
ATOM     26  C   UNL d   1      30.569 -13.602   1.534  0.00  0.00     0.107 C 
BRANCH  26  27
ATOM     27  C   UNL d   1      29.171 -13.191   1.091  0.00  0.00     0.046 C 
BRANCH  27  28
ATOM     28  C   UNL d   1      28.061 -13.971   1.787  0.00  0.00     0.151 C 
BRANCH  28  29
ATOM     29  C   UNL d   1      28.030 -13.749   3.290  0.00  0.00    -0.029 A 
ATOM     30  C   UNL d   1      27.949 -12.463   3.854  0.00  0.00     0.012 A 
ATOM     31  C   UNL d   1      28.065 -12.257   5.226  0.00  0.00     0.037 A 
ATOM     32  C   UNL d   1      28.149 -13.344   6.084  0.00  0.00     0.068 A 
ATOM     33  C   UNL d   1      28.200 -14.629   5.549  0.00  0.00     0.037 A 
ATOM     34  C   UNL d   1      28.156 -14.827   4.169  0.00  0.00     0.012 A 
BRANCH  32  35
ATOM     35  O   UNL d   1      28.151 -13.034   7.415  0.00  0.00    -0.352 OA
BRANCH  35  36
ATOM     36  C   UNL d   1      29.222 -13.598   8.165  0.00  0.00     0.171 C 
ATOM     37  C   UNL d   1      28.819 -13.643   9.624  0.00  0.00     0.034 C 
ENDBRANCH  35  36
ENDBRANCH  32  35
ENDBRANCH  28  29
BRANCH  28  38
ATOM     38  O   UNL d   1      26.824 -13.574   1.185  0.00  0.00    -0.391 OA
ATOM     39  H   UNL d   1      26.785 -13.998   0.310  0.00  0.00     0.210 HD
ENDBRANCH  28  38
ENDBRANCH  27  28
ENDBRANCH  26  27
ENDBRANCH  23  26
ENDBRANCH   2  22
TORSDOF 15
ENDMDL
MODEL 8
REMARK VINA RESULT:    -7.147      6.702      9.863
REMARK INTER + INTRA:         -16.783
REMARK INTER:                 -11.622
REMARK INTRA:                  -5.162
REMARK CONF_INDEPENDENT:        4.474
REMARK UNBOUND:                -5.162
REMARK  15 active torsions:
REMARK  status: ('A' for Active; 'I' for Inactive)
REMARK    1  A    between atoms: C_2  and  C_3 
REMARK    2  A    between atoms: C_3  and  C_4 
REMARK    3  A    between atoms: C_6  and  C_7 
REMARK    4  A    between atoms: N_8  and  N_9 
REMARK       I    between atoms: N_9  and  C_10 
REMARK    5  A    between atoms: C_10  and  C_12 
REMARK    6  A    between atoms: C_12  and  C_13 
REMARK    7  A    between atoms: C_14  and  C_13 
REMARK    8  A    between atoms: C_14  and  C_16 
REMARK    9  A    between atoms: C_14  and  O_15 
REMARK   10  A    between atoms: C_19  and  O_20 
REMARK   11  A    between atoms: O_20  and  C_21 
REMARK   12  A    between atoms: C_26  and  O_27 
REMARK   13  A    between atoms: C_29  and  O_30 
REMARK   14  A    between atoms: O_30  and  C_31 
REMARK   15  A    between atoms: C_31  and  C_32 
ROOT
ATOM      1  C   UNL d   1      28.231 -14.393  -6.029  0.00  0.00     0.150 C 
ATOM      2  N   UNL d   1      28.391 -13.136  -6.331  0.00  0.00    -0.184 NA
ENDROOT
BRANCH   1   3
ATOM      3  C   UNL d   1      27.669 -15.020  -4.805  0.00  0.00    -0.014 C 
ATOM      4  C   UNL d   1      28.539 -15.557  -3.868  0.00  0.00     0.023 C 
ATOM      5  C   UNL d   1      28.084 -15.929  -2.584  0.00  0.00    -0.018 C 
ATOM      6  C   UNL d   1      26.722 -15.705  -2.248  0.00  0.00     0.109 C 
ATOM      7  C   UNL d   1      25.853 -15.200  -3.220  0.00  0.00     0.102 C 
ATOM      8  C   UNL d   1      26.320 -15.016  -4.509  0.00  0.00     0.052 C 
BRANCH   5   9
ATOM      9  C   UNL d   1      29.109 -16.378  -1.574  0.00  0.00     0.068 C 
BRANCH   9  10
ATOM     10  C   UNL d   1      29.326 -15.578  -0.344  0.00  0.00    -0.032 C 
ATOM     11  C   UNL d   1      30.572 -15.249   0.018  0.00  0.00     0.007 C 
ENDBRANCH   9  10
ENDBRANCH   5   9
BRANCH   6  12
ATOM     12  O   UNL d   1      26.118 -15.945  -1.052  0.00  0.00    -0.343 OA
BRANCH  12  13
ATOM     13  C   UNL d   1      25.903 -17.256  -0.605  0.00  0.00     0.214 C 
BRANCH  13  14
ATOM     14  C   UNL d   1      24.466 -17.623  -0.538  0.00  0.00    -0.034 C 
ATOM     15  C   UNL d   1      24.049 -18.946  -0.454  0.00  0.00     0.009 C 
ATOM     16  C   UNL d   1      22.702 -19.239  -0.522  0.00  0.00     0.001 C 
ATOM     17  C   UNL d   1      21.774 -18.199  -0.529  0.00  0.00     0.000 C 
ATOM     18  C   UNL d   1      22.189 -16.868  -0.517  0.00  0.00     0.001 C 
ATOM     19  C   UNL d   1      23.540 -16.577  -0.528  0.00  0.00     0.009 C 
ENDBRANCH  13  14
ENDBRANCH  12  13
ENDBRANCH   6  12
BRANCH   7  20
ATOM     20  O   UNL d   1      24.542 -14.804  -3.112  0.00  0.00    -0.353 OA
ATOM     21  C   UNL d   1      24.128 -13.701  -3.896  0.00  0.00     0.210 C 
ENDBRANCH   7  20
ENDBRANCH   1   3
BRANCH   2  22
ATOM     22  N   UNL d   1      28.063 -12.178  -5.426  0.00  0.00    -0.247 N 
ATOM     23  C   UNL d   1      26.896 -11.460  -5.501  0.00  0.00     0.237 C 
ATOM     24  O   UNL d   1      26.084 -11.510  -6.429  0.00  0.00    -0.272 OA
ATOM     25  H   UNL d   1      28.803 -11.733  -4.904  0.00  0.00     0.192 HD
BRANCH  23  26
ATOM     26  C   UNL d   1      26.708 -10.587  -4.275  0.00  0.00     0.107 C 
BRANCH  26  27
ATOM     27  C   UNL d   1      26.652 -11.462  -3.030  0.00  0.00     0.046 C 
BRANCH  27  28
ATOM     28  C   UNL d   1      27.901 -11.361  -2.161  0.00  0.00     0.151 C 
BRANCH  28  29
ATOM     29  C   UNL d   1      27.728 -12.002  -0.794  0.00  0.00    -0.029 A 
ATOM     30  C   UNL d   1      26.864 -13.091  -0.583  0.00  0.00     0.012 A 
ATOM     31  C   UNL d   1      26.603 -13.582   0.694  0.00  0.00     0.037 A 
ATOM     32  C   UNL d   1      27.288 -13.069   1.785  0.00  0.00     0.068 A 
ATOM     33  C   UNL d   1      28.171 -12.009   1.596  0.00  0.00     0.037 A 
ATOM     34  C   UNL d   1      28.377 -11.473   0.325  0.00  0.00     0.012 A 
BRANCH  32  35
ATOM     35  O   UNL d   1      27.034 -13.692   2.974  0.00  0.00    -0.352 OA
BRANCH  35  36
ATOM     36  C   UNL d   1      28.100 -14.492   3.478  0.00  0.00     0.171 C 
ATOM     37  C   UNL d   1      28.360 -14.102   4.917  0.00  0.00     0.034 C 
ENDBRANCH  35  36
ENDBRANCH  32  35
ENDBRANCH  28  29
BRANCH  28  38
ATOM     38  O   UNL d   1      28.970 -11.979  -2.885  0.00  0.00    -0.391 OA
ATOM     39  H   UNL d   1      29.242 -12.763  -2.376  0.00  0.00     0.210 HD
ENDBRANCH  28  38
ENDBRANCH  27  28
ENDBRANCH  26  27
ENDBRANCH  23  26
ENDBRANCH   2  22
TORSDOF 15
ENDMDL
MODEL 9
REMARK VINA RESULT:    -6.889      5.643      9.761
REMARK INTER + INTRA:         -16.687
REMARK INTER:                 -11.364
REMARK INTRA:                  -5.323
REMARK CONF_INDEPENDENT:        4.474
REMARK UNBOUND:                -5.323
REMARK  15 active torsions:
REMARK  status: ('A' for Active; 'I' for Inactive)
REMARK    1  A    between atoms: C_2  and  C_3 
REMARK    2  A    between atoms: C_3  and  C_4 
REMARK    3  A    between atoms: C_6  and  C_7 
REMARK    4  A    between atoms: N_8  and  N_9 
REMARK       I    between atoms: N_9  and  C_10 
REMARK    5  A    between atoms: C_10  and  C_12 
REMARK    6  A    between atoms: C_12  and  C_13 
REMARK    7  A    between atoms: C_14  and  C_13 
REMARK    8  A    between atoms: C_14  and  C_16 
REMARK    9  A    between atoms: C_14  and  O_15 
REMARK   10  A    between atoms: C_19  and  O_20 
REMARK   11  A    between atoms: O_20  and  C_21 
REMARK   12  A    between atoms: C_26  and  O_27 
REMARK   13  A    between atoms: C_29  and  O_30 
REMARK   14  A    between atoms: O_30  and  C_31 
REMARK   15  A    between atoms: C_31  and  C_32 
ROOT
ATOM      1  C   UNL d   1      28.030 -13.363   2.204  0.00  0.00     0.150 C 
ATOM      2  N   UNL d   1      29.193 -13.463   2.784  0.00  0.00    -0.184 NA
ENDROOT
BRANCH   1   3
ATOM      3  C   UNL d   1      27.404 -14.217   1.162  0.00  0.00    -0.014 C 
ATOM      4  C   UNL d   1      26.719 -13.608   0.121  0.00  0.00     0.023 C 
ATOM      5  C   UNL d   1      26.330 -14.343  -1.020  0.00  0.00    -0.018 C 
ATOM      6  C   UNL d   1      26.690 -15.714  -1.108  0.00  0.00     0.109 C 
ATOM      7  C   UNL d   1      27.345 -16.318  -0.030  0.00  0.00     0.102 C 
ATOM      8  C   UNL d   1      27.547 -15.590   1.128  0.00  0.00     0.052 C 
BRANCH   5   9
ATOM      9  C   UNL d   1      25.710 -13.589  -2.169  0.00  0.00     0.068 C 
BRANCH   9  10
ATOM     10  C   UNL d   1      26.436 -13.491  -3.459  0.00  0.00    -0.032 C 
ATOM     11  C   UNL d   1      25.766 -13.167  -4.571  0.00  0.00     0.007 C 
ENDBRANCH   9  10
ENDBRANCH   5   9
BRANCH   6  12
ATOM     12  O   UNL d   1      26.453 -16.564  -2.145  0.00  0.00    -0.343 OA
BRANCH  12  13
ATOM     13  C   UNL d   1      25.155 -16.754  -2.638  0.00  0.00     0.214 C 
BRANCH  13  14
ATOM     14  C   UNL d   1      24.198 -17.216  -1.602  0.00  0.00    -0.034 C 
ATOM     15  C   UNL d   1      24.303 -18.468  -1.010  0.00  0.00     0.009 C 
ATOM     16  C   UNL d   1      23.314 -18.897  -0.147  0.00  0.00     0.001 C 
ATOM     17  C   UNL d   1      22.303 -18.015   0.229  0.00  0.00     0.000 C 
ATOM     18  C   UNL d   1      22.249 -16.722  -0.292  0.00  0.00     0.001 C 
ATOM     19  C   UNL d   1      23.195 -16.322  -1.216  0.00  0.00     0.009 C 
ENDBRANCH  13  14
ENDBRANCH  12  13
ENDBRANCH   6  12
BRANCH   7  20
ATOM     20  O   UNL d   1      27.882 -17.578   0.082  0.00  0.00    -0.353 OA
ATOM     21  C   UNL d   1      27.029 -18.609   0.544  0.00  0.00     0.210 C 
ENDBRANCH   7  20
ENDBRANCH   1   3
BRANCH   2  22
ATOM     22  N   UNL d   1      30.054 -14.443   2.406  0.00  0.00    -0.247 N 
ATOM     23  C   UNL d   1      30.717 -14.420   1.205  0.00  0.00     0.237 C 
ATOM     24  O   UNL d   1      30.532 -13.598   0.302  0.00  0.00    -0.272 OA
ATOM     25  H   UNL d   1      29.956 -15.357   2.820  0.00  0.00     0.192 HD
BRANCH  23  26
ATOM     26  C   UNL d   1      31.736 -15.540   1.117  0.00  0.00     0.107 C 
BRANCH  26  27
ATOM     27  C   UNL d   1      31.761 -16.096  -0.300  0.00  0.00     0.046 C 
BRANCH  27  28
ATOM     28  C   UNL d   1      30.453 -16.761  -0.713  0.00  0.00     0.151 C 
BRANCH  28  29
ATOM     29  C   UNL d   1      30.054 -16.451  -2.146  0.00  0.00    -0.029 A 
ATOM     30  C   UNL d   1      29.573 -15.187  -2.532  0.00  0.00     0.012 A 
ATOM     31  C   UNL d   1      29.077 -14.952  -3.811  0.00  0.00     0.037 A 
ATOM     32  C   UNL d   1      29.155 -15.944  -4.777  0.00  0.00     0.068 A 
ATOM     33  C   UNL d   1      29.656 -17.195  -4.425  0.00  0.00     0.037 A 
ATOM     34  C   UNL d   1      30.086 -17.450  -3.123  0.00  0.00     0.012 A 
BRANCH  32  35
ATOM     35  O   UNL d   1      28.738 -15.574  -6.024  0.00  0.00    -0.352 OA
BRANCH  35  36
ATOM     36  C   UNL d   1      29.659 -14.770  -6.756  0.00  0.00     0.171 C 
ATOM     37  C   UNL d   1      28.906 -13.607  -7.366  0.00  0.00     0.034 C 
ENDBRANCH  35  36
ENDBRANCH  32  35
ENDBRANCH  28  29
BRANCH  28  38
ATOM     38  O   UNL d   1      30.615 -18.171  -0.520  0.00  0.00    -0.391 OA
ATOM     39  H   UNL d   1      29.872 -18.469   0.033  0.00  0.00     0.210 HD
ENDBRANCH  28  38
ENDBRANCH  27  28
ENDBRANCH  26  27
ENDBRANCH  23  26
ENDBRANCH   2  22
TORSDOF 15
ENDMDL
