MODEL 1
REMARK VINA RESULT:   -10.364      0.000      0.000
REMARK INTER + INTRA:         -13.162
REMARK INTER:                 -12.453
REMARK INTRA:                  -0.709
REMARK CONF_INDEPENDENT:        2.088
REMARK UNBOUND:                -0.709
REMARK  7 active torsions:
REMARK  status: ('A' for Active; 'I' for Inactive)
REMARK    1  A    between atoms: O_2  and  C_3 
REMARK    2  A    between atoms: C_12  and  C_13 
REMARK    3  A    between atoms: C_13  and  C_14 
REMARK       I    between atoms: C_14  and  N_16 
REMARK    4  A    between atoms: N_16  and  C_17 
REMARK    5  A    between atoms: C_17  and  C_18 
REMARK    6  A    between atoms: C_21  and  S_22 
REMARK    7  A    between atoms: S_22  and  N_23 
ROOT
ATOM      1  C   UNL d   1      25.621 -15.137  -2.698  0.00  0.00     0.222 C 
ATOM      2  O   UNL d   1      25.380 -16.191  -3.268  0.00  0.00    -0.273 OA
ATOM      3  N   UNL d   1      25.989 -15.277  -1.387  0.00  0.00    -0.357 N 
ATOM      4  H   UNL d   1      26.251 -14.508  -0.786  0.00  0.00     0.162 HD
ENDROOT
BRANCH   1   5
ATOM      5  C   UNL d   1      25.538 -13.736  -3.325  0.00  0.00     0.148 C 
BRANCH   5   6
ATOM      6  C   UNL d   1      26.349 -13.395  -4.589  0.00  0.00     0.033 A 
ATOM      7  C   UNL d   1      27.064 -14.473  -5.367  0.00  0.00     0.295 A 
ATOM      8  O   UNL d   1      27.781 -14.115  -6.469  0.00  0.00    -0.274 OA
ATOM      9  O   UNL d   1      27.096 -15.672  -5.144  0.00  0.00    -0.259 OA
ATOM     10  C   UNL d   1      27.850 -12.815  -6.912  0.00  0.00     0.093 A 
ATOM     11  C   UNL d   1      28.620 -12.689  -8.062  0.00  0.00     0.045 A 
ATOM     12  C   UNL d   1      27.208 -11.771  -6.259  0.00  0.00     0.038 A 
ATOM     13  C   UNL d   1      28.795 -11.437  -8.607  0.00  0.00    -0.057 A 
ATOM     14  C   UNL d   1      28.175 -10.350  -7.993  0.00  0.00     0.044 A 
ATOM     15  C   UNL d   1      29.631 -11.267  -9.828  0.00  0.00     0.048 C 
ATOM     16  C   UNL d   1      27.363 -10.510  -6.857  0.00  0.00     0.082 A 
ATOM     17  C   UNL d   1      26.435 -12.106  -5.030  0.00  0.00    -0.034 A 
ATOM     18  C   UNL d   1      25.775 -10.933  -4.336  0.00  0.00     0.050 C 
BRANCH  16  19
ATOM     19  O   UNL d   1      26.802  -9.393  -6.292  0.00  0.00    -0.355 OA
ATOM     20  C   UNL d   1      26.155  -8.537  -7.233  0.00  0.00     0.210 C 
ENDBRANCH  16  19
ENDBRANCH   5   6
ENDBRANCH   1   5
BRANCH   3  21
ATOM     21  C   UNL d   1      26.025 -16.659  -0.927  0.00  0.00     0.161 C 
BRANCH  21  22
ATOM     22  C   UNL d   1      24.660 -17.200  -0.699  0.00  0.00    -0.040 C 
ATOM     23  C   UNL d   1      24.480 -18.574  -0.508  0.00  0.00     0.010 C 
ATOM     24  C   UNL d   1      23.198 -19.109  -0.535  0.00  0.00     0.026 C 
ATOM     25  C   UNL d   1      22.101 -18.249  -0.629  0.00  0.00     0.079 C 
ATOM     26  C   UNL d   1      22.273 -16.863  -0.650  0.00  0.00     0.026 C 
ATOM     27  C   UNL d   1      23.557 -16.341  -0.744  0.00  0.00     0.010 C 
BRANCH  25  28
ATOM     28  S   UNL d   1      20.471 -18.932  -0.753  0.00  0.00     0.256 S 
ATOM     29  O   UNL d   1      19.543 -17.837  -0.895  0.00  0.00    -0.201 OA
ATOM     30  O   UNL d   1      20.518 -20.056  -1.658  0.00  0.00    -0.201 OA
BRANCH  28  31
ATOM     31  N   UNL d   1      20.265 -19.570   0.778  0.00  0.00    -0.324 N 
ATOM     32  H   UNL d   1      19.703 -19.026   1.424  0.00  0.00     0.169 HD
ATOM     33  H   UNL d   1      21.002 -20.180   1.117  0.00  0.00     0.169 HD
ENDBRANCH  28  31
ENDBRANCH  25  28
ENDBRANCH  21  22
ENDBRANCH   3  21
TORSDOF 7
ENDMDL
MODEL 2
REMARK VINA RESULT:    -9.685      2.104      2.951
REMARK INTER + INTRA:         -12.551
REMARK INTER:                 -11.773
REMARK INTRA:                  -0.778
REMARK CONF_INDEPENDENT:        2.088
REMARK UNBOUND:                -0.778
REMARK  7 active torsions:
REMARK  status: ('A' for Active; 'I' for Inactive)
REMARK    1  A    between atoms: O_2  and  C_3 
REMARK    2  A    between atoms: C_12  and  C_13 
REMARK    3  A    between atoms: C_13  and  C_14 
REMARK       I    between atoms: C_14  and  N_16 
REMARK    4  A    between atoms: N_16  and  C_17 
REMARK    5  A    between atoms: C_17  and  C_18 
REMARK    6  A    between atoms: C_21  and  S_22 
REMARK    7  A    between atoms: S_22  and  N_23 
ROOT
ATOM      1  C   UNL d   1      27.767 -16.179  -1.950  0.00  0.00     0.222 C 
ATOM      2  O   UNL d   1      28.448 -16.714  -1.087  0.00  0.00    -0.273 OA
ATOM      3  N   UNL d   1      26.430 -16.131  -1.665  0.00  0.00    -0.357 N 
ATOM      4  H   UNL d   1      25.737 -15.694  -2.258  0.00  0.00     0.162 HD
ENDROOT
BRANCH   1   5
ATOM      5  C   UNL d   1      28.290 -15.589  -3.270  0.00  0.00     0.148 C 
BRANCH   5   6
ATOM      6  C   UNL d   1      27.627 -14.342  -3.887  0.00  0.00     0.033 A 
ATOM      7  C   UNL d   1      27.231 -14.314  -5.343  0.00  0.00     0.295 A 
ATOM      8  O   UNL d   1      26.662 -13.180  -5.842  0.00  0.00    -0.274 OA
ATOM      9  O   UNL d   1      27.350 -15.196  -6.177  0.00  0.00    -0.259 OA
ATOM     10  C   UNL d   1      26.410 -12.077  -5.060  0.00  0.00     0.093 A 
ATOM     11  C   UNL d   1      25.810 -11.049  -5.775  0.00  0.00     0.045 A 
ATOM     12  C   UNL d   1      26.732 -12.033  -3.710  0.00  0.00     0.038 A 
ATOM     13  C   UNL d   1      25.518  -9.871  -5.124  0.00  0.00    -0.057 A 
ATOM     14  C   UNL d   1      25.821  -9.768  -3.767  0.00  0.00     0.044 A 
ATOM     15  C   UNL d   1      24.892  -8.743  -5.869  0.00  0.00     0.048 C 
ATOM     16  C   UNL d   1      26.386 -10.840  -3.054  0.00  0.00     0.082 A 
ATOM     17  C   UNL d   1      27.384 -13.237  -3.123  0.00  0.00    -0.034 A 
ATOM     18  C   UNL d   1      27.742 -13.133  -1.655  0.00  0.00     0.050 C 
BRANCH  16  19
ATOM     19  O   UNL d   1      26.678 -10.661  -1.726  0.00  0.00    -0.355 OA
ATOM     20  C   UNL d   1      27.884  -9.933  -1.497  0.00  0.00     0.210 C 
ENDBRANCH  16  19
ENDBRANCH   5   6
ENDBRANCH   1   5
BRANCH   3  21
ATOM     21  C   UNL d   1      26.077 -16.726  -0.383  0.00  0.00     0.161 C 
BRANCH  21  22
ATOM     22  C   UNL d   1      24.674 -17.215  -0.369  0.00  0.00    -0.040 C 
ATOM     23  C   UNL d   1      24.401 -18.534   0.011  0.00  0.00     0.010 C 
ATOM     24  C   UNL d   1      23.134 -19.061  -0.204  0.00  0.00     0.026 C 
ATOM     25  C   UNL d   1      22.119 -18.228  -0.681  0.00  0.00     0.079 C 
ATOM     26  C   UNL d   1      22.348 -16.869  -0.901  0.00  0.00     0.026 C 
ATOM     27  C   UNL d   1      23.643 -16.375  -0.801  0.00  0.00     0.010 C 
BRANCH  25  28
ATOM     28  S   UNL d   1      20.527 -18.919  -1.039  0.00  0.00     0.256 S 
ATOM     29  O   UNL d   1      19.548 -17.870  -0.891  0.00  0.00    -0.201 OA
ATOM     30  O   UNL d   1      20.642 -19.736  -2.223  0.00  0.00    -0.201 OA
BRANCH  28  31
ATOM     31  N   UNL d   1      20.330 -19.974   0.243  0.00  0.00    -0.324 N 
ATOM     32  H   UNL d   1      19.527 -19.816   0.841  0.00  0.00     0.169 HD
ATOM     33  H   UNL d   1      21.175 -20.402   0.609  0.00  0.00     0.169 HD
ENDBRANCH  28  31
ENDBRANCH  25  28
ENDBRANCH  21  22
ENDBRANCH   3  21
TORSDOF 7
ENDMDL
MODEL 3
REMARK VINA RESULT:    -9.581      1.945      2.092
REMARK INTER + INTRA:         -13.172
REMARK INTER:                 -11.669
REMARK INTRA:                  -1.503
REMARK CONF_INDEPENDENT:        2.088
REMARK UNBOUND:                -1.503
REMARK  7 active torsions:
REMARK  status: ('A' for Active; 'I' for Inactive)
REMARK    1  A    between atoms: O_2  and  C_3 
REMARK    2  A    between atoms: C_12  and  C_13 
REMARK    3  A    between atoms: C_13  and  C_14 
REMARK       I    between atoms: C_14  and  N_16 
REMARK    4  A    between atoms: N_16  and  C_17 
REMARK    5  A    between atoms: C_17  and  C_18 
REMARK    6  A    between atoms: C_21  and  S_22 
REMARK    7  A    between atoms: S_22  and  N_23 
ROOT
ATOM      1  C   UNL d   1      25.876 -14.555  -1.993  0.00  0.00     0.222 C 
ATOM      2  O   UNL d   1      25.903 -14.216  -0.819  0.00  0.00    -0.273 OA
ATOM      3  N   UNL d   1      25.764 -15.905  -2.187  0.00  0.00    -0.357 N 
ATOM      4  H   UNL d   1      25.695 -16.345  -3.094  0.00  0.00     0.162 HD
ENDROOT
BRANCH   1   5
ATOM      5  C   UNL d   1      25.957 -13.612  -3.204  0.00  0.00     0.148 C 
BRANCH   5   6
ATOM      6  C   UNL d   1      27.044 -13.810  -4.278  0.00  0.00     0.033 A 
ATOM      7  C   UNL d   1      27.040 -15.027  -5.171  0.00  0.00     0.295 A 
ATOM      8  O   UNL d   1      28.034 -15.161  -6.094  0.00  0.00    -0.274 OA
ATOM      9  O   UNL d   1      26.243 -15.950  -5.188  0.00  0.00    -0.259 OA
ATOM     10  C   UNL d   1      29.017 -14.213  -6.260  0.00  0.00     0.093 A 
ATOM     11  C   UNL d   1      29.910 -14.551  -7.269  0.00  0.00     0.045 A 
ATOM     12  C   UNL d   1      29.079 -13.062  -5.488  0.00  0.00     0.038 A 
ATOM     13  C   UNL d   1      30.963 -13.703  -7.533  0.00  0.00    -0.057 A 
ATOM     14  C   UNL d   1      31.076 -12.531  -6.787  0.00  0.00     0.044 A 
ATOM     15  C   UNL d   1      31.947 -14.047  -8.596  0.00  0.00     0.048 C 
ATOM     16  C   UNL d   1      30.134 -12.189  -5.802  0.00  0.00     0.082 A 
ATOM     17  C   UNL d   1      28.032 -12.882  -4.442  0.00  0.00    -0.034 A 
ATOM     18  C   UNL d   1      28.155 -11.626  -3.606  0.00  0.00     0.050 C 
BRANCH  16  19
ATOM     19  O   UNL d   1      30.321 -11.031  -5.092  0.00  0.00    -0.355 OA
ATOM     20  C   UNL d   1      30.156  -9.847  -5.871  0.00  0.00     0.210 C 
ENDBRANCH  16  19
ENDBRANCH   5   6
ENDBRANCH   1   5
BRANCH   3  21
ATOM     21  C   UNL d   1      25.697 -16.676  -0.952  0.00  0.00     0.161 C 
BRANCH  21  22
ATOM     22  C   UNL d   1      24.355 -17.285  -0.755  0.00  0.00    -0.040 C 
ATOM     23  C   UNL d   1      24.246 -18.655  -0.491  0.00  0.00     0.010 C 
ATOM     24  C   UNL d   1      23.000 -19.267  -0.545  0.00  0.00     0.026 C 
ATOM     25  C   UNL d   1      21.861 -18.481  -0.739  0.00  0.00     0.079 C 
ATOM     26  C   UNL d   1      21.954 -17.091  -0.833  0.00  0.00     0.026 C 
ATOM     27  C   UNL d   1      23.208 -16.499  -0.900  0.00  0.00     0.010 C 
BRANCH  25  28
ATOM     28  S   UNL d   1      20.281 -19.268  -0.896  0.00  0.00     0.256 S 
ATOM     29  O   UNL d   1      19.268 -18.281  -0.614  0.00  0.00    -0.201 OA
ATOM     30  O   UNL d   1      20.293 -20.075  -2.093  0.00  0.00    -0.201 OA
BRANCH  28  31
ATOM     31  N   UNL d   1      20.315 -20.334   0.390  0.00  0.00    -0.324 N 
ATOM     32  H   UNL d   1      21.128 -20.290   0.995  0.00  0.00     0.169 HD
ATOM     33  H   UNL d   1      19.803 -21.202   0.271  0.00  0.00     0.169 HD
ENDBRANCH  28  31
ENDBRANCH  25  28
ENDBRANCH  21  22
ENDBRANCH   3  21
TORSDOF 7
ENDMDL
MODEL 4
REMARK VINA RESULT:    -9.470      5.012      6.883
REMARK INTER + INTRA:         -12.360
REMARK INTER:                 -11.558
REMARK INTRA:                  -0.802
REMARK CONF_INDEPENDENT:        2.088
REMARK UNBOUND:                -0.802
REMARK  7 active torsions:
REMARK  status: ('A' for Active; 'I' for Inactive)
REMARK    1  A    between atoms: O_2  and  C_3 
REMARK    2  A    between atoms: C_12  and  C_13 
REMARK    3  A    between atoms: C_13  and  C_14 
REMARK       I    between atoms: C_14  and  N_16 
REMARK    4  A    between atoms: N_16  and  C_17 
REMARK    5  A    between atoms: C_17  and  C_18 
REMARK    6  A    between atoms: C_21  and  S_22 
REMARK    7  A    between atoms: S_22  and  N_23 
ROOT
ATOM      1  C   UNL d   1      29.307 -16.940  -1.327  0.00  0.00     0.222 C 
ATOM      2  O   UNL d   1      28.928 -15.860  -1.754  0.00  0.00    -0.273 OA
ATOM      3  N   UNL d   1      28.583 -17.412  -0.265  0.00  0.00    -0.357 N 
ATOM      4  H   UNL d   1      28.746 -18.303   0.183  0.00  0.00     0.162 HD
ENDROOT
BRANCH   1   5
ATOM      5  C   UNL d   1      30.484 -17.762  -1.875  0.00  0.00     0.148 C 
BRANCH   5   6
ATOM      6  C   UNL d   1      30.585 -18.077  -3.380  0.00  0.00     0.033 A 
ATOM      7  C   UNL d   1      30.189 -17.053  -4.416  0.00  0.00     0.295 A 
ATOM      8  O   UNL d   1      30.283 -17.389  -5.733  0.00  0.00    -0.274 OA
ATOM      9  O   UNL d   1      29.779 -15.918  -4.239  0.00  0.00    -0.259 OA
ATOM     10  C   UNL d   1      30.753 -18.613  -6.150  0.00  0.00     0.093 A 
ATOM     11  C   UNL d   1      30.779 -18.725  -7.534  0.00  0.00     0.045 A 
ATOM     12  C   UNL d   1      31.150 -19.600  -5.258  0.00  0.00     0.038 A 
ATOM     13  C   UNL d   1      31.207 -19.907  -8.095  0.00  0.00    -0.057 A 
ATOM     14  C   UNL d   1      31.617 -20.936  -7.248  0.00  0.00     0.044 A 
ATOM     15  C   UNL d   1      31.227 -20.064  -9.576  0.00  0.00     0.048 C 
ATOM     16  C   UNL d   1      31.626 -20.781  -5.851  0.00  0.00     0.082 A 
ATOM     17  C   UNL d   1      31.038 -19.293  -3.804  0.00  0.00    -0.034 A 
ATOM     18  C   UNL d   1      31.456 -20.409  -2.869  0.00  0.00     0.050 C 
BRANCH  16  19
ATOM     19  O   UNL d   1      32.020 -21.843  -5.077  0.00  0.00    -0.355 OA
ATOM     20  C   UNL d   1      32.281 -23.031  -5.825  0.00  0.00     0.210 C 
ENDBRANCH  16  19
ENDBRANCH   5   6
ENDBRANCH   1   5
BRANCH   3  21
ATOM     21  C   UNL d   1      27.498 -16.531   0.149  0.00  0.00     0.161 C 
BRANCH  21  22
ATOM     22  C   UNL d   1      26.169 -17.082  -0.224  0.00  0.00    -0.040 C 
ATOM     23  C   UNL d   1      25.436 -16.489  -1.259  0.00  0.00     0.010 C 
ATOM     24  C   UNL d   1      24.107 -16.843  -1.448  0.00  0.00     0.026 C 
ATOM     25  C   UNL d   1      23.559 -17.875  -0.683  0.00  0.00     0.079 C 
ATOM     26  C   UNL d   1      24.340 -18.583   0.233  0.00  0.00     0.026 C 
ATOM     27  C   UNL d   1      25.630 -18.146   0.504  0.00  0.00     0.010 C 
BRANCH  25  28
ATOM     28  S   UNL d   1      21.841 -18.269  -0.861  0.00  0.00     0.256 S 
ATOM     29  O   UNL d   1      21.110 -17.028  -0.937  0.00  0.00    -0.201 OA
ATOM     30  O   UNL d   1      21.716 -19.325  -1.838  0.00  0.00    -0.201 OA
BRANCH  28  31
ATOM     31  N   UNL d   1      21.506 -18.960   0.623  0.00  0.00    -0.324 N 
ATOM     32  H   UNL d   1      21.001 -18.385   1.288  0.00  0.00     0.169 HD
ATOM     33  H   UNL d   1      22.146 -19.681   0.940  0.00  0.00     0.169 HD
ENDBRANCH  28  31
ENDBRANCH  25  28
ENDBRANCH  21  22
ENDBRANCH   3  21
TORSDOF 7
ENDMDL
MODEL 5
REMARK VINA RESULT:    -9.358      1.495      2.452
REMARK INTER + INTRA:         -12.973
REMARK INTER:                 -11.446
REMARK INTRA:                  -1.527
REMARK CONF_INDEPENDENT:        2.088
REMARK UNBOUND:                -1.527
REMARK  7 active torsions:
REMARK  status: ('A' for Active; 'I' for Inactive)
REMARK    1  A    between atoms: O_2  and  C_3 
REMARK    2  A    between atoms: C_12  and  C_13 
REMARK    3  A    between atoms: C_13  and  C_14 
REMARK       I    between atoms: C_14  and  N_16 
REMARK    4  A    between atoms: N_16  and  C_17 
REMARK    5  A    between atoms: C_17  and  C_18 
REMARK    6  A    between atoms: C_21  and  S_22 
REMARK    7  A    between atoms: S_22  and  N_23 
ROOT
ATOM      1  C   UNL d   1      27.355 -15.950  -2.838  0.00  0.00     0.222 C 
ATOM      2  O   UNL d   1      28.186 -16.287  -2.008  0.00  0.00    -0.273 OA
ATOM      3  N   UNL d   1      26.058 -16.056  -2.413  0.00  0.00    -0.357 N 
ATOM      4  H   UNL d   1      25.255 -15.788  -2.964  0.00  0.00     0.162 HD
ENDROOT
BRANCH   1   5
ATOM      5  C   UNL d   1      27.655 -15.443  -4.258  0.00  0.00     0.148 C 
BRANCH   5   6
ATOM      6  C   UNL d   1      27.143 -14.066  -4.722  0.00  0.00     0.033 A 
ATOM      7  C   UNL d   1      25.690 -13.686  -4.567  0.00  0.00     0.295 A 
ATOM      8  O   UNL d   1      25.286 -12.461  -5.008  0.00  0.00    -0.274 OA
ATOM      9  O   UNL d   1      24.783 -14.343  -4.083  0.00  0.00    -0.259 OA
ATOM     10  C   UNL d   1      26.159 -11.553  -5.560  0.00  0.00     0.093 A 
ATOM     11  C   UNL d   1      25.530 -10.368  -5.920  0.00  0.00     0.045 A 
ATOM     12  C   UNL d   1      27.511 -11.824  -5.722  0.00  0.00     0.038 A 
ATOM     13  C   UNL d   1      26.278  -9.372  -6.506  0.00  0.00    -0.057 A 
ATOM     14  C   UNL d   1      27.642  -9.589  -6.696  0.00  0.00     0.044 A 
ATOM     15  C   UNL d   1      25.628  -8.098  -6.921  0.00  0.00     0.048 C 
ATOM     16  C   UNL d   1      28.265 -10.779  -6.281  0.00  0.00     0.082 A 
ATOM     17  C   UNL d   1      27.998 -13.162  -5.283  0.00  0.00    -0.034 A 
ATOM     18  C   UNL d   1      29.472 -13.424  -5.504  0.00  0.00     0.050 C 
BRANCH  16  19
ATOM     19  O   UNL d   1      29.607 -10.933  -6.519  0.00  0.00    -0.355 OA
ATOM     20  C   UNL d   1      30.025 -10.431  -7.788  0.00  0.00     0.210 C 
ENDBRANCH  16  19
ENDBRANCH   5   6
ENDBRANCH   1   5
BRANCH   3  21
ATOM     21  C   UNL d   1      25.922 -16.549  -1.048  0.00  0.00     0.161 C 
BRANCH  21  22
ATOM     22  C   UNL d   1      24.568 -17.107  -0.796  0.00  0.00    -0.040 C 
ATOM     23  C   UNL d   1      24.421 -18.467  -0.502  0.00  0.00     0.010 C 
ATOM     24  C   UNL d   1      23.154 -19.037  -0.504  0.00  0.00     0.026 C 
ATOM     25  C   UNL d   1      22.036 -18.216  -0.677  0.00  0.00     0.079 C 
ATOM     26  C   UNL d   1      22.173 -16.832  -0.801  0.00  0.00     0.026 C 
ATOM     27  C   UNL d   1      23.444 -16.284  -0.920  0.00  0.00     0.010 C 
BRANCH  25  28
ATOM     28  S   UNL d   1      20.427 -18.950  -0.768  0.00  0.00     0.256 S 
ATOM     29  O   UNL d   1      19.463 -17.885  -0.895  0.00  0.00    -0.201 OA
ATOM     30  O   UNL d   1      20.491 -20.075  -1.671  0.00  0.00    -0.201 OA
BRANCH  28  31
ATOM     31  N   UNL d   1      20.269 -19.589   0.768  0.00  0.00    -0.324 N 
ATOM     32  H   UNL d   1      19.634 -19.110   1.397  0.00  0.00     0.169 HD
ATOM     33  H   UNL d   1      21.068 -20.101   1.128  0.00  0.00     0.169 HD
ENDBRANCH  28  31
ENDBRANCH  25  28
ENDBRANCH  21  22
ENDBRANCH   3  21
TORSDOF 7
ENDMDL
MODEL 6
REMARK VINA RESULT:    -9.223      3.013      4.298
REMARK INTER + INTRA:         -12.681
REMARK INTER:                 -11.311
REMARK INTRA:                  -1.370
REMARK CONF_INDEPENDENT:        2.088
REMARK UNBOUND:                -1.370
REMARK  7 active torsions:
REMARK  status: ('A' for Active; 'I' for Inactive)
REMARK    1  A    between atoms: O_2  and  C_3 
REMARK    2  A    between atoms: C_12  and  C_13 
REMARK    3  A    between atoms: C_13  and  C_14 
REMARK       I    between atoms: C_14  and  N_16 
REMARK    4  A    between atoms: N_16  and  C_17 
REMARK    5  A    between atoms: C_17  and  C_18 
REMARK    6  A    between atoms: C_21  and  S_22 
REMARK    7  A    between atoms: S_22  and  N_23 
ROOT
ATOM      1  C   UNL d   1      27.060 -15.309  -0.823  0.00  0.00     0.222 C 
ATOM      2  O   UNL d   1      26.581 -14.718   0.134  0.00  0.00    -0.273 OA
ATOM      3  N   UNL d   1      26.780 -16.648  -0.856  0.00  0.00    -0.357 N 
ATOM      4  H   UNL d   1      27.072 -17.272  -1.595  0.00  0.00     0.162 HD
ENDROOT
BRANCH   1   5
ATOM      5  C   UNL d   1      27.915 -14.679  -1.933  0.00  0.00     0.148 C 
BRANCH   5   6
ATOM      6  C   UNL d   1      28.722 -15.567  -2.899  0.00  0.00     0.033 A 
ATOM      7  C   UNL d   1      29.342 -16.861  -2.429  0.00  0.00     0.295 A 
ATOM      8  O   UNL d   1      30.059 -17.602  -3.320  0.00  0.00    -0.274 OA
ATOM      9  O   UNL d   1      29.293 -17.364  -1.319  0.00  0.00    -0.259 OA
ATOM     10  C   UNL d   1      30.211 -17.227  -4.635  0.00  0.00     0.093 A 
ATOM     11  C   UNL d   1      30.964 -18.142  -5.360  0.00  0.00     0.045 A 
ATOM     12  C   UNL d   1      29.659 -16.060  -5.145  0.00  0.00     0.038 A 
ATOM     13  C   UNL d   1      31.217 -17.886  -6.689  0.00  0.00    -0.057 A 
ATOM     14  C   UNL d   1      30.689 -16.727  -7.256  0.00  0.00     0.044 A 
ATOM     15  C   UNL d   1      32.037 -18.839  -7.488  0.00  0.00     0.048 C 
ATOM     16  C   UNL d   1      29.891 -15.840  -6.512  0.00  0.00     0.082 A 
ATOM     17  C   UNL d   1      28.890 -15.199  -4.203  0.00  0.00    -0.034 A 
ATOM     18  C   UNL d   1      28.331 -13.923  -4.796  0.00  0.00     0.050 C 
BRANCH  16  19
ATOM     19  O   UNL d   1      29.424 -14.707  -7.129  0.00  0.00    -0.355 OA
ATOM     20  C   UNL d   1      30.430 -13.722  -7.358  0.00  0.00     0.210 C 
ENDBRANCH  16  19
ENDBRANCH   5   6
ENDBRANCH   1   5
BRANCH   3  21
ATOM     21  C   UNL d   1      25.961 -17.108   0.258  0.00  0.00     0.161 C 
BRANCH  21  22
ATOM     22  C   UNL d   1      24.626 -17.578  -0.196  0.00  0.00    -0.040 C 
ATOM     23  C   UNL d   1      23.629 -16.647  -0.506  0.00  0.00     0.010 C 
ATOM     24  C   UNL d   1      22.322 -17.077  -0.696  0.00  0.00     0.026 C 
ATOM     25  C   UNL d   1      22.048 -18.447  -0.698  0.00  0.00     0.079 C 
ATOM     26  C   UNL d   1      23.072 -19.386  -0.558  0.00  0.00     0.026 C 
ATOM     27  C   UNL d   1      24.354 -18.949  -0.248  0.00  0.00     0.010 C 
BRANCH  25  28
ATOM     28  S   UNL d   1      20.370 -18.995  -0.853  0.00  0.00     0.256 S 
ATOM     29  O   UNL d   1      19.527 -17.826  -0.892  0.00  0.00    -0.201 OA
ATOM     30  O   UNL d   1      20.324 -20.041  -1.847  0.00  0.00    -0.201 OA
BRANCH  28  31
ATOM     31  N   UNL d   1      20.129 -19.740   0.624  0.00  0.00    -0.324 N 
ATOM     32  H   UNL d   1      20.961 -19.977   1.154  0.00  0.00     0.169 HD
ATOM     33  H   UNL d   1      19.278 -20.284   0.722  0.00  0.00     0.169 HD
ENDBRANCH  28  31
ENDBRANCH  25  28
ENDBRANCH  21  22
ENDBRANCH   3  21
TORSDOF 7
ENDMDL
MODEL 7
REMARK VINA RESULT:    -9.200      5.293      7.171
REMARK INTER + INTRA:         -12.596
REMARK INTER:                 -11.288
REMARK INTRA:                  -1.308
REMARK CONF_INDEPENDENT:        2.088
REMARK UNBOUND:                -1.308
REMARK  7 active torsions:
REMARK  status: ('A' for Active; 'I' for Inactive)
REMARK    1  A    between atoms: O_2  and  C_3 
REMARK    2  A    between atoms: C_12  and  C_13 
REMARK    3  A    between atoms: C_13  and  C_14 
REMARK       I    between atoms: C_14  and  N_16 
REMARK    4  A    between atoms: N_16  and  C_17 
REMARK    5  A    between atoms: C_17  and  C_18 
REMARK    6  A    between atoms: C_21  and  S_22 
REMARK    7  A    between atoms: S_22  and  N_23 
ROOT
ATOM      1  C   UNL d   1      27.303 -16.080   0.592  0.00  0.00     0.222 C 
ATOM      2  O   UNL d   1      27.768 -17.151   0.231  0.00  0.00    -0.273 OA
ATOM      3  N   UNL d   1      26.207 -15.672  -0.120  0.00  0.00    -0.357 N 
ATOM      4  H   UNL d   1      25.686 -14.828   0.072  0.00  0.00     0.162 HD
ENDROOT
BRANCH   1   5
ATOM      5  C   UNL d   1      27.843 -15.204   1.733  0.00  0.00     0.148 C 
BRANCH   5   6
ATOM      6  C   UNL d   1      27.588 -13.684   1.741  0.00  0.00     0.033 A 
ATOM      7  C   UNL d   1      27.253 -12.947   0.467  0.00  0.00     0.295 A 
ATOM      8  O   UNL d   1      27.052 -11.600   0.527  0.00  0.00    -0.274 OA
ATOM      9  O   UNL d   1      27.130 -13.399  -0.659  0.00  0.00    -0.259 OA
ATOM     10  C   UNL d   1      27.115 -10.898   1.708  0.00  0.00     0.093 A 
ATOM     11  C   UNL d   1      26.858  -9.544   1.532  0.00  0.00     0.045 A 
ATOM     12  C   UNL d   1      27.402 -11.508   2.922  0.00  0.00     0.038 A 
ATOM     13  C   UNL d   1      26.908  -8.713   2.628  0.00  0.00    -0.057 A 
ATOM     14  C   UNL d   1      27.194  -9.269   3.874  0.00  0.00     0.044 A 
ATOM     15  C   UNL d   1      26.656  -7.253   2.468  0.00  0.00     0.048 C 
ATOM     16  C   UNL d   1      27.404 -10.650   4.034  0.00  0.00     0.082 A 
ATOM     17  C   UNL d   1      27.660 -12.976   2.906  0.00  0.00    -0.034 A 
ATOM     18  C   UNL d   1      27.997 -13.593   4.247  0.00  0.00     0.050 C 
BRANCH  16  19
ATOM     19  O   UNL d   1      27.703 -11.126   5.285  0.00  0.00    -0.355 OA
ATOM     20  C   UNL d   1      28.928 -10.617   5.814  0.00  0.00     0.210 C 
ENDBRANCH  16  19
ENDBRANCH   5   6
ENDBRANCH   1   5
BRANCH   3  21
ATOM     21  C   UNL d   1      25.806 -16.599  -1.170  0.00  0.00     0.161 C 
BRANCH  21  22
ATOM     22  C   UNL d   1      24.479 -17.209  -0.891  0.00  0.00    -0.040 C 
ATOM     23  C   UNL d   1      24.389 -18.575  -0.604  0.00  0.00     0.010 C 
ATOM     24  C   UNL d   1      23.144 -19.190  -0.580  0.00  0.00     0.026 C 
ATOM     25  C   UNL d   1      21.993 -18.409  -0.721  0.00  0.00     0.079 C 
ATOM     26  C   UNL d   1      22.077 -17.020  -0.839  0.00  0.00     0.026 C 
ATOM     27  C   UNL d   1      23.324 -16.426  -0.983  0.00  0.00     0.010 C 
BRANCH  25  28
ATOM     28  S   UNL d   1      20.410 -19.202  -0.780  0.00  0.00     0.256 S 
ATOM     29  O   UNL d   1      19.406 -18.199  -0.520  0.00  0.00    -0.201 OA
ATOM     30  O   UNL d   1      20.381 -20.075  -1.929  0.00  0.00    -0.201 OA
BRANCH  28  31
ATOM     31  N   UNL d   1      20.488 -20.194   0.563  0.00  0.00    -0.324 N 
ATOM     32  H   UNL d   1      19.779 -20.052   1.274  0.00  0.00     0.169 HD
ATOM     33  H   UNL d   1      21.407 -20.550   0.808  0.00  0.00     0.169 HD
ENDBRANCH  28  31
ENDBRANCH  25  28
ENDBRANCH  21  22
ENDBRANCH   3  21
TORSDOF 7
ENDMDL
MODEL 8
REMARK VINA RESULT:    -8.872      2.506      3.704
REMARK INTER + INTRA:         -12.481
REMARK INTER:                 -10.960
REMARK INTRA:                  -1.521
REMARK CONF_INDEPENDENT:        2.088
REMARK UNBOUND:                -1.521
REMARK  7 active torsions:
REMARK  status: ('A' for Active; 'I' for Inactive)
REMARK    1  A    between atoms: O_2  and  C_3 
REMARK    2  A    between atoms: C_12  and  C_13 
REMARK    3  A    between atoms: C_13  and  C_14 
REMARK       I    between atoms: C_14  and  N_16 
REMARK    4  A    between atoms: N_16  and  C_17 
REMARK    5  A    between atoms: C_17  and  C_18 
REMARK    6  A    between atoms: C_21  and  S_22 
REMARK    7  A    between atoms: S_22  and  N_23 
ROOT
ATOM      1  C   UNL d   1      29.280 -16.815  -2.903  0.00  0.00     0.222 C 
ATOM      2  O   UNL d   1      29.907 -17.114  -1.897  0.00  0.00    -0.273 OA
ATOM      3  N   UNL d   1      28.014 -16.354  -2.663  0.00  0.00    -0.357 N 
ATOM      4  H   UNL d   1      27.379 -16.036  -3.382  0.00  0.00     0.162 HD
ENDROOT
BRANCH   1   5
ATOM      5  C   UNL d   1      29.794 -16.922  -4.348  0.00  0.00     0.148 C 
BRANCH   5   6
ATOM      6  C   UNL d   1      29.517 -15.796  -5.362  0.00  0.00     0.033 A 
ATOM      7  C   UNL d   1      28.122 -15.250  -5.553  0.00  0.00     0.295 A 
ATOM      8  O   UNL d   1      27.929 -14.265  -6.475  0.00  0.00    -0.274 OA
ATOM      9  O   UNL d   1      27.097 -15.575  -4.978  0.00  0.00    -0.259 OA
ATOM     10  C   UNL d   1      28.961 -13.732  -7.211  0.00  0.00     0.093 A 
ATOM     11  C   UNL d   1      28.533 -12.730  -8.073  0.00  0.00     0.045 A 
ATOM     12  C   UNL d   1      30.271 -14.171  -7.081  0.00  0.00     0.038 A 
ATOM     13  C   UNL d   1      29.457 -12.119  -8.890  0.00  0.00    -0.057 A 
ATOM     14  C   UNL d   1      30.790 -12.521  -8.804  0.00  0.00     0.044 A 
ATOM     15  C   UNL d   1      29.025 -11.055  -9.838  0.00  0.00     0.048 C 
ATOM     16  C   UNL d   1      31.206 -13.505  -7.891  0.00  0.00     0.082 A 
ATOM     17  C   UNL d   1      30.532 -15.269  -6.107  0.00  0.00    -0.034 A 
ATOM     18  C   UNL d   1      31.970 -15.734  -6.019  0.00  0.00     0.050 C 
BRANCH  16  19
ATOM     19  O   UNL d   1      32.529 -13.867  -7.877  0.00  0.00    -0.355 OA
ATOM     20  C   UNL d   1      33.175 -13.729  -9.142  0.00  0.00     0.210 C 
ENDBRANCH  16  19
ENDBRANCH   5   6
ENDBRANCH   1   5
BRANCH   3  21
ATOM     21  C   UNL d   1      27.661 -16.307  -1.250  0.00  0.00     0.161 C 
BRANCH  21  22
ATOM     22  C   UNL d   1      26.232 -16.652  -1.027  0.00  0.00    -0.040 C 
ATOM     23  C   UNL d   1      25.897 -17.689  -0.150  0.00  0.00     0.010 C 
ATOM     24  C   UNL d   1      24.594 -18.171  -0.122  0.00  0.00     0.026 C 
ATOM     25  C   UNL d   1      23.612 -17.528  -0.881  0.00  0.00     0.079 C 
ATOM     26  C   UNL d   1      23.913 -16.386  -1.627  0.00  0.00     0.026 C 
ATOM     27  C   UNL d   1      25.237 -15.984  -1.746  0.00  0.00     0.010 C 
BRANCH  25  28
ATOM     28  S   UNL d   1      21.971 -18.192  -0.916  0.00  0.00     0.256 S 
ATOM     29  O   UNL d   1      21.050 -17.087  -1.020  0.00  0.00    -0.201 OA
ATOM     30  O   UNL d   1      21.957 -19.324  -1.813  0.00  0.00    -0.201 OA
BRANCH  28  31
ATOM     31  N   UNL d   1      21.835 -18.815   0.629  0.00  0.00    -0.324 N 
ATOM     32  H   UNL d   1      21.782 -19.825   0.708  0.00  0.00     0.169 HD
ATOM     33  H   UNL d   1      21.394 -18.217   1.321  0.00  0.00     0.169 HD
ENDBRANCH  28  31
ENDBRANCH  25  28
ENDBRANCH  21  22
ENDBRANCH   3  21
TORSDOF 7
ENDMDL
MODEL 9
REMARK VINA RESULT:    -8.674      7.180      9.907
REMARK INTER + INTRA:         -12.232
REMARK INTER:                 -10.762
REMARK INTRA:                  -1.469
REMARK CONF_INDEPENDENT:        2.088
REMARK UNBOUND:                -1.469
REMARK  7 active torsions:
REMARK  status: ('A' for Active; 'I' for Inactive)
REMARK    1  A    between atoms: O_2  and  C_3 
REMARK    2  A    between atoms: C_12  and  C_13 
REMARK    3  A    between atoms: C_13  and  C_14 
REMARK       I    between atoms: C_14  and  N_16 
REMARK    4  A    between atoms: N_16  and  C_17 
REMARK    5  A    between atoms: C_17  and  C_18 
REMARK    6  A    between atoms: C_21  and  S_22 
REMARK    7  A    between atoms: S_22  and  N_23 
ROOT
ATOM      1  C   UNL d   1      27.233 -13.947   1.786  0.00  0.00     0.222 C 
ATOM      2  O   UNL d   1      26.975 -13.583   0.648  0.00  0.00    -0.273 OA
ATOM      3  N   UNL d   1      27.775 -15.201   1.867  0.00  0.00    -0.357 N 
ATOM      4  H   UNL d   1      28.074 -15.637   2.729  0.00  0.00     0.162 HD
ENDROOT
BRANCH   1   5
ATOM      5  C   UNL d   1      26.998 -13.131   3.067  0.00  0.00     0.148 C 
BRANCH   5   6
ATOM      6  C   UNL d   1      27.904 -13.327   4.298  0.00  0.00     0.033 A 
ATOM      7  C   UNL d   1      28.182 -14.707   4.844  0.00  0.00     0.295 A 
ATOM      8  O   UNL d   1      28.978 -14.824   5.945  0.00  0.00    -0.274 OA
ATOM      9  O   UNL d   1      27.781 -15.781   4.427  0.00  0.00    -0.259 OA
ATOM     10  C   UNL d   1      29.558 -13.735   6.553  0.00  0.00     0.093 A 
ATOM     11  C   UNL d   1      30.341 -14.094   7.643  0.00  0.00     0.045 A 
ATOM     12  C   UNL d   1      29.361 -12.437   6.100  0.00  0.00     0.038 A 
ATOM     13  C   UNL d   1      30.968 -13.102   8.363  0.00  0.00    -0.057 A 
ATOM     14  C   UNL d   1      30.805 -11.779   7.955  0.00  0.00     0.044 A 
ATOM     15  C   UNL d   1      31.798 -13.455   9.548  0.00  0.00     0.048 C 
ATOM     16  C   UNL d   1      30.045 -11.445   6.821  0.00  0.00     0.082 A 
ATOM     17  C   UNL d   1      28.474 -12.253   4.916  0.00  0.00    -0.034 A 
ATOM     18  C   UNL d   1      28.267 -10.819   4.475  0.00  0.00     0.050 C 
BRANCH  16  19
ATOM     19  O   UNL d   1      29.910 -10.120   6.491  0.00  0.00    -0.355 OA
ATOM     20  C   UNL d   1      29.528  -9.292   7.589  0.00  0.00     0.210 C 
ENDBRANCH  16  19
ENDBRANCH   5   6
ENDBRANCH   1   5
BRANCH   3  21
ATOM     21  C   UNL d   1      27.941 -15.858   0.577  0.00  0.00     0.161 C 
BRANCH  21  22
ATOM     22  C   UNL d   1      26.669 -16.456   0.095  0.00  0.00    -0.040 C 
ATOM     23  C   UNL d   1      25.879 -15.760  -0.827  0.00  0.00     0.010 C 
ATOM     24  C   UNL d   1      24.589 -16.198  -1.094  0.00  0.00     0.026 C 
ATOM     25  C   UNL d   1      24.144 -17.398  -0.531  0.00  0.00     0.079 C 
ATOM     26  C   UNL d   1      24.992 -18.181   0.255  0.00  0.00     0.026 C 
ATOM     27  C   UNL d   1      26.236 -17.679   0.616  0.00  0.00     0.010 C 
BRANCH  25  28
ATOM     28  S   UNL d   1      22.471 -17.913  -0.799  0.00  0.00     0.256 S 
ATOM     29  O   UNL d   1      21.655 -16.728  -0.900  0.00  0.00    -0.201 OA
ATOM     30  O   UNL d   1      22.472 -18.963  -1.791  0.00  0.00    -0.201 OA
BRANCH  28  31
ATOM     31  N   UNL d   1      22.114 -18.646   0.660  0.00  0.00    -0.324 N 
ATOM     32  H   UNL d   1      22.087 -19.660   0.664  0.00  0.00     0.169 HD
ATOM     33  H   UNL d   1      21.548 -18.108   1.309  0.00  0.00     0.169 HD
ENDBRANCH  28  31
ENDBRANCH  25  28
ENDBRANCH  21  22
ENDBRANCH   3  21
TORSDOF 7
ENDMDL
