MODEL 1
REMARK VINA RESULT:    -8.453      0.000      0.000
REMARK INTER + INTRA:         -11.441
REMARK INTER:                 -10.243
REMARK INTRA:                  -1.198
REMARK CONF_INDEPENDENT:        1.790
REMARK UNBOUND:                -1.198
REMARK  6 active torsions:
REMARK  status: ('A' for Active; 'I' for Inactive)
REMARK       I    between atoms: C_2  and  N_3 
REMARK    1  A    between atoms: C_2  and  C_14 
REMARK    2  A    between atoms: C_4  and  N_3 
REMARK    3  A    between atoms: C_17  and  C_18 
REMARK    4  A    between atoms: C_18  and  N_19 
REMARK    5  A    between atoms: N_19  and  C_20 
REMARK    6  A    between atoms: C_21  and  O_22 
ROOT
ATOM      1  C   UNL d   1      30.857 -17.832  -0.212  0.00  0.00     0.032 A 
ATOM      2  C   UNL d   1      31.133 -19.166  -0.520  0.00  0.00     0.017 A 
ATOM      3  C   UNL d   1      32.125 -19.849   0.193  0.00  0.00     0.010 A 
ATOM      4  C   UNL d   1      32.918 -19.183   1.152  0.00  0.00    -0.041 A 
ATOM      5  C   UNL d   1      32.638 -17.838   1.419  0.00  0.00     0.010 A 
ATOM      6  C   UNL d   1      31.622 -17.168   0.742  0.00  0.00     0.017 A 
ENDROOT
BRANCH   4   7
ATOM      7  C   UNL d   1      34.064 -19.940   1.786  0.00  0.00     0.158 C 
BRANCH   7   8
ATOM      8  N   UNL d   1      33.666 -21.181   2.476  0.00  0.00    -0.381 N 
ATOM      9  H   UNL d   1      34.421 -21.865   2.440  0.00  0.00     0.160 HD
BRANCH   8  10
ATOM     10  C   UNL d   1      32.879 -21.237   3.533  0.00  0.00     0.097 A 
ATOM     11  C   UNL d   1      31.522 -21.283   3.751  0.00  0.00     0.147 A 
ATOM     12  C   UNL d   1      31.729 -21.246   5.215  0.00  0.00     0.236 A 
ATOM     13  O   UNL d   1      31.069 -21.200   6.230  0.00  0.00    -0.283 OA
ATOM     14  C   UNL d   1      33.182 -21.193   5.005  0.00  0.00     0.113 A 
ATOM     15  N   UNL d   1      34.215 -21.096   5.789  0.00  0.00    -0.372 N 
ATOM     16  C   UNL d   1      34.230 -21.200   7.317  0.00  0.00     0.149 C 
ATOM     17  C   UNL d   1      35.617 -20.976   5.213  0.00  0.00     0.149 C 
ATOM     18  C   UNL d   1      35.187 -20.145   7.905  0.00  0.00     0.187 C 
ATOM     19  O   UNL d   1      36.493 -20.275   7.337  0.00  0.00    -0.388 OA
ATOM     20  C   UNL d   1      36.456 -19.954   5.957  0.00  0.00     0.187 C 
BRANCH  11  21
ATOM     21  O   UNL d   1      30.467 -21.336   3.015  0.00  0.00    -0.355 OA
ATOM     22  H   UNL d   1      30.451 -20.660   2.310  0.00  0.00     0.218 HD
ENDBRANCH  11  21
ENDBRANCH   8  10
ENDBRANCH   7   8
ENDBRANCH   4   7
BRANCH   1  23
ATOM     23  C   UNL d   1      29.748 -17.085  -0.847  0.00  0.00     0.252 C 
ATOM     24  O   UNL d   1      29.638 -17.078  -2.064  0.00  0.00    -0.268 OA
ATOM     25  N   UNL d   1      28.946 -16.387   0.018  0.00  0.00    -0.348 N 
ATOM     26  H   UNL d   1      29.225 -16.262   0.982  0.00  0.00     0.163 HD
BRANCH  25  27
ATOM     27  C   UNL d   1      27.804 -15.603  -0.427  0.00  0.00     0.118 C 
ATOM     28  C   UNL d   1      28.247 -14.857  -1.686  0.00  0.00     0.030 C 
ATOM     29  C   UNL d   1      27.050 -14.285  -2.424  0.00  0.00     0.007 C 
ATOM     30  C   UNL d   1      26.113 -15.403  -2.887  0.00  0.00     0.039 C 
ATOM     31  C   UNL d   1      25.782 -16.385  -1.786  0.00  0.00    -0.050 A 
ATOM     32  C   UNL d   1      24.663 -17.227  -1.914  0.00  0.00     0.007 A 
ATOM     33  C   UNL d   1      26.592 -16.490  -0.638  0.00  0.00    -0.029 A 
ATOM     34  C   UNL d   1      24.325 -18.124  -0.898  0.00  0.00     0.001 A 
ATOM     35  C   UNL d   1      25.100 -18.200   0.252  0.00  0.00     0.001 A 
ATOM     36  C   UNL d   1      26.221 -17.386   0.380  0.00  0.00     0.010 A 
ENDBRANCH  25  27
ENDBRANCH   1  23
TORSDOF 6
ENDMDL
MODEL 2
REMARK VINA RESULT:    -8.266      6.028     11.117
REMARK INTER + INTRA:         -10.924
REMARK INTER:                 -10.055
REMARK INTRA:                  -0.868
REMARK CONF_INDEPENDENT:        1.790
REMARK UNBOUND:                -0.868
REMARK  6 active torsions:
REMARK  status: ('A' for Active; 'I' for Inactive)
REMARK       I    between atoms: C_2  and  N_3 
REMARK    1  A    between atoms: C_2  and  C_14 
REMARK    2  A    between atoms: C_4  and  N_3 
REMARK    3  A    between atoms: C_17  and  C_18 
REMARK    4  A    between atoms: C_18  and  N_19 
REMARK    5  A    between atoms: N_19  and  C_20 
REMARK    6  A    between atoms: C_21  and  O_22 
ROOT
ATOM      1  C   UNL d   1      28.178 -13.070   5.390  0.00  0.00     0.032 A 
ATOM      2  C   UNL d   1      28.075 -14.423   5.056  0.00  0.00     0.017 A 
ATOM      3  C   UNL d   1      28.097 -14.806   3.709  0.00  0.00     0.010 A 
ATOM      4  C   UNL d   1      28.121 -13.840   2.681  0.00  0.00    -0.041 A 
ATOM      5  C   UNL d   1      28.194 -12.490   3.046  0.00  0.00     0.010 A 
ATOM      6  C   UNL d   1      28.217 -12.109   4.385  0.00  0.00     0.017 A 
ENDROOT
BRANCH   4   7
ATOM      7  C   UNL d   1      28.003 -14.313   1.249  0.00  0.00     0.158 C 
BRANCH   7   8
ATOM      8  N   UNL d   1      28.045 -15.777   1.086  0.00  0.00    -0.381 N 
ATOM      9  H   UNL d   1      28.529 -16.209   1.873  0.00  0.00     0.160 HD
BRANCH   8  10
ATOM     10  C   UNL d   1      27.102 -16.501   0.514  0.00  0.00     0.097 A 
ATOM     11  C   UNL d   1      26.653 -17.796   0.619  0.00  0.00     0.147 A 
ATOM     12  C   UNL d   1      25.675 -17.573  -0.468  0.00  0.00     0.236 A 
ATOM     13  O   UNL d   1      24.855 -18.201  -1.102  0.00  0.00    -0.283 OA
ATOM     14  C   UNL d   1      26.141 -16.186  -0.599  0.00  0.00     0.113 A 
ATOM     15  N   UNL d   1      25.848 -15.195  -1.387  0.00  0.00    -0.372 N 
ATOM     16  C   UNL d   1      24.693 -15.120  -2.389  0.00  0.00     0.149 C 
ATOM     17  C   UNL d   1      26.611 -13.883  -1.298  0.00  0.00     0.149 C 
ATOM     18  C   UNL d   1      25.170 -14.450  -3.692  0.00  0.00     0.187 C 
ATOM     19  O   UNL d   1      25.739 -13.166  -3.420  0.00  0.00    -0.388 OA
ATOM     20  C   UNL d   1      26.932 -13.314  -2.668  0.00  0.00     0.187 C 
BRANCH  11  21
ATOM     21  O   UNL d   1      26.938 -18.820   1.347  0.00  0.00    -0.355 OA
ATOM     22  H   UNL d   1      27.852 -19.142   1.224  0.00  0.00     0.218 HD
ENDBRANCH  11  21
ENDBRANCH   8  10
ENDBRANCH   7   8
ENDBRANCH   4   7
BRANCH   1  23
ATOM     23  C   UNL d   1      28.275 -12.606   6.792  0.00  0.00     0.252 C 
ATOM     24  O   UNL d   1      27.782 -11.535   7.115  0.00  0.00    -0.268 OA
ATOM     25  N   UNL d   1      28.994 -13.422   7.626  0.00  0.00    -0.348 N 
ATOM     26  H   UNL d   1      29.554 -14.173   7.245  0.00  0.00     0.163 HD
BRANCH  25  27
ATOM     27  C   UNL d   1      29.189 -13.129   9.038  0.00  0.00     0.118 C 
ATOM     28  C   UNL d   1      27.799 -13.086   9.673  0.00  0.00     0.030 C 
ATOM     29  C   UNL d   1      27.895 -13.131  11.187  0.00  0.00     0.007 C 
ATOM     30  C   UNL d   1      28.545 -14.437  11.651  0.00  0.00     0.039 C 
ATOM     31  C   UNL d   1      29.828 -14.747  10.914  0.00  0.00    -0.050 A 
ATOM     32  C   UNL d   1      30.740 -15.669  11.458  0.00  0.00     0.007 A 
ATOM     33  C   UNL d   1      30.119 -14.145   9.675  0.00  0.00    -0.029 A 
ATOM     34  C   UNL d   1      31.943 -15.952  10.806  0.00  0.00     0.001 A 
ATOM     35  C   UNL d   1      32.249 -15.327   9.603  0.00  0.00     0.001 A 
ATOM     36  C   UNL d   1      31.345 -14.429   9.046  0.00  0.00     0.010 A 
ENDBRANCH  25  27
ENDBRANCH   1  23
TORSDOF 6
ENDMDL
MODEL 3
REMARK VINA RESULT:    -8.087      5.903      7.004
REMARK INTER + INTRA:         -11.149
REMARK INTER:                  -9.877
REMARK INTRA:                  -1.272
REMARK CONF_INDEPENDENT:        1.790
REMARK UNBOUND:                -1.272
REMARK  6 active torsions:
REMARK  status: ('A' for Active; 'I' for Inactive)
REMARK       I    between atoms: C_2  and  N_3 
REMARK    1  A    between atoms: C_2  and  C_14 
REMARK    2  A    between atoms: C_4  and  N_3 
REMARK    3  A    between atoms: C_17  and  C_18 
REMARK    4  A    between atoms: C_18  and  N_19 
REMARK    5  A    between atoms: N_19  and  C_20 
REMARK    6  A    between atoms: C_21  and  O_22 
ROOT
ATOM      1  C   UNL d   1      28.245 -14.375   2.196  0.00  0.00     0.032 A 
ATOM      2  C   UNL d   1      29.596 -14.091   1.983  0.00  0.00     0.017 A 
ATOM      3  C   UNL d   1      30.363 -13.558   3.026  0.00  0.00     0.010 A 
ATOM      4  C   UNL d   1      29.770 -13.211   4.258  0.00  0.00    -0.041 A 
ATOM      5  C   UNL d   1      28.407 -13.480   4.433  0.00  0.00     0.010 A 
ATOM      6  C   UNL d   1      27.651 -14.051   3.412  0.00  0.00     0.017 A 
ENDROOT
BRANCH   4   7
ATOM      7  C   UNL d   1      30.622 -12.511   5.293  0.00  0.00     0.158 C 
BRANCH   7   8
ATOM      8  N   UNL d   1      30.593 -13.134   6.629  0.00  0.00    -0.381 N 
ATOM      9  H   UNL d   1      31.540 -13.341   6.945  0.00  0.00     0.160 HD
BRANCH   8  10
ATOM     10  C   UNL d   1      29.712 -12.860   7.570  0.00  0.00     0.097 A 
ATOM     11  C   UNL d   1      28.712 -11.931   7.746  0.00  0.00     0.147 A 
ATOM     12  C   UNL d   1      28.432 -12.451   9.102  0.00  0.00     0.236 A 
ATOM     13  O   UNL d   1      27.717 -12.198  10.047  0.00  0.00    -0.283 OA
ATOM     14  C   UNL d   1      29.497 -13.449   8.937  0.00  0.00     0.113 A 
ATOM     15  N   UNL d   1      30.012 -14.369   9.697  0.00  0.00    -0.372 N 
ATOM     16  C   UNL d   1      29.488 -14.847  11.055  0.00  0.00     0.149 C 
ATOM     17  C   UNL d   1      31.200 -15.191   9.224  0.00  0.00     0.149 C 
ATOM     18  C   UNL d   1      30.666 -15.074  12.022  0.00  0.00     0.187 C 
ATOM     19  O   UNL d   1      31.618 -15.980  11.455  0.00  0.00    -0.388 OA
ATOM     20  C   UNL d   1      32.230 -15.391  10.320  0.00  0.00     0.187 C 
BRANCH  11  21
ATOM     21  O   UNL d   1      28.198 -10.981   7.046  0.00  0.00    -0.355 OA
ATOM     22  H   UNL d   1      27.236 -11.079   6.904  0.00  0.00     0.218 HD
ENDBRANCH  11  21
ENDBRANCH   8  10
ENDBRANCH   7   8
ENDBRANCH   4   7
BRANCH   1  23
ATOM     23  C   UNL d   1      27.406 -15.043   1.175  0.00  0.00     0.252 C 
ATOM     24  O   UNL d   1      26.407 -14.484   0.747  0.00  0.00    -0.268 OA
ATOM     25  N   UNL d   1      27.805 -16.309   0.833  0.00  0.00    -0.348 N 
ATOM     26  H   UNL d   1      28.505 -16.788   1.382  0.00  0.00     0.163 HD
BRANCH  25  27
ATOM     27  C   UNL d   1      27.105 -17.113  -0.158  0.00  0.00     0.118 C 
ATOM     28  C   UNL d   1      25.805 -17.581   0.495  0.00  0.00     0.030 C 
ATOM     29  C   UNL d   1      24.845 -18.132  -0.545  0.00  0.00     0.007 C 
ATOM     30  C   UNL d   1      24.460 -17.048  -1.555  0.00  0.00     0.039 C 
ATOM     31  C   UNL d   1      25.658 -16.311  -2.109  0.00  0.00    -0.050 A 
ATOM     32  C   UNL d   1      25.534 -15.574  -3.301  0.00  0.00     0.007 A 
ATOM     33  C   UNL d   1      26.896 -16.327  -1.438  0.00  0.00    -0.029 A 
ATOM     34  C   UNL d   1      26.634 -14.905  -3.844  0.00  0.00     0.001 A 
ATOM     35  C   UNL d   1      27.866 -14.954  -3.204  0.00  0.00     0.001 A 
ATOM     36  C   UNL d   1      27.994 -15.662  -2.014  0.00  0.00     0.010 A 
ENDBRANCH  25  27
ENDBRANCH   1  23
TORSDOF 6
ENDMDL
MODEL 4
REMARK VINA RESULT:    -8.050      6.844     10.838
REMARK INTER + INTRA:         -11.004
REMARK INTER:                  -9.839
REMARK INTRA:                  -1.164
REMARK CONF_INDEPENDENT:        1.790
REMARK UNBOUND:                -1.164
REMARK  6 active torsions:
REMARK  status: ('A' for Active; 'I' for Inactive)
REMARK       I    between atoms: C_2  and  N_3 
REMARK    1  A    between atoms: C_2  and  C_14 
REMARK    2  A    between atoms: C_4  and  N_3 
REMARK    3  A    between atoms: C_17  and  C_18 
REMARK    4  A    between atoms: C_18  and  N_19 
REMARK    5  A    between atoms: N_19  and  C_20 
REMARK    6  A    between atoms: C_21  and  O_22 
ROOT
ATOM      1  C   UNL d   1      26.081 -13.223  -3.394  0.00  0.00     0.032 A 
ATOM      2  C   UNL d   1      25.766 -12.599  -4.604  0.00  0.00     0.017 A 
ATOM      3  C   UNL d   1      25.929 -11.214  -4.730  0.00  0.00     0.010 A 
ATOM      4  C   UNL d   1      26.314 -10.426  -3.625  0.00  0.00    -0.041 A 
ATOM      5  C   UNL d   1      26.595 -11.076  -2.417  0.00  0.00     0.010 A 
ATOM      6  C   UNL d   1      26.475 -12.458  -2.301  0.00  0.00     0.017 A 
ENDROOT
BRANCH   4   7
ATOM      7  C   UNL d   1      26.337  -8.922  -3.790  0.00  0.00     0.158 C 
BRANCH   7   8
ATOM      8  N   UNL d   1      26.982  -8.198  -2.679  0.00  0.00    -0.381 N 
ATOM      9  H   UNL d   1      27.659  -7.526  -3.039  0.00  0.00     0.160 HD
BRANCH   8  10
ATOM     10  C   UNL d   1      26.392  -7.879  -1.543  0.00  0.00     0.097 A 
ATOM     11  C   UNL d   1      25.445  -6.965  -1.146  0.00  0.00     0.147 A 
ATOM     12  C   UNL d   1      25.583  -7.394   0.262  0.00  0.00     0.236 A 
ATOM     13  O   UNL d   1      25.155  -7.093   1.355  0.00  0.00    -0.283 OA
ATOM     14  C   UNL d   1      26.599  -8.376  -0.140  0.00  0.00     0.113 A 
ATOM     15  N   UNL d   1      27.347  -9.229   0.496  0.00  0.00    -0.372 N 
ATOM     16  C   UNL d   1      27.250  -9.623   1.973  0.00  0.00     0.149 C 
ATOM     17  C   UNL d   1      28.385 -10.054  -0.247  0.00  0.00     0.149 C 
ATOM     18  C   UNL d   1      28.662  -9.755   2.575  0.00  0.00     0.187 C 
ATOM     19  O   UNL d   1      29.451 -10.676   1.815  0.00  0.00    -0.388 OA
ATOM     20  C   UNL d   1      29.691 -10.154   0.519  0.00  0.00     0.187 C 
BRANCH  11  21
ATOM     21  O   UNL d   1      24.714  -6.077  -1.726  0.00  0.00    -0.355 OA
ATOM     22  H   UNL d   1      24.029  -6.459  -2.309  0.00  0.00     0.218 HD
ENDBRANCH  11  21
ENDBRANCH   8  10
ENDBRANCH   7   8
ENDBRANCH   4   7
BRANCH   1  23
ATOM     23  C   UNL d   1      26.039 -14.694  -3.228  0.00  0.00     0.252 C 
ATOM     24  O   UNL d   1      25.530 -15.390  -4.093  0.00  0.00    -0.268 OA
ATOM     25  N   UNL d   1      26.538 -15.159  -2.039  0.00  0.00    -0.348 N 
ATOM     26  H   UNL d   1      26.740 -14.516  -1.285  0.00  0.00     0.163 HD
BRANCH  25  27
ATOM     27  C   UNL d   1      26.585 -16.574  -1.705  0.00  0.00     0.118 C 
ATOM     28  C   UNL d   1      27.821 -16.779  -0.829  0.00  0.00     0.030 C 
ATOM     29  C   UNL d   1      27.781 -18.133  -0.145  0.00  0.00     0.007 C 
ATOM     30  C   UNL d   1      26.568 -18.236   0.783  0.00  0.00     0.039 C 
ATOM     31  C   UNL d   1      25.280 -17.813   0.113  0.00  0.00    -0.050 A 
ATOM     32  C   UNL d   1      24.046 -18.200   0.667  0.00  0.00     0.007 A 
ATOM     33  C   UNL d   1      25.291 -17.014  -1.046  0.00  0.00    -0.029 A 
ATOM     34  C   UNL d   1      22.844 -17.841   0.051  0.00  0.00     0.001 A 
ATOM     35  C   UNL d   1      22.856 -17.088  -1.116  0.00  0.00     0.001 A 
ATOM     36  C   UNL d   1      24.070 -16.682  -1.660  0.00  0.00     0.010 A 
ENDBRANCH  25  27
ENDBRANCH   1  23
TORSDOF 6
ENDMDL
MODEL 5
REMARK VINA RESULT:    -7.978      6.255     11.063
REMARK INTER + INTRA:         -10.926
REMARK INTER:                  -9.768
REMARK INTRA:                  -1.158
REMARK CONF_INDEPENDENT:        1.790
REMARK UNBOUND:                -1.158
REMARK  6 active torsions:
REMARK  status: ('A' for Active; 'I' for Inactive)
REMARK       I    between atoms: C_2  and  N_3 
REMARK    1  A    between atoms: C_2  and  C_14 
REMARK    2  A    between atoms: C_4  and  N_3 
REMARK    3  A    between atoms: C_17  and  C_18 
REMARK    4  A    between atoms: C_18  and  N_19 
REMARK    5  A    between atoms: N_19  and  C_20 
REMARK    6  A    between atoms: C_21  and  O_22 
ROOT
ATOM      1  C   UNL d   1      29.160 -13.630   5.579  0.00  0.00     0.032 A 
ATOM      2  C   UNL d   1      27.805 -13.746   5.260  0.00  0.00     0.017 A 
ATOM      3  C   UNL d   1      27.428 -14.080   3.953  0.00  0.00     0.010 A 
ATOM      4  C   UNL d   1      28.392 -14.203   2.930  0.00  0.00    -0.041 A 
ATOM      5  C   UNL d   1      29.741 -14.052   3.273  0.00  0.00     0.010 A 
ATOM      6  C   UNL d   1      30.121 -13.764   4.582  0.00  0.00     0.017 A 
ENDROOT
BRANCH   4   7
ATOM      7  C   UNL d   1      27.911 -14.426   1.513  0.00  0.00     0.158 C 
BRANCH   7   8
ATOM      8  N   UNL d   1      28.063 -15.810   1.029  0.00  0.00    -0.381 N 
ATOM      9  H   UNL d   1      28.717 -16.323   1.619  0.00  0.00     0.160 HD
BRANCH   8  10
ATOM     10  C   UNL d   1      27.106 -16.521   0.466  0.00  0.00     0.097 A 
ATOM     11  C   UNL d   1      26.642 -17.811   0.574  0.00  0.00     0.147 A 
ATOM     12  C   UNL d   1      25.658 -17.576  -0.504  0.00  0.00     0.236 A 
ATOM     13  O   UNL d   1      24.824 -18.193  -1.132  0.00  0.00    -0.283 OA
ATOM     14  C   UNL d   1      26.140 -16.195  -0.639  0.00  0.00     0.113 A 
ATOM     15  N   UNL d   1      25.852 -15.199  -1.424  0.00  0.00    -0.372 N 
ATOM     16  C   UNL d   1      24.689 -15.110  -2.416  0.00  0.00     0.149 C 
ATOM     17  C   UNL d   1      26.631 -13.897  -1.342  0.00  0.00     0.149 C 
ATOM     18  C   UNL d   1      25.163 -14.445  -3.723  0.00  0.00     0.187 C 
ATOM     19  O   UNL d   1      25.750 -13.169  -3.456  0.00  0.00    -0.388 OA
ATOM     20  C   UNL d   1      26.947 -13.332  -2.714  0.00  0.00     0.187 C 
BRANCH  11  21
ATOM     21  O   UNL d   1      26.920 -18.838   1.299  0.00  0.00    -0.355 OA
ATOM     22  H   UNL d   1      27.871 -19.063   1.305  0.00  0.00     0.218 HD
ENDBRANCH  11  21
ENDBRANCH   8  10
ENDBRANCH   7   8
ENDBRANCH   4   7
BRANCH   1  23
ATOM     23  C   UNL d   1      29.630 -13.393   6.962  0.00  0.00     0.252 C 
ATOM     24  O   UNL d   1      29.437 -12.309   7.493  0.00  0.00    -0.268 OA
ATOM     25  N   UNL d   1      30.325 -14.431   7.526  0.00  0.00    -0.348 N 
ATOM     26  H   UNL d   1      30.635 -15.206   6.955  0.00  0.00     0.163 HD
BRANCH  25  27
ATOM     27  C   UNL d   1      30.856 -14.378   8.880  0.00  0.00     0.118 C 
ATOM     28  C   UNL d   1      32.094 -13.482   8.832  0.00  0.00     0.030 C 
ATOM     29  C   UNL d   1      32.525 -13.081  10.231  0.00  0.00     0.007 C 
ATOM     30  C   UNL d   1      31.427 -12.270  10.925  0.00  0.00     0.039 C 
ATOM     31  C   UNL d   1      30.068 -12.925  10.832  0.00  0.00    -0.050 A 
ATOM     32  C   UNL d   1      29.045 -12.539  11.717  0.00  0.00     0.007 A 
ATOM     33  C   UNL d   1      29.797 -13.902   9.855  0.00  0.00    -0.029 A 
ATOM     34  C   UNL d   1      27.789 -13.147  11.665  0.00  0.00     0.001 A 
ATOM     35  C   UNL d   1      27.533 -14.141  10.728  0.00  0.00     0.001 A 
ATOM     36  C   UNL d   1      28.531 -14.516   9.835  0.00  0.00     0.010 A 
ENDBRANCH  25  27
ENDBRANCH   1  23
TORSDOF 6
ENDMDL
MODEL 6
REMARK VINA RESULT:    -7.879      6.510      7.870
REMARK INTER + INTRA:         -10.731
REMARK INTER:                  -9.669
REMARK INTRA:                  -1.062
REMARK CONF_INDEPENDENT:        1.790
REMARK UNBOUND:                -1.062
REMARK  6 active torsions:
REMARK  status: ('A' for Active; 'I' for Inactive)
REMARK       I    between atoms: C_2  and  N_3 
REMARK    1  A    between atoms: C_2  and  C_14 
REMARK    2  A    between atoms: C_4  and  N_3 
REMARK    3  A    between atoms: C_17  and  C_18 
REMARK    4  A    between atoms: C_18  and  N_19 
REMARK    5  A    between atoms: N_19  and  C_20 
REMARK    6  A    between atoms: C_21  and  O_22 
ROOT
ATOM      1  C   UNL d   1      28.035 -14.009   2.519  0.00  0.00     0.032 A 
ATOM      2  C   UNL d   1      29.392 -13.687   2.450  0.00  0.00     0.017 A 
ATOM      3  C   UNL d   1      30.029 -13.137   3.569  0.00  0.00     0.010 A 
ATOM      4  C   UNL d   1      29.300 -12.812   4.733  0.00  0.00    -0.041 A 
ATOM      5  C   UNL d   1      27.934 -13.121   4.762  0.00  0.00     0.010 A 
ATOM      6  C   UNL d   1      27.307 -13.708   3.666  0.00  0.00     0.017 A 
ENDROOT
BRANCH   4   7
ATOM      7  C   UNL d   1      30.018 -12.094   5.853  0.00  0.00     0.158 C 
BRANCH   7   8
ATOM      8  N   UNL d   1      30.780 -12.977   6.754  0.00  0.00    -0.381 N 
ATOM      9  H   UNL d   1      31.184 -13.754   6.232  0.00  0.00     0.160 HD
BRANCH   8  10
ATOM     10  C   UNL d   1      31.454 -12.575   7.813  0.00  0.00     0.097 A 
ATOM     11  C   UNL d   1      32.774 -12.322   8.105  0.00  0.00     0.147 A 
ATOM     12  C   UNL d   1      32.434 -12.023   9.513  0.00  0.00     0.236 A 
ATOM     13  O   UNL d   1      32.996 -11.744  10.549  0.00  0.00    -0.283 OA
ATOM     14  C   UNL d   1      31.018 -12.291   9.224  0.00  0.00     0.113 A 
ATOM     15  N   UNL d   1      29.929 -12.310   9.933  0.00  0.00    -0.372 N 
ATOM     16  C   UNL d   1      29.760 -11.838  11.381  0.00  0.00     0.149 C 
ATOM     17  C   UNL d   1      28.606 -12.726   9.312  0.00  0.00     0.149 C 
ATOM     18  C   UNL d   1      28.854 -12.819  12.150  0.00  0.00     0.187 C 
ATOM     19  O   UNL d   1      27.601 -12.982  11.480  0.00  0.00    -0.388 OA
ATOM     20  C   UNL d   1      27.799 -13.624  10.232  0.00  0.00     0.187 C 
BRANCH  11  21
ATOM     21  O   UNL d   1      33.885 -12.331   7.454  0.00  0.00    -0.355 OA
ATOM     22  H   UNL d   1      33.887 -12.950   6.697  0.00  0.00     0.218 HD
ENDBRANCH  11  21
ENDBRANCH   8  10
ENDBRANCH   7   8
ENDBRANCH   4   7
BRANCH   1  23
ATOM     23  C   UNL d   1      27.327 -14.695   1.414  0.00  0.00     0.252 C 
ATOM     24  O   UNL d   1      26.284 -14.231   0.978  0.00  0.00    -0.268 OA
ATOM     25  N   UNL d   1      27.894 -15.874   1.004  0.00  0.00    -0.348 N 
ATOM     26  H   UNL d   1      28.627 -16.304   1.553  0.00  0.00     0.163 HD
BRANCH  25  27
ATOM     27  C   UNL d   1      27.341 -16.680  -0.073  0.00  0.00     0.118 C 
ATOM     28  C   UNL d   1      26.268 -17.572   0.552  0.00  0.00     0.030 C 
ATOM     29  C   UNL d   1      25.396 -18.200  -0.520  0.00  0.00     0.007 C 
ATOM     30  C   UNL d   1      24.656 -17.122  -1.317  0.00  0.00     0.039 C 
ATOM     31  C   UNL d   1      25.570 -16.017  -1.795  0.00  0.00    -0.050 A 
ATOM     32  C   UNL d   1      25.155 -15.172  -2.841  0.00  0.00     0.007 A 
ATOM     33  C   UNL d   1      26.824 -15.799  -1.194  0.00  0.00    -0.029 A 
ATOM     34  C   UNL d   1      25.993 -14.159  -3.315  0.00  0.00     0.001 A 
ATOM     35  C   UNL d   1      27.248 -13.970  -2.749  0.00  0.00     0.001 A 
ATOM     36  C   UNL d   1      27.659 -14.786  -1.701  0.00  0.00     0.010 A 
ENDBRANCH  25  27
ENDBRANCH   1  23
TORSDOF 6
ENDMDL
MODEL 7
REMARK VINA RESULT:    -7.655      6.073     10.178
REMARK INTER + INTRA:         -10.755
REMARK INTER:                  -9.445
REMARK INTRA:                  -1.310
REMARK CONF_INDEPENDENT:        1.790
REMARK UNBOUND:                -1.310
REMARK  6 active torsions:
REMARK  status: ('A' for Active; 'I' for Inactive)
REMARK       I    between atoms: C_2  and  N_3 
REMARK    1  A    between atoms: C_2  and  C_14 
REMARK    2  A    between atoms: C_4  and  N_3 
REMARK    3  A    between atoms: C_17  and  C_18 
REMARK    4  A    between atoms: C_18  and  N_19 
REMARK    5  A    between atoms: N_19  and  C_20 
REMARK    6  A    between atoms: C_21  and  O_22 
ROOT
ATOM      1  C   UNL d   1      29.528 -13.535   3.596  0.00  0.00     0.032 A 
ATOM      2  C   UNL d   1      30.704 -14.061   3.055  0.00  0.00     0.017 A 
ATOM      3  C   UNL d   1      30.670 -14.677   1.798  0.00  0.00     0.010 A 
ATOM      4  C   UNL d   1      29.450 -14.862   1.113  0.00  0.00    -0.041 A 
ATOM      5  C   UNL d   1      28.284 -14.349   1.694  0.00  0.00     0.010 A 
ATOM      6  C   UNL d   1      28.321 -13.697   2.924  0.00  0.00     0.017 A 
ENDROOT
BRANCH   4   7
ATOM      7  C   UNL d   1      29.463 -15.657  -0.174  0.00  0.00     0.158 C 
BRANCH   7   8
ATOM      8  N   UNL d   1      28.708 -16.922  -0.115  0.00  0.00    -0.381 N 
ATOM      9  H   UNL d   1      29.102 -17.539   0.595  0.00  0.00     0.160 HD
BRANCH   8  10
ATOM     10  C   UNL d   1      27.413 -17.038  -0.333  0.00  0.00     0.097 A 
ATOM     11  C   UNL d   1      26.363 -17.681   0.280  0.00  0.00     0.147 A 
ATOM     12  C   UNL d   1      25.435 -17.233  -0.780  0.00  0.00     0.236 A 
ATOM     13  O   UNL d   1      24.273 -17.373  -1.097  0.00  0.00    -0.283 OA
ATOM     14  C   UNL d   1      26.542 -16.542  -1.454  0.00  0.00     0.113 A 
ATOM     15  N   UNL d   1      26.660 -15.865  -2.558  0.00  0.00    -0.372 N 
ATOM     16  C   UNL d   1      25.530 -15.392  -3.478  0.00  0.00     0.149 C 
ATOM     17  C   UNL d   1      28.015 -15.347  -3.009  0.00  0.00     0.149 C 
ATOM     18  C   UNL d   1      25.942 -15.575  -4.951  0.00  0.00     0.187 C 
ATOM     19  O   UNL d   1      27.177 -14.906  -5.218  0.00  0.00    -0.388 OA
ATOM     20  C   UNL d   1      28.230 -15.528  -4.500  0.00  0.00     0.187 C 
BRANCH  11  21
ATOM     21  O   UNL d   1      26.205 -18.393   1.342  0.00  0.00    -0.355 OA
ATOM     22  H   UNL d   1      27.046 -18.717   1.720  0.00  0.00     0.218 HD
ENDBRANCH  11  21
ENDBRANCH   8  10
ENDBRANCH   7   8
ENDBRANCH   4   7
BRANCH   1  23
ATOM     23  C   UNL d   1      29.514 -12.773   4.866  0.00  0.00     0.252 C 
ATOM     24  O   UNL d   1      28.495 -12.196   5.218  0.00  0.00    -0.268 OA
ATOM     25  N   UNL d   1      30.712 -12.727   5.530  0.00  0.00    -0.348 N 
ATOM     26  H   UNL d   1      31.559 -13.039   5.074  0.00  0.00     0.163 HD
BRANCH  25  27
ATOM     27  C   UNL d   1      30.883 -12.030   6.796  0.00  0.00     0.118 C 
ATOM     28  C   UNL d   1      30.744 -10.537   6.499  0.00  0.00     0.030 C 
ATOM     29  C   UNL d   1      30.562  -9.745   7.781  0.00  0.00     0.007 C 
ATOM     30  C   UNL d   1      29.279 -10.168   8.502  0.00  0.00     0.039 C 
ATOM     31  C   UNL d   1      29.155 -11.668   8.647  0.00  0.00    -0.050 A 
ATOM     32  C   UNL d   1      28.268 -12.206   9.597  0.00  0.00     0.007 A 
ATOM     33  C   UNL d   1      29.897 -12.541   7.829  0.00  0.00    -0.029 A 
ATOM     34  C   UNL d   1      28.155 -13.588   9.765  0.00  0.00     0.001 A 
ATOM     35  C   UNL d   1      28.917 -14.450   8.986  0.00  0.00     0.001 A 
ATOM     36  C   UNL d   1      29.782 -13.929   8.029  0.00  0.00     0.010 A 
ENDBRANCH  25  27
ENDBRANCH   1  23
TORSDOF 6
ENDMDL
MODEL 8
REMARK VINA RESULT:    -7.554      6.047     10.407
REMARK INTER + INTRA:         -10.638
REMARK INTER:                  -9.344
REMARK INTRA:                  -1.294
REMARK CONF_INDEPENDENT:        1.790
REMARK UNBOUND:                -1.294
REMARK  6 active torsions:
REMARK  status: ('A' for Active; 'I' for Inactive)
REMARK       I    between atoms: C_2  and  N_3 
REMARK    1  A    between atoms: C_2  and  C_14 
REMARK    2  A    between atoms: C_4  and  N_3 
REMARK    3  A    between atoms: C_17  and  C_18 
REMARK    4  A    between atoms: C_18  and  N_19 
REMARK    5  A    between atoms: N_19  and  C_20 
REMARK    6  A    between atoms: C_21  and  O_22 
ROOT
ATOM      1  C   UNL d   1      27.798 -13.267   3.350  0.00  0.00     0.032 A 
ATOM      2  C   UNL d   1      28.140 -14.591   3.065  0.00  0.00     0.017 A 
ATOM      3  C   UNL d   1      27.793 -15.143   1.825  0.00  0.00     0.010 A 
ATOM      4  C   UNL d   1      27.018 -14.414   0.899  0.00  0.00    -0.041 A 
ATOM      5  C   UNL d   1      26.665 -13.099   1.224  0.00  0.00     0.010 A 
ATOM      6  C   UNL d   1      27.046 -12.533   2.439  0.00  0.00     0.017 A 
ENDROOT
BRANCH   4   7
ATOM      7  C   UNL d   1      26.559 -15.114  -0.361  0.00  0.00     0.158 C 
BRANCH   7   8
ATOM      8  N   UNL d   1      26.260 -14.210  -1.486  0.00  0.00    -0.381 N 
ATOM      9  H   UNL d   1      26.511 -13.251  -1.248  0.00  0.00     0.160 HD
BRANCH   8  10
ATOM     10  C   UNL d   1      26.349 -14.536  -2.761  0.00  0.00     0.097 A 
ATOM     11  C   UNL d   1      25.523 -14.462  -3.858  0.00  0.00     0.147 A 
ATOM     12  C   UNL d   1      26.536 -15.136  -4.698  0.00  0.00     0.236 A 
ATOM     13  O   UNL d   1      26.655 -15.549  -5.832  0.00  0.00    -0.283 OA
ATOM     14  C   UNL d   1      27.433 -15.229  -3.539  0.00  0.00     0.113 A 
ATOM     15  N   UNL d   1      28.608 -15.744  -3.332  0.00  0.00    -0.372 N 
ATOM     16  C   UNL d   1      29.571 -16.302  -4.384  0.00  0.00     0.149 C 
ATOM     17  C   UNL d   1      29.225 -15.737  -1.943  0.00  0.00     0.149 C 
ATOM     18  C   UNL d   1      30.234 -17.590  -3.859  0.00  0.00     0.187 C 
ATOM     19  O   UNL d   1      30.877 -17.352  -2.603  0.00  0.00    -0.388 OA
ATOM     20  C   UNL d   1      29.908 -17.050  -1.613  0.00  0.00     0.187 C 
BRANCH  11  21
ATOM     21  O   UNL d   1      24.344 -14.004  -4.101  0.00  0.00    -0.355 OA
ATOM     22  H   UNL d   1      24.049 -14.159  -5.020  0.00  0.00     0.218 HD
ENDBRANCH  11  21
ENDBRANCH   8  10
ENDBRANCH   7   8
ENDBRANCH   4   7
BRANCH   1  23
ATOM     23  C   UNL d   1      28.231 -12.588   4.593  0.00  0.00     0.252 C 
ATOM     24  O   UNL d   1      27.405 -12.032   5.302  0.00  0.00    -0.268 OA
ATOM     25  N   UNL d   1      29.583 -12.587   4.813  0.00  0.00    -0.348 N 
ATOM     26  H   UNL d   1      30.219 -12.871   4.080  0.00  0.00     0.163 HD
BRANCH  25  27
ATOM     27  C   UNL d   1      30.189 -11.973   5.986  0.00  0.00     0.118 C 
ATOM     28  C   UNL d   1      30.040 -10.461   5.816  0.00  0.00     0.030 C 
ATOM     29  C   UNL d   1      30.321  -9.741   7.122  0.00  0.00     0.007 C 
ATOM     30  C   UNL d   1      29.318 -10.160   8.200  0.00  0.00     0.039 C 
ATOM     31  C   UNL d   1      29.168 -11.660   8.311  0.00  0.00    -0.050 A 
ATOM     32  C   UNL d   1      28.606 -12.222   9.471  0.00  0.00     0.007 A 
ATOM     33  C   UNL d   1      29.561 -12.509   7.258  0.00  0.00    -0.029 A 
ATOM     34  C   UNL d   1      28.480 -13.607   9.605  0.00  0.00     0.001 A 
ATOM     35  C   UNL d   1      28.905 -14.447   8.583  0.00  0.00     0.001 A 
ATOM     36  C   UNL d   1      29.443 -13.901   7.423  0.00  0.00     0.010 A 
ENDBRANCH  25  27
ENDBRANCH   1  23
TORSDOF 6
ENDMDL
MODEL 9
REMARK VINA RESULT:    -7.471      6.810      9.238
REMARK INTER + INTRA:         -10.648
REMARK INTER:                  -9.261
REMARK INTRA:                  -1.387
REMARK CONF_INDEPENDENT:        1.790
REMARK UNBOUND:                -1.387
REMARK  6 active torsions:
REMARK  status: ('A' for Active; 'I' for Inactive)
REMARK       I    between atoms: C_2  and  N_3 
REMARK    1  A    between atoms: C_2  and  C_14 
REMARK    2  A    between atoms: C_4  and  N_3 
REMARK    3  A    between atoms: C_17  and  C_18 
REMARK    4  A    between atoms: C_18  and  N_19 
REMARK    5  A    between atoms: N_19  and  C_20 
REMARK    6  A    between atoms: C_21  and  O_22 
ROOT
ATOM      1  C   UNL d   1      28.123 -14.276   2.702  0.00  0.00     0.032 A 
ATOM      2  C   UNL d   1      29.505 -14.078   2.717  0.00  0.00     0.017 A 
ATOM      3  C   UNL d   1      30.141 -13.728   3.914  0.00  0.00     0.010 A 
ATOM      4  C   UNL d   1      29.394 -13.476   5.085  0.00  0.00    -0.041 A 
ATOM      5  C   UNL d   1      28.006 -13.655   5.032  0.00  0.00     0.010 A 
ATOM      6  C   UNL d   1      27.376 -14.046   3.853  0.00  0.00     0.017 A 
ENDROOT
BRANCH   4   7
ATOM      7  C   UNL d   1      30.124 -12.967   6.307  0.00  0.00     0.158 C 
BRANCH   7   8
ATOM      8  N   UNL d   1      29.269 -12.259   7.277  0.00  0.00    -0.381 N 
ATOM      9  H   UNL d   1      28.903 -12.911   7.971  0.00  0.00     0.160 HD
BRANCH   8  10
ATOM     10  C   UNL d   1      29.459 -11.019   7.686  0.00  0.00     0.097 A 
ATOM     11  C   UNL d   1      29.868 -10.417   8.853  0.00  0.00     0.147 A 
ATOM     12  C   UNL d   1      29.654  -9.077   8.266  0.00  0.00     0.236 A 
ATOM     13  O   UNL d   1      29.712  -7.913   8.601  0.00  0.00    -0.283 OA
ATOM     14  C   UNL d   1      29.210  -9.699   7.012  0.00  0.00     0.113 A 
ATOM     15  N   UNL d   1      28.762  -9.249   5.877  0.00  0.00    -0.372 N 
ATOM     16  C   UNL d   1      28.731  -7.791   5.408  0.00  0.00     0.149 C 
ATOM     17  C   UNL d   1      28.299 -10.206   4.792  0.00  0.00     0.149 C 
ATOM     18  C   UNL d   1      27.405  -7.502   4.679  0.00  0.00     0.187 C 
ATOM     19  O   UNL d   1      27.207  -8.425   3.605  0.00  0.00    -0.388 OA
ATOM     20  C   UNL d   1      27.024  -9.734   4.117  0.00  0.00     0.187 C 
BRANCH  11  21
ATOM     21  O   UNL d   1      30.277 -10.816  10.007  0.00  0.00    -0.355 OA
ATOM     22  H   UNL d   1      29.647 -10.625  10.729  0.00  0.00     0.218 HD
ENDBRANCH  11  21
ENDBRANCH   8  10
ENDBRANCH   7   8
ENDBRANCH   4   7
BRANCH   1  23
ATOM     23  C   UNL d   1      27.405 -14.756   1.499  0.00  0.00     0.252 C 
ATOM     24  O   UNL d   1      26.434 -14.141   1.083  0.00  0.00    -0.268 OA
ATOM     25  N   UNL d   1      27.873 -15.932   0.974  0.00  0.00    -0.348 N 
ATOM     26  H   UNL d   1      28.532 -16.495   1.494  0.00  0.00     0.163 HD
BRANCH  25  27
ATOM     27  C   UNL d   1      27.295 -16.550  -0.210  0.00  0.00     0.118 C 
ATOM     28  C   UNL d   1      26.127 -17.412   0.269  0.00  0.00     0.030 C 
ATOM     29  C   UNL d   1      25.246 -17.825  -0.896  0.00  0.00     0.007 C 
ATOM     30  C   UNL d   1      24.632 -16.597  -1.574  0.00  0.00     0.039 C 
ATOM     31  C   UNL d   1      25.655 -15.527  -1.886  0.00  0.00    -0.050 A 
ATOM     32  C   UNL d   1      25.354 -14.530  -2.830  0.00  0.00     0.007 A 
ATOM     33  C   UNL d   1      26.899 -15.497  -1.227  0.00  0.00    -0.029 A 
ATOM     34  C   UNL d   1      26.293 -13.545  -3.152  0.00  0.00     0.001 A 
ATOM     35  C   UNL d   1      27.537 -13.539  -2.532  0.00  0.00     0.001 A 
ATOM     36  C   UNL d   1      27.836 -14.509  -1.581  0.00  0.00     0.010 A 
ENDBRANCH  25  27
ENDBRANCH   1  23
TORSDOF 6
ENDMDL
