MODEL 1
REMARK VINA RESULT:   -10.833      0.000      0.000
REMARK INTER + INTRA:         -13.908
REMARK INTER:                 -12.325
REMARK INTRA:                  -1.584
REMARK CONF_INDEPENDENT:        1.492
REMARK UNBOUND:                -1.584
REMARK  5 active torsions:
REMARK  status: ('A' for Active; 'I' for Inactive)
REMARK       I    between atoms: C_2  and  N_3 
REMARK       I    between atoms: C_2  and  N_10 
REMARK    1  A    between atoms: N_3  and  C_4 
REMARK    2  A    between atoms: N_10  and  N_11 
REMARK       I    between atoms: N_11  and  C_12 
REMARK    3  A    between atoms: N_11  and  C_22 
REMARK       I    between atoms: C_12  and  N_14 
REMARK    4  A    between atoms: N_14  and  C_15 
REMARK    5  A    between atoms: C_24  and  C_25 
ROOT
ATOM      1  N   UNL d   1      24.487 -16.681  -1.056  0.00  0.00    -0.176 N 
ATOM      2  C   UNL d   1      23.603 -17.605  -0.430  0.00  0.00     0.348 C 
ATOM      3  O   UNL d   1      23.823 -18.083   0.692  0.00  0.00    -0.245 OA
ATOM      4  N   UNL d   1      22.458 -17.998  -1.079  0.00  0.00    -0.307 N 
ATOM      5  H   UNL d   1      22.412 -17.883  -2.088  0.00  0.00     0.170 HD
ENDROOT
BRANCH   1   6
ATOM      6  N   UNL d   1      24.180 -15.722  -2.148  0.00  0.00    -0.239 N 
ATOM      7  C   UNL d   1      24.993 -15.007  -3.030  0.00  0.00     0.335 C 
ATOM      8  O   UNL d   1      24.580 -14.067  -3.681  0.00  0.00    -0.246 OA
ATOM      9  N   UNL d   1      26.266 -15.467  -3.138  0.00  0.00    -0.337 N 
ATOM     10  H   UNL d   1      26.238 -16.478  -3.069  0.00  0.00     0.164 HD
ATOM     11  H   UNL d   1      23.213 -15.398  -2.132  0.00  0.00     0.192 HD
BRANCH   9  12
ATOM     12  C   UNL d   1      27.430 -14.925  -3.890  0.00  0.00     0.086 C 
ATOM     13  C   UNL d   1      28.657 -15.843  -3.807  0.00  0.00     0.025 C 
ATOM     14  C   UNL d   1      29.829 -15.607  -4.755  0.00  0.00     0.002 C 
ATOM     15  C   UNL d   1      29.344 -15.487  -6.201  0.00  0.00     0.000 C 
ATOM     16  C   UNL d   1      28.169 -14.517  -6.283  0.00  0.00     0.002 C 
ATOM     17  C   UNL d   1      27.011 -14.907  -5.375  0.00  0.00     0.025 C 
ENDBRANCH   9  12
ENDBRANCH   1   6
BRANCH   1  18
ATOM     18  C   UNL d   1      25.757 -16.512  -0.386  0.00  0.00     0.197 C 
ATOM     19  N   UNL d   1      26.259 -15.442   0.227  0.00  0.00    -0.222 NA
ATOM     20  C   UNL d   1      27.515 -15.751   0.820  0.00  0.00     0.076 C 
ATOM     21  C   UNL d   1      28.001 -17.007   0.516  0.00  0.00     0.086 C 
ATOM     22  S   UNL d   1      26.906 -17.817  -0.513  0.00  0.00    -0.060 SA
BRANCH  20  23
ATOM     23  C   UNL d   1      28.278 -14.838   1.688  0.00  0.00    -0.007 A 
ATOM     24  C   UNL d   1      27.780 -14.450   2.942  0.00  0.00     0.017 A 
ATOM     25  C   UNL d   1      28.499 -13.562   3.761  0.00  0.00     0.043 A 
ATOM     26  C   UNL d   1      29.730 -13.074   3.341  0.00  0.00     0.116 A 
ATOM     27  F   UNL d   1      30.402 -12.208   4.114  0.00  0.00    -0.206 F 
ATOM     28  C   UNL d   1      30.267 -13.473   2.126  0.00  0.00     0.043 A 
ATOM     29  C   UNL d   1      29.549 -14.359   1.305  0.00  0.00     0.017 A 
ENDBRANCH  20  23
ENDBRANCH   1  18
BRANCH   4  30
ATOM     30  C   UNL d   1      21.401 -18.727  -0.478  0.00  0.00     0.036 C 
ATOM     31  C   UNL d   1      21.356 -18.950   0.892  0.00  0.00     0.031 C 
ATOM     32  C   UNL d   1      20.318 -19.726   1.409  0.00  0.00     0.026 C 
ATOM     33  C   UNL d   1      19.244 -20.112   0.600  0.00  0.00     0.034 C 
ATOM     34 CL   UNL d   1      18.053 -21.200   1.185  0.00  0.00    -0.084 Cl
ATOM     35  C   UNL d   1      19.184 -19.725  -0.723  0.00  0.00     0.026 C 
ATOM     36  C   UNL d   1      20.323 -19.159  -1.270  0.00  0.00     0.031 C 
ENDBRANCH   4  30
TORSDOF 5
ENDMDL
MODEL 2
REMARK VINA RESULT:   -10.250      4.236      8.434
REMARK INTER + INTRA:         -13.011
REMARK INTER:                 -11.741
REMARK INTRA:                  -1.269
REMARK CONF_INDEPENDENT:        1.492
REMARK UNBOUND:                -1.269
REMARK  5 active torsions:
REMARK  status: ('A' for Active; 'I' for Inactive)
REMARK       I    between atoms: C_2  and  N_3 
REMARK       I    between atoms: C_2  and  N_10 
REMARK    1  A    between atoms: N_3  and  C_4 
REMARK    2  A    between atoms: N_10  and  N_11 
REMARK       I    between atoms: N_11  and  C_12 
REMARK    3  A    between atoms: N_11  and  C_22 
REMARK       I    between atoms: C_12  and  N_14 
REMARK    4  A    between atoms: N_14  and  C_15 
REMARK    5  A    between atoms: C_24  and  C_25 
ROOT
ATOM      1  N   UNL d   1      28.021 -15.022   0.823  0.00  0.00    -0.176 N 
ATOM      2  C   UNL d   1      28.147 -14.189   1.971  0.00  0.00     0.348 C 
ATOM      3  O   UNL d   1      27.837 -12.990   1.962  0.00  0.00    -0.245 OA
ATOM      4  N   UNL d   1      28.630 -14.716   3.143  0.00  0.00    -0.307 N 
ATOM      5  H   UNL d   1      29.174 -15.575   3.099  0.00  0.00     0.170 HD
ENDROOT
BRANCH   1   6
ATOM      6  N   UNL d   1      27.933 -16.504   0.775  0.00  0.00    -0.239 N 
ATOM      7  C   UNL d   1      26.923 -17.376   0.362  0.00  0.00     0.335 C 
ATOM      8  O   UNL d   1      26.928 -18.558   0.644  0.00  0.00    -0.246 OA
ATOM      9  N   UNL d   1      25.960 -16.812  -0.411  0.00  0.00    -0.337 N 
ATOM     10  H   UNL d   1      26.403 -16.119  -1.004  0.00  0.00     0.164 HD
ATOM     11  H   UNL d   1      28.678 -16.963   1.300  0.00  0.00     0.192 HD
BRANCH   9  12
ATOM     12  C   UNL d   1      24.699 -17.384  -0.955  0.00  0.00     0.086 C 
ATOM     13  C   UNL d   1      24.354 -18.740  -0.324  0.00  0.00     0.025 C 
ATOM     14  C   UNL d   1      22.959 -19.324  -0.531  0.00  0.00     0.002 C 
ATOM     15  C   UNL d   1      21.881 -18.289  -0.205  0.00  0.00     0.000 C 
ATOM     16  C   UNL d   1      22.197 -16.965  -0.895  0.00  0.00     0.002 C 
ATOM     17  C   UNL d   1      23.571 -16.419  -0.534  0.00  0.00     0.025 C 
ENDBRANCH   9  12
ENDBRANCH   1   6
BRANCH   1  18
ATOM     18  C   UNL d   1      27.715 -14.317  -0.402  0.00  0.00     0.197 C 
ATOM     19  N   UNL d   1      28.240 -14.457  -1.618  0.00  0.00    -0.222 NA
ATOM     20  C   UNL d   1      27.580 -13.607  -2.548  0.00  0.00     0.076 C 
ATOM     21  C   UNL d   1      26.669 -12.736  -1.984  0.00  0.00     0.086 C 
ATOM     22  S   UNL d   1      26.625 -12.960  -0.292  0.00  0.00    -0.060 SA
BRANCH  20  23
ATOM     23  C   UNL d   1      27.818 -13.611  -4.001  0.00  0.00    -0.007 A 
ATOM     24  C   UNL d   1      27.912 -14.817  -4.714  0.00  0.00     0.017 A 
ATOM     25  C   UNL d   1      28.160 -14.821  -6.097  0.00  0.00     0.043 A 
ATOM     26  C   UNL d   1      28.294 -13.619  -6.781  0.00  0.00     0.116 A 
ATOM     27  F   UNL d   1      28.555 -13.625  -8.096  0.00  0.00    -0.206 F 
ATOM     28  C   UNL d   1      28.163 -12.411  -6.110  0.00  0.00     0.043 A 
ATOM     29  C   UNL d   1      27.917 -12.405  -4.727  0.00  0.00     0.017 A 
ENDBRANCH  20  23
ENDBRANCH   1  18
BRANCH   4  30
ATOM     30  C   UNL d   1      28.592 -14.058   4.399  0.00  0.00     0.036 C 
ATOM     31  C   UNL d   1      27.779 -12.954   4.618  0.00  0.00     0.031 C 
ATOM     32  C   UNL d   1      27.835 -12.319   5.860  0.00  0.00     0.026 C 
ATOM     33  C   UNL d   1      28.546 -12.889   6.922  0.00  0.00     0.034 C 
ATOM     34 CL   UNL d   1      28.755 -12.035   8.395  0.00  0.00    -0.084 Cl
ATOM     35  C   UNL d   1      29.199 -14.095   6.766  0.00  0.00     0.026 C 
ATOM     36  C   UNL d   1      29.323 -14.586   5.477  0.00  0.00     0.031 C 
ENDBRANCH   4  30
TORSDOF 5
ENDMDL
MODEL 3
REMARK VINA RESULT:   -10.246      2.019      2.593
REMARK INTER + INTRA:         -13.918
REMARK INTER:                 -11.738
REMARK INTRA:                  -2.181
REMARK CONF_INDEPENDENT:        1.492
REMARK UNBOUND:                -2.181
REMARK  5 active torsions:
REMARK  status: ('A' for Active; 'I' for Inactive)
REMARK       I    between atoms: C_2  and  N_3 
REMARK       I    between atoms: C_2  and  N_10 
REMARK    1  A    between atoms: N_3  and  C_4 
REMARK    2  A    between atoms: N_10  and  N_11 
REMARK       I    between atoms: N_11  and  C_12 
REMARK    3  A    between atoms: N_11  and  C_22 
REMARK       I    between atoms: C_12  and  N_14 
REMARK    4  A    between atoms: N_14  and  C_15 
REMARK    5  A    between atoms: C_24  and  C_25 
ROOT
ATOM      1  N   UNL d   1      25.067 -16.888  -1.320  0.00  0.00    -0.176 N 
ATOM      2  C   UNL d   1      24.025 -17.561  -0.621  0.00  0.00     0.348 C 
ATOM      3  O   UNL d   1      23.863 -17.449   0.602  0.00  0.00    -0.245 OA
ATOM      4  N   UNL d   1      23.156 -18.370  -1.310  0.00  0.00    -0.307 N 
ATOM      5  H   UNL d   1      23.443 -18.725  -2.218  0.00  0.00     0.170 HD
ENDROOT
BRANCH   1   6
ATOM      6  N   UNL d   1      25.138 -16.574  -2.770  0.00  0.00    -0.239 N 
ATOM      7  C   UNL d   1      25.530 -15.431  -3.469  0.00  0.00     0.335 C 
ATOM      8  O   UNL d   1      25.270 -15.264  -4.644  0.00  0.00    -0.246 OA
ATOM      9  N   UNL d   1      26.258 -14.539  -2.748  0.00  0.00    -0.337 N 
ATOM     10  H   UNL d   1      26.854 -15.064  -2.117  0.00  0.00     0.164 HD
ATOM     11  H   UNL d   1      24.648 -17.257  -3.349  0.00  0.00     0.192 HD
BRANCH   9  12
ATOM     12  C   UNL d   1      26.767 -13.189  -3.110  0.00  0.00     0.086 C 
ATOM     13  C   UNL d   1      25.797 -12.425  -4.021  0.00  0.00     0.025 C 
ATOM     14  C   UNL d   1      26.005 -10.929  -4.242  0.00  0.00     0.002 C 
ATOM     15  C   UNL d   1      26.178 -10.200  -2.907  0.00  0.00     0.000 C 
ATOM     16  C   UNL d   1      27.197 -10.930  -2.038  0.00  0.00     0.002 C 
ATOM     17  C   UNL d   1      26.836 -12.388  -1.793  0.00  0.00     0.025 C 
ENDBRANCH   9  12
ENDBRANCH   1   6
BRANCH   1  18
ATOM     18  C   UNL d   1      26.046 -16.247  -0.472  0.00  0.00     0.197 C 
ATOM     19  N   UNL d   1      26.046 -15.023   0.053  0.00  0.00    -0.222 NA
ATOM     20  C   UNL d   1      27.179 -14.841   0.894  0.00  0.00     0.076 C 
ATOM     21  C   UNL d   1      28.087 -15.881   0.868  0.00  0.00     0.086 C 
ATOM     22  S   UNL d   1      27.547 -17.094  -0.203  0.00  0.00    -0.060 SA
BRANCH  20  23
ATOM     23  C   UNL d   1      27.414 -13.657   1.737  0.00  0.00    -0.007 A 
ATOM     24  C   UNL d   1      28.333 -13.697   2.798  0.00  0.00     0.017 A 
ATOM     25  C   UNL d   1      28.542 -12.573   3.615  0.00  0.00     0.043 A 
ATOM     26  C   UNL d   1      27.851 -11.394   3.363  0.00  0.00     0.116 A 
ATOM     27  F   UNL d   1      28.034 -10.331   4.158  0.00  0.00    -0.206 F 
ATOM     28  C   UNL d   1      26.969 -11.312   2.295  0.00  0.00     0.043 A 
ATOM     29  C   UNL d   1      26.757 -12.435   1.479  0.00  0.00     0.017 A 
ENDBRANCH  20  23
ENDBRANCH   1  18
BRANCH   4  30
ATOM     30  C   UNL d   1      21.958 -18.908  -0.773  0.00  0.00     0.036 C 
ATOM     31  C   UNL d   1      21.728 -18.951   0.595  0.00  0.00     0.031 C 
ATOM     32  C   UNL d   1      20.554 -19.548   1.058  0.00  0.00     0.026 C 
ATOM     33  C   UNL d   1      19.544 -19.921   0.165  0.00  0.00     0.034 C 
ATOM     34 CL   UNL d   1      18.176 -20.802   0.708  0.00  0.00    -0.084 Cl
ATOM     35  C   UNL d   1      19.684 -19.700  -1.191  0.00  0.00     0.026 C 
ATOM     36  C   UNL d   1      20.937 -19.325  -1.645  0.00  0.00     0.031 C 
ENDBRANCH   4  30
TORSDOF 5
ENDMDL
MODEL 4
REMARK VINA RESULT:   -10.027      4.565      8.127
REMARK INTER + INTRA:         -13.031
REMARK INTER:                 -11.519
REMARK INTRA:                  -1.512
REMARK CONF_INDEPENDENT:        1.492
REMARK UNBOUND:                -1.512
REMARK  5 active torsions:
REMARK  status: ('A' for Active; 'I' for Inactive)
REMARK       I    between atoms: C_2  and  N_3 
REMARK       I    between atoms: C_2  and  N_10 
REMARK    1  A    between atoms: N_3  and  C_4 
REMARK    2  A    between atoms: N_10  and  N_11 
REMARK       I    between atoms: N_11  and  C_12 
REMARK    3  A    between atoms: N_11  and  C_22 
REMARK       I    between atoms: C_12  and  N_14 
REMARK    4  A    between atoms: N_14  and  C_15 
REMARK    5  A    between atoms: C_24  and  C_25 
ROOT
ATOM      1  N   UNL d   1      28.162 -14.921   0.737  0.00  0.00    -0.176 N 
ATOM      2  C   UNL d   1      28.234 -14.160   1.939  0.00  0.00     0.348 C 
ATOM      3  O   UNL d   1      27.878 -12.975   2.001  0.00  0.00    -0.245 OA
ATOM      4  N   UNL d   1      28.717 -14.743   3.085  0.00  0.00    -0.307 N 
ATOM      5  H   UNL d   1      29.295 -15.575   2.997  0.00  0.00     0.170 HD
ENDROOT
BRANCH   1   6
ATOM      6  N   UNL d   1      28.133 -16.399   0.594  0.00  0.00    -0.239 N 
ATOM      7  C   UNL d   1      27.136 -17.287   0.187  0.00  0.00     0.335 C 
ATOM      8  O   UNL d   1      27.208 -18.484   0.385  0.00  0.00    -0.246 OA
ATOM      9  N   UNL d   1      26.100 -16.719  -0.483  0.00  0.00    -0.337 N 
ATOM     10  H   UNL d   1      26.474 -15.969  -1.054  0.00  0.00     0.164 HD
ATOM     11  H   UNL d   1      28.930 -16.856   1.038  0.00  0.00     0.192 HD
BRANCH   9  12
ATOM     12  C   UNL d   1      24.831 -17.312  -0.985  0.00  0.00     0.086 C 
ATOM     13  C   UNL d   1      24.502 -18.647  -0.303  0.00  0.00     0.025 C 
ATOM     14  C   UNL d   1      23.106 -19.240  -0.465  0.00  0.00     0.002 C 
ATOM     15  C   UNL d   1      22.031 -18.198  -0.153  0.00  0.00     0.000 C 
ATOM     16  C   UNL d   1      22.330 -16.897  -0.893  0.00  0.00     0.002 C 
ATOM     17  C   UNL d   1      23.709 -16.336  -0.575  0.00  0.00     0.025 C 
ENDBRANCH   9  12
ENDBRANCH   1   6
BRANCH   1  18
ATOM     18  C   UNL d   1      27.851 -14.151  -0.446  0.00  0.00     0.197 C 
ATOM     19  N   UNL d   1      27.232 -12.977  -0.560  0.00  0.00    -0.222 NA
ATOM     20  C   UNL d   1      27.213 -12.552  -1.917  0.00  0.00     0.076 C 
ATOM     21  C   UNL d   1      27.688 -13.484  -2.818  0.00  0.00     0.086 C 
ATOM     22  S   UNL d   1      28.160 -14.900  -1.990  0.00  0.00    -0.060 SA
BRANCH  20  23
ATOM     23  C   UNL d   1      26.729 -11.239  -2.376  0.00  0.00    -0.007 A 
ATOM     24  C   UNL d   1      27.038 -10.068  -1.666  0.00  0.00     0.017 A 
ATOM     25  C   UNL d   1      26.558  -8.818  -2.093  0.00  0.00     0.043 A 
ATOM     26  C   UNL d   1      25.786  -8.727  -3.245  0.00  0.00     0.116 A 
ATOM     27  F   UNL d   1      25.310  -7.537  -3.637  0.00  0.00    -0.206 F 
ATOM     28  C   UNL d   1      25.501  -9.862  -3.990  0.00  0.00     0.043 A 
ATOM     29  C   UNL d   1      25.978 -11.113  -3.564  0.00  0.00     0.017 A 
ENDBRANCH  20  23
ENDBRANCH   1  18
BRANCH   4  30
ATOM     30  C   UNL d   1      28.630 -14.168   4.379  0.00  0.00     0.036 C 
ATOM     31  C   UNL d   1      27.562 -13.363   4.749  0.00  0.00     0.031 C 
ATOM     32  C   UNL d   1      27.570 -12.783   6.018  0.00  0.00     0.026 C 
ATOM     33  C   UNL d   1      28.530 -13.153   6.966  0.00  0.00     0.034 C 
ATOM     34 CL   UNL d   1      28.647 -12.327   8.465  0.00  0.00    -0.084 Cl
ATOM     35  C   UNL d   1      29.484 -14.106   6.668  0.00  0.00     0.026 C 
ATOM     36  C   UNL d   1      29.600 -14.494   5.344  0.00  0.00     0.031 C 
ENDBRANCH   4  30
TORSDOF 5
ENDMDL
MODEL 5
REMARK VINA RESULT:    -9.583      2.406      3.047
REMARK INTER + INTRA:         -13.398
REMARK INTER:                 -11.075
REMARK INTRA:                  -2.323
REMARK CONF_INDEPENDENT:        1.492
REMARK UNBOUND:                -2.323
REMARK  5 active torsions:
REMARK  status: ('A' for Active; 'I' for Inactive)
REMARK       I    between atoms: C_2  and  N_3 
REMARK       I    between atoms: C_2  and  N_10 
REMARK    1  A    between atoms: N_3  and  C_4 
REMARK    2  A    between atoms: N_10  and  N_11 
REMARK       I    between atoms: N_11  and  C_12 
REMARK    3  A    between atoms: N_11  and  C_22 
REMARK       I    between atoms: C_12  and  N_14 
REMARK    4  A    between atoms: N_14  and  C_15 
REMARK    5  A    between atoms: C_24  and  C_25 
ROOT
ATOM      1  N   UNL d   1      25.050 -16.982  -1.551  0.00  0.00    -0.176 N 
ATOM      2  C   UNL d   1      24.129 -17.781  -0.816  0.00  0.00     0.348 C 
ATOM      3  O   UNL d   1      24.372 -18.199   0.325  0.00  0.00    -0.245 OA
ATOM      4  N   UNL d   1      22.920 -18.114  -1.375  0.00  0.00    -0.307 N 
ATOM      5  H   UNL d   1      22.826 -18.063  -2.386  0.00  0.00     0.170 HD
ENDROOT
BRANCH   1   6
ATOM      6  N   UNL d   1      24.763 -16.075  -2.692  0.00  0.00    -0.239 N 
ATOM      7  C   UNL d   1      25.589 -15.311  -3.519  0.00  0.00     0.335 C 
ATOM      8  O   UNL d   1      25.159 -14.424  -4.229  0.00  0.00    -0.246 OA
ATOM      9  N   UNL d   1      26.901 -15.661  -3.501  0.00  0.00    -0.337 N 
ATOM     10  H   UNL d   1      26.952 -16.670  -3.406  0.00  0.00     0.164 HD
ATOM     11  H   UNL d   1      23.774 -15.836  -2.770  0.00  0.00     0.192 HD
BRANCH   9  12
ATOM     12  C   UNL d   1      28.078 -15.037  -4.163  0.00  0.00     0.086 C 
ATOM     13  C   UNL d   1      29.298 -15.967  -4.183  0.00  0.00     0.025 C 
ATOM     14  C   UNL d   1      30.484 -15.620  -5.079  0.00  0.00     0.002 C 
ATOM     15  C   UNL d   1      30.019 -15.312  -6.503  0.00  0.00     0.000 C 
ATOM     16  C   UNL d   1      28.851 -14.330  -6.474  0.00  0.00     0.002 C 
ATOM     17  C   UNL d   1      27.679 -14.825  -5.639  0.00  0.00     0.025 C 
ENDBRANCH   9  12
ENDBRANCH   1   6
BRANCH   1  18
ATOM     18  C   UNL d   1      26.366 -16.880  -0.960  0.00  0.00     0.197 C 
ATOM     19  N   UNL d   1      27.523 -17.399  -1.366  0.00  0.00    -0.222 NA
ATOM     20  C   UNL d   1      28.584 -16.974  -0.520  0.00  0.00     0.076 C 
ATOM     21  C   UNL d   1      28.183 -16.264   0.594  0.00  0.00     0.086 C 
ATOM     22  S   UNL d   1      26.482 -16.117   0.604  0.00  0.00    -0.060 SA
BRANCH  20  23
ATOM     23  C   UNL d   1      30.010 -17.252  -0.762  0.00  0.00    -0.007 A 
ATOM     24  C   UNL d   1      31.003 -16.699   0.064  0.00  0.00     0.017 A 
ATOM     25  C   UNL d   1      32.365 -16.946  -0.181  0.00  0.00     0.043 A 
ATOM     26  C   UNL d   1      32.742 -17.765  -1.237  0.00  0.00     0.116 A 
ATOM     27  F   UNL d   1      34.043 -17.980  -1.482  0.00  0.00    -0.206 F 
ATOM     28  C   UNL d   1      31.782 -18.360  -2.043  0.00  0.00     0.043 A 
ATOM     29  C   UNL d   1      30.420 -18.112  -1.802  0.00  0.00     0.017 A 
ENDBRANCH  20  23
ENDBRANCH   1  18
BRANCH   4  30
ATOM     30  C   UNL d   1      21.841 -18.705  -0.669  0.00  0.00     0.036 C 
ATOM     31  C   UNL d   1      21.772 -18.672   0.717  0.00  0.00     0.031 C 
ATOM     32  C   UNL d   1      20.713 -19.325   1.349  0.00  0.00     0.026 C 
ATOM     33  C   UNL d   1      19.644 -19.837   0.605  0.00  0.00     0.034 C 
ATOM     34 CL   UNL d   1      18.426 -20.783   1.358  0.00  0.00    -0.084 Cl
ATOM     35  C   UNL d   1      19.611 -19.700  -0.768  0.00  0.00     0.026 C 
ATOM     36  C   UNL d   1      20.768 -19.260  -1.388  0.00  0.00     0.031 C 
ENDBRANCH   4  30
TORSDOF 5
ENDMDL
MODEL 6
REMARK VINA RESULT:    -9.239      3.368      6.267
REMARK INTER + INTRA:         -12.356
REMARK INTER:                 -10.730
REMARK INTRA:                  -1.625
REMARK CONF_INDEPENDENT:        1.492
REMARK UNBOUND:                -1.625
REMARK  5 active torsions:
REMARK  status: ('A' for Active; 'I' for Inactive)
REMARK       I    between atoms: C_2  and  N_3 
REMARK       I    between atoms: C_2  and  N_10 
REMARK    1  A    between atoms: N_3  and  C_4 
REMARK    2  A    between atoms: N_10  and  N_11 
REMARK       I    between atoms: N_11  and  C_12 
REMARK    3  A    between atoms: N_11  and  C_22 
REMARK       I    between atoms: C_12  and  N_14 
REMARK    4  A    between atoms: N_14  and  C_15 
REMARK    5  A    between atoms: C_24  and  C_25 
ROOT
ATOM      1  N   UNL d   1      27.620 -15.602   0.027  0.00  0.00    -0.176 N 
ATOM      2  C   UNL d   1      26.579 -16.523  -0.281  0.00  0.00     0.348 C 
ATOM      3  O   UNL d   1      26.784 -17.735  -0.435  0.00  0.00    -0.245 OA
ATOM      4  N   UNL d   1      25.289 -16.072  -0.420  0.00  0.00    -0.307 N 
ATOM      5  H   UNL d   1      25.142 -15.084  -0.613  0.00  0.00     0.170 HD
ENDROOT
BRANCH   1   6
ATOM      6  N   UNL d   1      27.495 -14.257   0.646  0.00  0.00    -0.239 N 
ATOM      7  C   UNL d   1      27.528 -13.823   1.972  0.00  0.00     0.335 C 
ATOM      8  O   UNL d   1      27.143 -12.721   2.308  0.00  0.00    -0.246 OA
ATOM      9  N   UNL d   1      28.061 -14.710   2.852  0.00  0.00    -0.337 N 
ATOM     10  H   UNL d   1      28.819 -15.195   2.384  0.00  0.00     0.164 HD
ATOM     11  H   UNL d   1      27.150 -13.551  -0.006  0.00  0.00     0.192 HD
BRANCH   9  12
ATOM     12  C   UNL d   1      28.182 -14.648   4.334  0.00  0.00     0.086 C 
ATOM     13  C   UNL d   1      29.633 -14.801   4.808  0.00  0.00     0.025 C 
ATOM     14  C   UNL d   1      29.984 -14.461   6.254  0.00  0.00     0.002 C 
ATOM     15  C   UNL d   1      29.435 -13.086   6.638  0.00  0.00     0.000 C 
ATOM     16  C   UNL d   1      27.971 -12.971   6.226  0.00  0.00     0.002 C 
ATOM     17  C   UNL d   1      27.749 -13.225   4.742  0.00  0.00     0.025 C 
ENDBRANCH   9  12
ENDBRANCH   1   6
BRANCH   1  18
ATOM     18  C   UNL d   1      28.955 -16.147  -0.069  0.00  0.00     0.197 C 
ATOM     19  N   UNL d   1      30.013 -15.951   0.716  0.00  0.00    -0.222 NA
ATOM     20  C   UNL d   1      31.106 -16.755   0.291  0.00  0.00     0.076 C 
ATOM     21  C   UNL d   1      30.896 -17.429  -0.896  0.00  0.00     0.086 C 
ATOM     22  S   UNL d   1      29.340 -17.070  -1.497  0.00  0.00    -0.060 SA
BRANCH  20  23
ATOM     23  C   UNL d   1      32.382 -16.885   1.015  0.00  0.00    -0.007 A 
ATOM     24  C   UNL d   1      33.052 -15.752   1.505  0.00  0.00     0.017 A 
ATOM     25  C   UNL d   1      34.279 -15.874   2.178  0.00  0.00     0.043 A 
ATOM     26  C   UNL d   1      34.835 -17.131   2.384  0.00  0.00     0.116 A 
ATOM     27  F   UNL d   1      36.018 -17.243   3.005  0.00  0.00    -0.206 F 
ATOM     28  C   UNL d   1      34.175 -18.271   1.949  0.00  0.00     0.043 A 
ATOM     29  C   UNL d   1      32.948 -18.150   1.275  0.00  0.00     0.017 A 
ENDBRANCH  20  23
ENDBRANCH   1  18
BRANCH   4  30
ATOM     30  C   UNL d   1      24.147 -16.908  -0.502  0.00  0.00     0.036 C 
ATOM     31  C   UNL d   1      22.909 -16.413  -0.887  0.00  0.00     0.031 C 
ATOM     32  C   UNL d   1      21.814 -17.279  -0.890  0.00  0.00     0.026 C 
ATOM     33  C   UNL d   1      21.991 -18.654  -0.696  0.00  0.00     0.034 C 
ATOM     34 CL   UNL d   1      20.639 -19.697  -0.534  0.00  0.00    -0.084 Cl
ATOM     35  C   UNL d   1      23.252 -19.182  -0.506  0.00  0.00     0.026 C 
ATOM     36  C   UNL d   1      24.285 -18.289  -0.278  0.00  0.00     0.031 C 
ENDBRANCH   4  30
TORSDOF 5
ENDMDL
MODEL 7
REMARK VINA RESULT:    -9.233      4.209      6.627
REMARK INTER + INTRA:         -13.134
REMARK INTER:                 -10.725
REMARK INTRA:                  -2.409
REMARK CONF_INDEPENDENT:        1.492
REMARK UNBOUND:                -2.409
REMARK  5 active torsions:
REMARK  status: ('A' for Active; 'I' for Inactive)
REMARK       I    between atoms: C_2  and  N_3 
REMARK       I    between atoms: C_2  and  N_10 
REMARK    1  A    between atoms: N_3  and  C_4 
REMARK    2  A    between atoms: N_10  and  N_11 
REMARK       I    between atoms: N_11  and  C_12 
REMARK    3  A    between atoms: N_11  and  C_22 
REMARK       I    between atoms: C_12  and  N_14 
REMARK    4  A    between atoms: N_14  and  C_15 
REMARK    5  A    between atoms: C_24  and  C_25 
ROOT
ATOM      1  N   UNL d   1      27.361 -15.388  -2.596  0.00  0.00    -0.176 N 
ATOM      2  C   UNL d   1      26.042 -15.856  -2.334  0.00  0.00     0.348 C 
ATOM      3  O   UNL d   1      25.101 -15.671  -3.119  0.00  0.00    -0.245 OA
ATOM      4  N   UNL d   1      25.780 -16.539  -1.172  0.00  0.00    -0.307 N 
ATOM      5  H   UNL d   1      26.424 -16.430  -0.393  0.00  0.00     0.170 HD
ENDROOT
BRANCH   1   6
ATOM      6  N   UNL d   1      28.635 -15.875  -2.007  0.00  0.00    -0.239 N 
ATOM      7  C   UNL d   1      29.703 -16.599  -2.540  0.00  0.00     0.335 C 
ATOM      8  O   UNL d   1      30.539 -17.137  -1.841  0.00  0.00    -0.246 OA
ATOM      9  N   UNL d   1      29.760 -16.623  -3.897  0.00  0.00    -0.337 N 
ATOM     10  H   UNL d   1      29.448 -15.720  -4.236  0.00  0.00     0.164 HD
ATOM     11  H   UNL d   1      28.649 -15.818  -0.988  0.00  0.00     0.192 HD
BRANCH   9  12
ATOM     12  C   UNL d   1      30.678 -17.351  -4.813  0.00  0.00     0.086 C 
ATOM     13  C   UNL d   1      30.405 -18.861  -4.835  0.00  0.00     0.025 C 
ATOM     14  C   UNL d   1      31.034 -19.716  -5.931  0.00  0.00     0.002 C 
ATOM     15  C   UNL d   1      30.784 -19.104  -7.311  0.00  0.00     0.000 C 
ATOM     16  C   UNL d   1      31.127 -17.617  -7.296  0.00  0.00     0.002 C 
ATOM     17  C   UNL d   1      30.362 -16.840  -6.234  0.00  0.00     0.025 C 
ENDBRANCH   9  12
ENDBRANCH   1   6
BRANCH   1  18
ATOM     18  C   UNL d   1      27.472 -14.499  -3.730  0.00  0.00     0.197 C 
ATOM     19  N   UNL d   1      28.458 -14.368  -4.615  0.00  0.00    -0.222 NA
ATOM     20  C   UNL d   1      28.107 -13.421  -5.617  0.00  0.00     0.076 C 
ATOM     21  C   UNL d   1      26.923 -12.750  -5.384  0.00  0.00     0.086 C 
ATOM     22  S   UNL d   1      26.235 -13.284  -3.916  0.00  0.00    -0.060 SA
BRANCH  20  23
ATOM     23  C   UNL d   1      28.910 -13.137  -6.818  0.00  0.00    -0.007 A 
ATOM     24  C   UNL d   1      30.251 -13.544  -6.903  0.00  0.00     0.017 A 
ATOM     25  C   UNL d   1      31.023 -13.254  -8.041  0.00  0.00     0.043 A 
ATOM     26  C   UNL d   1      30.453 -12.575  -9.111  0.00  0.00     0.116 A 
ATOM     27  F   UNL d   1      31.198 -12.278 -10.185  0.00  0.00    -0.206 F 
ATOM     28  C   UNL d   1      29.118 -12.198  -9.073  0.00  0.00     0.043 A 
ATOM     29  C   UNL d   1      28.346 -12.485  -7.935  0.00  0.00     0.017 A 
ENDBRANCH  20  23
ENDBRANCH   1  18
BRANCH   4  30
ATOM     30  C   UNL d   1      24.577 -17.241  -0.903  0.00  0.00     0.036 C 
ATOM     31  C   UNL d   1      24.583 -18.575  -0.520  0.00  0.00     0.031 C 
ATOM     32  C   UNL d   1      23.361 -19.221  -0.328  0.00  0.00     0.026 C 
ATOM     33  C   UNL d   1      22.163 -18.498  -0.334  0.00  0.00     0.034 C 
ATOM     34 CL   UNL d   1      20.651 -19.306  -0.264  0.00  0.00    -0.084 Cl
ATOM     35  C   UNL d   1      22.167 -17.130  -0.520  0.00  0.00     0.026 C 
ATOM     36  C   UNL d   1      23.354 -16.551  -0.935  0.00  0.00     0.031 C 
ENDBRANCH   4  30
TORSDOF 5
ENDMDL
MODEL 8
REMARK VINA RESULT:    -9.065      5.162      9.266
REMARK INTER + INTRA:         -12.279
REMARK INTER:                 -10.556
REMARK INTRA:                  -1.723
REMARK CONF_INDEPENDENT:        1.492
REMARK UNBOUND:                -1.723
REMARK  5 active torsions:
REMARK  status: ('A' for Active; 'I' for Inactive)
REMARK       I    between atoms: C_2  and  N_3 
REMARK       I    between atoms: C_2  and  N_10 
REMARK    1  A    between atoms: N_3  and  C_4 
REMARK    2  A    between atoms: N_10  and  N_11 
REMARK       I    between atoms: N_11  and  C_12 
REMARK    3  A    between atoms: N_11  and  C_22 
REMARK       I    between atoms: C_12  and  N_14 
REMARK    4  A    between atoms: N_14  and  C_15 
REMARK    5  A    between atoms: C_24  and  C_25 
ROOT
ATOM      1  N   UNL d   1      28.189 -15.573  -3.953  0.00  0.00    -0.176 N 
ATOM      2  C   UNL d   1      28.843 -15.950  -5.160  0.00  0.00     0.348 C 
ATOM      3  O   UNL d   1      28.707 -15.318  -6.218  0.00  0.00    -0.245 OA
ATOM      4  N   UNL d   1      29.659 -17.054  -5.176  0.00  0.00    -0.307 N 
ATOM      5  H   UNL d   1      29.542 -17.751  -4.445  0.00  0.00     0.170 HD
ENDROOT
BRANCH   1   6
ATOM      6  N   UNL d   1      28.563 -15.935  -2.562  0.00  0.00    -0.239 N 
ATOM      7  C   UNL d   1      27.803 -16.188  -1.417  0.00  0.00     0.335 C 
ATOM      8  O   UNL d   1      28.290 -16.208  -0.304  0.00  0.00    -0.246 OA
ATOM      9  N   UNL d   1      26.490 -16.449  -1.646  0.00  0.00    -0.337 N 
ATOM     10  H   UNL d   1      26.425 -16.975  -2.511  0.00  0.00     0.164 HD
ATOM     11  H   UNL d   1      29.557 -15.805  -2.371  0.00  0.00     0.192 HD
BRANCH   9  12
ATOM     12  C   UNL d   1      25.368 -16.670  -0.695  0.00  0.00     0.086 C 
ATOM     13  C   UNL d   1      24.022 -16.200  -1.262  0.00  0.00     0.025 C 
ATOM     14  C   UNL d   1      22.732 -16.620  -0.562  0.00  0.00     0.002 C 
ATOM     15  C   UNL d   1      22.714 -18.130  -0.315  0.00  0.00     0.000 C 
ATOM     16  C   UNL d   1      24.031 -18.575   0.315  0.00  0.00     0.002 C 
ATOM     17  C   UNL d   1      25.247 -18.198  -0.520  0.00  0.00     0.025 C 
ENDBRANCH   9  12
ENDBRANCH   1   6
BRANCH   1  18
ATOM     18  C   UNL d   1      27.192 -14.538  -4.105  0.00  0.00     0.197 C 
ATOM     19  N   UNL d   1      27.318 -13.215  -4.021  0.00  0.00    -0.222 NA
ATOM     20  C   UNL d   1      26.084 -12.575  -4.321  0.00  0.00     0.076 C 
ATOM     21  C   UNL d   1      25.015 -13.434  -4.480  0.00  0.00     0.086 C 
ATOM     22  S   UNL d   1      25.530 -15.046  -4.256  0.00  0.00    -0.060 SA
BRANCH  20  23
ATOM     23  C   UNL d   1      25.906 -11.119  -4.453  0.00  0.00    -0.007 A 
ATOM     24  C   UNL d   1      25.905 -10.287  -3.322  0.00  0.00     0.017 A 
ATOM     25  C   UNL d   1      25.714  -8.900  -3.447  0.00  0.00     0.043 A 
ATOM     26  C   UNL d   1      25.544  -8.334  -4.704  0.00  0.00     0.116 A 
ATOM     27  F   UNL d   1      25.338  -7.014  -4.818  0.00  0.00    -0.206 F 
ATOM     28  C   UNL d   1      25.583  -9.126  -5.843  0.00  0.00     0.043 A 
ATOM     29  C   UNL d   1      25.772 -10.513  -5.720  0.00  0.00     0.017 A 
ENDBRANCH  20  23
ENDBRANCH   1  18
BRANCH   4  30
ATOM     30  C   UNL d   1      30.530 -17.398  -6.242  0.00  0.00     0.036 C 
ATOM     31  C   UNL d   1      31.338 -16.451  -6.856  0.00  0.00     0.031 C 
ATOM     32  C   UNL d   1      32.127 -16.846  -7.937  0.00  0.00     0.026 C 
ATOM     33  C   UNL d   1      32.251 -18.198  -8.274  0.00  0.00     0.034 C 
ATOM     34 CL   UNL d   1      33.083 -18.674  -9.696  0.00  0.00    -0.084 Cl
ATOM     35  C   UNL d   1      31.601 -19.169  -7.540  0.00  0.00     0.026 C 
ATOM     36  C   UNL d   1      30.650 -18.744  -6.627  0.00  0.00     0.031 C 
ENDBRANCH   4  30
TORSDOF 5
ENDMDL
MODEL 9
REMARK VINA RESULT:    -7.954      5.535      8.819
REMARK INTER + INTRA:         -12.203
REMARK INTER:                  -9.446
REMARK INTRA:                  -2.757
REMARK CONF_INDEPENDENT:        1.492
REMARK UNBOUND:                -2.757
REMARK  5 active torsions:
REMARK  status: ('A' for Active; 'I' for Inactive)
REMARK       I    between atoms: C_2  and  N_3 
REMARK       I    between atoms: C_2  and  N_10 
REMARK    1  A    between atoms: N_3  and  C_4 
REMARK    2  A    between atoms: N_10  and  N_11 
REMARK       I    between atoms: N_11  and  C_12 
REMARK    3  A    between atoms: N_11  and  C_22 
REMARK       I    between atoms: C_12  and  N_14 
REMARK    4  A    between atoms: N_14  and  C_15 
REMARK    5  A    between atoms: C_24  and  C_25 
ROOT
ATOM      1  N   UNL d   1      29.730 -14.003   3.813  0.00  0.00    -0.176 N 
ATOM      2  C   UNL d   1      29.197 -13.819   5.120  0.00  0.00     0.348 C 
ATOM      3  O   UNL d   1      27.980 -13.834   5.353  0.00  0.00    -0.245 OA
ATOM      4  N   UNL d   1      30.047 -13.614   6.179  0.00  0.00    -0.307 N 
ATOM      5  H   UNL d   1      30.990 -13.286   5.984  0.00  0.00     0.170 HD
ENDROOT
BRANCH   1   6
ATOM      6  N   UNL d   1      31.102 -14.430   3.438  0.00  0.00    -0.239 N 
ATOM      7  C   UNL d   1      31.614 -15.068   2.307  0.00  0.00     0.335 C 
ATOM      8  O   UNL d   1      32.717 -15.578   2.289  0.00  0.00    -0.246 OA
ATOM      9  N   UNL d   1      30.805 -15.040   1.217  0.00  0.00    -0.337 N 
ATOM     10  H   UNL d   1      30.326 -14.146   1.209  0.00  0.00     0.164 HD
ATOM     11  H   UNL d   1      31.753 -14.409   4.224  0.00  0.00     0.192 HD
BRANCH   9  12
ATOM     12  C   UNL d   1      30.959 -15.677  -0.119  0.00  0.00     0.086 C 
ATOM     13  C   UNL d   1      30.335 -17.077  -0.173  0.00  0.00     0.025 C 
ATOM     14  C   UNL d   1      30.128 -17.749  -1.528  0.00  0.00     0.002 C 
ATOM     15  C   UNL d   1      29.419 -16.805  -2.501  0.00  0.00     0.000 C 
ATOM     16  C   UNL d   1      30.093 -15.437  -2.492  0.00  0.00     0.002 C 
ATOM     17  C   UNL d   1      30.149 -14.811  -1.105  0.00  0.00     0.025 C 
ENDBRANCH   9  12
ENDBRANCH   1   6
BRANCH   1  18
ATOM     18  C   UNL d   1      28.746 -13.988   2.753  0.00  0.00     0.197 C 
ATOM     19  N   UNL d   1      28.367 -14.964   1.930  0.00  0.00    -0.222 NA
ATOM     20  C   UNL d   1      27.306 -14.525   1.091  0.00  0.00     0.076 C 
ATOM     21  C   UNL d   1      27.007 -13.182   1.198  0.00  0.00     0.086 C 
ATOM     22  S   UNL d   1      28.042 -12.447   2.339  0.00  0.00    -0.060 SA
BRANCH  20  23
ATOM     23  C   UNL d   1      26.562 -15.391   0.161  0.00  0.00    -0.007 A 
ATOM     24  C   UNL d   1      25.913 -14.853  -0.963  0.00  0.00     0.017 A 
ATOM     25  C   UNL d   1      25.185 -15.677  -1.838  0.00  0.00     0.043 A 
ATOM     26  C   UNL d   1      25.119 -17.045  -1.609  0.00  0.00     0.116 A 
ATOM     27  F   UNL d   1      24.404 -17.825  -2.433  0.00  0.00    -0.206 F 
ATOM     28  C   UNL d   1      25.785 -17.611  -0.531  0.00  0.00     0.043 A 
ATOM     29  C   UNL d   1      26.512 -16.789   0.346  0.00  0.00     0.017 A 
ENDBRANCH  20  23
ENDBRANCH   1  18
BRANCH   4  30
ATOM     30  C   UNL d   1      29.658 -13.643   7.543  0.00  0.00     0.036 C 
ATOM     31  C   UNL d   1      30.308 -14.446   8.469  0.00  0.00     0.031 C 
ATOM     32  C   UNL d   1      29.836 -14.469   9.782  0.00  0.00     0.026 C 
ATOM     33  C   UNL d   1      28.855 -13.565  10.204  0.00  0.00     0.034 C 
ATOM     34 CL   UNL d   1      28.154 -13.697  11.764  0.00  0.00    -0.084 Cl
ATOM     35  C   UNL d   1      28.341 -12.626   9.332  0.00  0.00     0.026 C 
ATOM     36  C   UNL d   1      28.651 -12.770   7.991  0.00  0.00     0.031 C 
ENDBRANCH   4  30
TORSDOF 5
ENDMDL
