MODEL 1
REMARK VINA RESULT:    -7.472      0.000      0.000
REMARK INTER + INTRA:         -13.719
REMARK INTER:                 -10.157
REMARK INTRA:                  -3.562
REMARK CONF_INDEPENDENT:        2.685
REMARK UNBOUND:                -3.562
REMARK  9 active torsions:
REMARK  status: ('A' for Active; 'I' for Inactive)
REMARK    1  A    between atoms: C_8  and  N_9 
REMARK       I    between atoms: N_9  and  C_10 
REMARK    2  A    between atoms: C_10  and  C_12 
REMARK       I    between atoms: C_12  and  N_14 
REMARK    3  A    between atoms: N_14  and  N_15 
REMARK    4  A    between atoms: C_16  and  C_17 
REMARK    5  A    between atoms: C_20  and  O_21 
REMARK    6  A    between atoms: O_21  and  C_22 
REMARK    7  A    between atoms: C_22  and  C_23 
REMARK       I    between atoms: C_23  and  N_25 
REMARK    8  A    between atoms: N_25  and  C_26 
REMARK    9  A    between atoms: C_26  and  C_27 
ROOT
ATOM      1  C   UNL d   1      27.029 -15.315   0.098  0.00  0.00    -0.017 A 
ATOM      2  C   UNL d   1      27.078 -14.141  -0.655  0.00  0.00     0.015 A 
ATOM      3  C   UNL d   1      26.304 -14.038  -1.830  0.00  0.00     0.037 A 
ATOM      4  C   UNL d   1      25.516 -15.111  -2.281  0.00  0.00     0.069 A 
ATOM      5  C   UNL d   1      25.470 -16.271  -1.512  0.00  0.00     0.037 A 
ATOM      6  C   UNL d   1      26.224 -16.373  -0.335  0.00  0.00     0.015 A 
ENDROOT
BRANCH   1   7
ATOM      7  C   UNL d   1      27.789 -15.482   1.367  0.00  0.00     0.150 C 
ATOM      8  N   UNL d   1      27.560 -14.674   2.357  0.00  0.00    -0.183 NA
BRANCH   8   9
ATOM      9  N   UNL d   1      28.284 -14.822   3.503  0.00  0.00    -0.239 N 
ATOM     10  C   UNL d   1      27.960 -14.128   4.684  0.00  0.00     0.329 C 
ATOM     11  O   UNL d   1      27.047 -13.339   4.887  0.00  0.00    -0.261 OA
ATOM     12  H   UNL d   1      29.095 -15.447   3.539  0.00  0.00     0.192 HD
BRANCH  10  13
ATOM     13  C   UNL d   1      28.940 -14.482   5.808  0.00  0.00     0.315 C 
ATOM     14  N   UNL d   1      28.777 -13.912   7.084  0.00  0.00    -0.318 N 
ATOM     15  H   UNL d   1      27.973 -13.293   7.169  0.00  0.00     0.169 HD
ATOM     16  O   UNL d   1      29.789 -15.274   5.401  0.00  0.00    -0.262 OA
BRANCH  14  17
ATOM     17  C   UNL d   1      29.593 -14.076   8.276  0.00  0.00     0.041 A 
ATOM     18  C   UNL d   1      30.954 -14.451   8.127  0.00  0.00     0.032 A 
ATOM     19  C   UNL d   1      31.810 -14.644   9.244  0.00  0.00     0.026 A 
ATOM     20  C   UNL d   1      31.325 -14.480  10.532  0.00  0.00     0.034 A 
ATOM     21  C   UNL d   1      30.006 -14.117  10.707  0.00  0.00     0.032 A 
ATOM     22 CL   UNL d   1      32.323 -14.706  11.915  0.00  0.00    -0.084 Cl
ATOM     23  C   UNL d   1      29.149 -13.900   9.606  0.00  0.00    -0.034 A 
ATOM     24  C   UNL d   1      27.780 -13.464   9.997  0.00  0.00     0.050 C 
ENDBRANCH  14  17
ENDBRANCH  10  13
ENDBRANCH   8   9
ENDBRANCH   1   7
BRANCH   4  25
ATOM     25  O   UNL d   1      24.853 -14.918  -3.465  0.00  0.00    -0.342 OA
BRANCH  25  26
ATOM     26  C   UNL d   1      24.633 -13.577  -3.922  0.00  0.00     0.278 C 
BRANCH  26  27
ATOM     27  C   UNL d   1      25.794 -13.092  -4.824  0.00  0.00     0.242 C 
ATOM     28  O   UNL d   1      25.956 -11.913  -5.133  0.00  0.00    -0.271 OA
ATOM     29  N   UNL d   1      26.665 -14.073  -5.268  0.00  0.00    -0.353 N 
ATOM     30  H   UNL d   1      26.538 -15.044  -5.012  0.00  0.00     0.162 HD
BRANCH  29  31
ATOM     31  C   UNL d   1      27.780 -13.731  -6.142  0.00  0.00     0.187 C 
BRANCH  31  32
ATOM     32  C   UNL d   1      28.819 -14.790  -6.054  0.00  0.00     0.070 A 
ATOM     33  C   UNL d   1      30.093 -14.860  -6.575  0.00  0.00     0.036 A 
ATOM     34  C   UNL d   1      30.652 -16.076  -6.122  0.00  0.00     0.027 A 
ATOM     35  C   UNL d   1      29.666 -16.701  -5.393  0.00  0.00     0.142 A 
ATOM     36  O   UNL d   1      28.547 -15.925  -5.342  0.00  0.00    -0.325 OA
ENDBRANCH  31  32
ENDBRANCH  29  31
ENDBRANCH  26  27
ENDBRANCH  25  26
ENDBRANCH   4  25
TORSDOF 9
ENDMDL
MODEL 2
REMARK VINA RESULT:    -7.397      1.429      1.926
REMARK INTER + INTRA:         -13.686
REMARK INTER:                 -10.082
REMARK INTRA:                  -3.604
REMARK CONF_INDEPENDENT:        2.685
REMARK UNBOUND:                -3.604
REMARK  9 active torsions:
REMARK  status: ('A' for Active; 'I' for Inactive)
REMARK    1  A    between atoms: C_8  and  N_9 
REMARK       I    between atoms: N_9  and  C_10 
REMARK    2  A    between atoms: C_10  and  C_12 
REMARK       I    between atoms: C_12  and  N_14 
REMARK    3  A    between atoms: N_14  and  N_15 
REMARK    4  A    between atoms: C_16  and  C_17 
REMARK    5  A    between atoms: C_20  and  O_21 
REMARK    6  A    between atoms: O_21  and  C_22 
REMARK    7  A    between atoms: C_22  and  C_23 
REMARK       I    between atoms: C_23  and  N_25 
REMARK    8  A    between atoms: N_25  and  C_26 
REMARK    9  A    between atoms: C_26  and  C_27 
ROOT
ATOM      1  C   UNL d   1      27.053 -15.163   0.138  0.00  0.00    -0.017 A 
ATOM      2  C   UNL d   1      26.993 -13.898  -0.450  0.00  0.00     0.015 A 
ATOM      3  C   UNL d   1      26.274 -13.725  -1.651  0.00  0.00     0.037 A 
ATOM      4  C   UNL d   1      25.650 -14.810  -2.292  0.00  0.00     0.069 A 
ATOM      5  C   UNL d   1      25.710 -16.062  -1.685  0.00  0.00     0.037 A 
ATOM      6  C   UNL d   1      26.409 -16.238  -0.483  0.00  0.00     0.015 A 
ENDROOT
BRANCH   1   7
ATOM      7  C   UNL d   1      27.761 -15.414   1.423  0.00  0.00     0.150 C 
ATOM      8  N   UNL d   1      27.629 -14.567   2.398  0.00  0.00    -0.183 NA
BRANCH   8   9
ATOM      9  N   UNL d   1      28.307 -14.797   3.559  0.00  0.00    -0.239 N 
ATOM     10  C   UNL d   1      28.119 -13.996   4.702  0.00  0.00     0.329 C 
ATOM     11  O   UNL d   1      27.375 -13.037   4.855  0.00  0.00    -0.261 OA
ATOM     12  H   UNL d   1      28.981 -15.564   3.635  0.00  0.00     0.192 HD
BRANCH  10  13
ATOM     13  C   UNL d   1      29.008 -14.478   5.854  0.00  0.00     0.315 C 
ATOM     14  N   UNL d   1      28.942 -13.837   7.104  0.00  0.00    -0.318 N 
ATOM     15  H   UNL d   1      28.264 -13.077   7.153  0.00  0.00     0.169 HD
ATOM     16  O   UNL d   1      29.701 -15.428   5.491  0.00  0.00    -0.262 OA
BRANCH  14  17
ATOM     17  C   UNL d   1      29.704 -14.099   8.314  0.00  0.00     0.041 A 
ATOM     18  C   UNL d   1      31.077 -14.440   8.198  0.00  0.00     0.032 A 
ATOM     19  C   UNL d   1      31.883 -14.723   9.332  0.00  0.00     0.026 A 
ATOM     20  C   UNL d   1      31.336 -14.685  10.604  0.00  0.00     0.034 A 
ATOM     21  C   UNL d   1      30.004 -14.357  10.749  0.00  0.00     0.032 A 
ATOM     22 CL   UNL d   1      32.272 -15.024  12.007  0.00  0.00    -0.084 Cl
ATOM     23  C   UNL d   1      29.195 -14.051   9.631  0.00  0.00    -0.034 A 
ATOM     24  C   UNL d   1      27.802 -13.672   9.995  0.00  0.00     0.050 C 
ENDBRANCH  14  17
ENDBRANCH  10  13
ENDBRANCH   8   9
ENDBRANCH   1   7
BRANCH   4  25
ATOM     25  O   UNL d   1      25.031 -14.534  -3.482  0.00  0.00    -0.342 OA
BRANCH  25  26
ATOM     26  C   UNL d   1      25.785 -13.894  -4.521  0.00  0.00     0.278 C 
BRANCH  26  27
ATOM     27  C   UNL d   1      26.959 -14.786  -4.994  0.00  0.00     0.242 C 
ATOM     28  O   UNL d   1      27.060 -15.207  -6.144  0.00  0.00    -0.271 OA
ATOM     29  N   UNL d   1      27.915 -15.084  -4.037  0.00  0.00    -0.353 N 
ATOM     30  H   UNL d   1      27.839 -14.735  -3.090  0.00  0.00     0.162 HD
BRANCH  29  31
ATOM     31  C   UNL d   1      29.051 -15.936  -4.368  0.00  0.00     0.187 C 
BRANCH  31  32
ATOM     32  C   UNL d   1      29.591 -16.544  -3.124  0.00  0.00     0.070 A 
ATOM     33  C   UNL d   1      30.572 -17.492  -2.925  0.00  0.00     0.036 A 
ATOM     34  C   UNL d   1      30.712 -17.646  -1.528  0.00  0.00     0.027 A 
ATOM     35  C   UNL d   1      29.772 -16.820  -0.957  0.00  0.00     0.142 A 
ATOM     36  O   UNL d   1      29.085 -16.141  -1.919  0.00  0.00    -0.325 OA
ENDBRANCH  31  32
ENDBRANCH  29  31
ENDBRANCH  26  27
ENDBRANCH  25  26
ENDBRANCH   4  25
TORSDOF 9
ENDMDL
MODEL 3
REMARK VINA RESULT:    -7.257      1.357      2.069
REMARK INTER + INTRA:         -12.847
REMARK INTER:                  -9.942
REMARK INTRA:                  -2.905
REMARK CONF_INDEPENDENT:        2.685
REMARK UNBOUND:                -2.905
REMARK  9 active torsions:
REMARK  status: ('A' for Active; 'I' for Inactive)
REMARK    1  A    between atoms: C_8  and  N_9 
REMARK       I    between atoms: N_9  and  C_10 
REMARK    2  A    between atoms: C_10  and  C_12 
REMARK       I    between atoms: C_12  and  N_14 
REMARK    3  A    between atoms: N_14  and  N_15 
REMARK    4  A    between atoms: C_16  and  C_17 
REMARK    5  A    between atoms: C_20  and  O_21 
REMARK    6  A    between atoms: O_21  and  C_22 
REMARK    7  A    between atoms: C_22  and  C_23 
REMARK       I    between atoms: C_23  and  N_25 
REMARK    8  A    between atoms: N_25  and  C_26 
REMARK    9  A    between atoms: C_26  and  C_27 
ROOT
ATOM      1  C   UNL d   1      27.147 -15.209   0.057  0.00  0.00    -0.017 A 
ATOM      2  C   UNL d   1      27.132 -13.981  -0.607  0.00  0.00     0.015 A 
ATOM      3  C   UNL d   1      26.394 -13.848  -1.802  0.00  0.00     0.037 A 
ATOM      4  C   UNL d   1      25.706 -14.940  -2.361  0.00  0.00     0.069 A 
ATOM      5  C   UNL d   1      25.722 -16.154  -1.680  0.00  0.00     0.037 A 
ATOM      6  C   UNL d   1      26.440 -16.288  -0.483  0.00  0.00     0.015 A 
ENDROOT
BRANCH   1   7
ATOM      7  C   UNL d   1      27.872 -15.414   1.341  0.00  0.00     0.150 C 
ATOM      8  N   UNL d   1      27.613 -14.638   2.349  0.00  0.00    -0.183 NA
BRANCH   8   9
ATOM      9  N   UNL d   1      28.306 -14.821   3.509  0.00  0.00    -0.239 N 
ATOM     10  C   UNL d   1      27.977 -14.128   4.690  0.00  0.00     0.329 C 
ATOM     11  O   UNL d   1      27.085 -13.314   4.881  0.00  0.00    -0.261 OA
ATOM     12  H   UNL d   1      29.096 -15.471   3.556  0.00  0.00     0.192 HD
BRANCH  10  13
ATOM     13  C   UNL d   1      28.920 -14.525   5.831  0.00  0.00     0.315 C 
ATOM     14  N   UNL d   1      28.816 -13.884   7.079  0.00  0.00    -0.318 N 
ATOM     15  H   UNL d   1      28.076 -13.185   7.134  0.00  0.00     0.169 HD
ATOM     16  O   UNL d   1      29.687 -15.413   5.463  0.00  0.00    -0.262 OA
BRANCH  14  17
ATOM     17  C   UNL d   1      29.614 -14.071   8.279  0.00  0.00     0.041 A 
ATOM     18  C   UNL d   1      30.976 -14.450   8.143  0.00  0.00     0.032 A 
ATOM     19  C   UNL d   1      31.815 -14.666   9.268  0.00  0.00     0.026 A 
ATOM     20  C   UNL d   1      31.313 -14.522  10.552  0.00  0.00     0.034 A 
ATOM     21  C   UNL d   1      29.994 -14.155  10.715  0.00  0.00     0.032 A 
ATOM     22 CL   UNL d   1      32.291 -14.775  11.945  0.00  0.00    -0.084 Cl
ATOM     23  C   UNL d   1      29.153 -13.915   9.606  0.00  0.00    -0.034 A 
ATOM     24  C   UNL d   1      27.781 -13.479   9.985  0.00  0.00     0.050 C 
ENDBRANCH  14  17
ENDBRANCH  10  13
ENDBRANCH   8   9
ENDBRANCH   1   7
BRANCH   4  25
ATOM     25  O   UNL d   1      25.073 -14.708  -3.554  0.00  0.00    -0.342 OA
BRANCH  25  26
ATOM     26  C   UNL d   1      25.550 -15.377  -4.730  0.00  0.00     0.278 C 
BRANCH  26  27
ATOM     27  C   UNL d   1      26.836 -14.710  -5.273  0.00  0.00     0.242 C 
ATOM     28  O   UNL d   1      27.642 -15.294  -5.994  0.00  0.00    -0.271 OA
ATOM     29  N   UNL d   1      27.032 -13.388  -4.906  0.00  0.00    -0.353 N 
ATOM     30  H   UNL d   1      26.369 -12.901  -4.317  0.00  0.00     0.162 HD
BRANCH  29  31
ATOM     31  C   UNL d   1      28.223 -12.670  -5.343  0.00  0.00     0.187 C 
BRANCH  31  32
ATOM     32  C   UNL d   1      28.101 -12.344  -6.788  0.00  0.00     0.070 A 
ATOM     33  C   UNL d   1      28.748 -12.854  -7.894  0.00  0.00     0.036 A 
ATOM     34  C   UNL d   1      28.190 -12.213  -9.023  0.00  0.00     0.027 A 
ATOM     35  C   UNL d   1      27.271 -11.312  -8.535  0.00  0.00     0.142 A 
ATOM     36  O   UNL d   1      27.206 -11.385  -7.176  0.00  0.00    -0.325 OA
ENDBRANCH  31  32
ENDBRANCH  29  31
ENDBRANCH  26  27
ENDBRANCH  25  26
ENDBRANCH   4  25
TORSDOF 9
ENDMDL
MODEL 4
REMARK VINA RESULT:    -7.254      2.078      3.875
REMARK INTER + INTRA:         -13.709
REMARK INTER:                  -9.939
REMARK INTRA:                  -3.770
REMARK CONF_INDEPENDENT:        2.685
REMARK UNBOUND:                -3.770
REMARK  9 active torsions:
REMARK  status: ('A' for Active; 'I' for Inactive)
REMARK    1  A    between atoms: C_8  and  N_9 
REMARK       I    between atoms: N_9  and  C_10 
REMARK    2  A    between atoms: C_10  and  C_12 
REMARK       I    between atoms: C_12  and  N_14 
REMARK    3  A    between atoms: N_14  and  N_15 
REMARK    4  A    between atoms: C_16  and  C_17 
REMARK    5  A    between atoms: C_20  and  O_21 
REMARK    6  A    between atoms: O_21  and  C_22 
REMARK    7  A    between atoms: C_22  and  C_23 
REMARK       I    between atoms: C_23  and  N_25 
REMARK    8  A    between atoms: N_25  and  C_26 
REMARK    9  A    between atoms: C_26  and  C_27 
ROOT
ATOM      1  C   UNL d   1      28.881 -15.026  -0.614  0.00  0.00    -0.017 A 
ATOM      2  C   UNL d   1      28.974 -16.275  -1.232  0.00  0.00     0.015 A 
ATOM      3  C   UNL d   1      28.651 -16.397  -2.600  0.00  0.00     0.037 A 
ATOM      4  C   UNL d   1      28.198 -15.294  -3.345  0.00  0.00     0.069 A 
ATOM      5  C   UNL d   1      28.123 -14.054  -2.715  0.00  0.00     0.037 A 
ATOM      6  C   UNL d   1      28.457 -13.923  -1.361  0.00  0.00     0.015 A 
ENDROOT
BRANCH   1   7
ATOM      7  C   UNL d   1      29.240 -14.814   0.815  0.00  0.00     0.150 C 
ATOM      8  N   UNL d   1      28.355 -15.052   1.735  0.00  0.00    -0.183 NA
BRANCH   8   9
ATOM      9  N   UNL d   1      28.690 -14.825   3.037  0.00  0.00    -0.239 N 
ATOM     10  C   UNL d   1      27.929 -13.977   3.865  0.00  0.00     0.329 C 
ATOM     11  O   UNL d   1      26.915 -13.347   3.597  0.00  0.00    -0.261 OA
ATOM     12  H   UNL d   1      29.513 -15.267   3.456  0.00  0.00     0.192 HD
BRANCH  10  13
ATOM     13  C   UNL d   1      28.535 -13.905   5.271  0.00  0.00     0.315 C 
ATOM     14  N   UNL d   1      28.128 -12.892   6.157  0.00  0.00    -0.318 N 
ATOM     15  H   UNL d   1      27.416 -12.266   5.784  0.00  0.00     0.169 HD
ATOM     16  O   UNL d   1      29.350 -14.813   5.432  0.00  0.00    -0.262 OA
BRANCH  14  17
ATOM     17  C   UNL d   1      28.584 -12.614   7.509  0.00  0.00     0.041 A 
ATOM     18  C   UNL d   1      28.530 -13.651   8.477  0.00  0.00     0.032 A 
ATOM     19  C   UNL d   1      28.944 -13.453   9.821  0.00  0.00     0.026 A 
ATOM     20  C   UNL d   1      29.408 -12.213  10.233  0.00  0.00     0.034 A 
ATOM     21  C   UNL d   1      29.471 -11.186   9.315  0.00  0.00     0.032 A 
ATOM     22 CL   UNL d   1      29.917 -11.924  11.850  0.00  0.00    -0.084 Cl
ATOM     23  C   UNL d   1      29.084 -11.375   7.969  0.00  0.00    -0.034 A 
ATOM     24  C   UNL d   1      29.273 -10.164   7.123  0.00  0.00     0.050 C 
ENDBRANCH  14  17
ENDBRANCH  10  13
ENDBRANCH   8   9
ENDBRANCH   1   7
BRANCH   4  25
ATOM     25  O   UNL d   1      27.858 -15.544  -4.648  0.00  0.00    -0.342 OA
BRANCH  25  26
ATOM     26  C   UNL d   1      26.756 -14.829  -5.223  0.00  0.00     0.278 C 
BRANCH  26  27
ATOM     27  C   UNL d   1      25.530 -14.832  -4.278  0.00  0.00     0.242 C 
ATOM     28  O   UNL d   1      24.571 -14.075  -4.420  0.00  0.00    -0.271 OA
ATOM     29  N   UNL d   1      25.563 -15.757  -3.248  0.00  0.00    -0.353 N 
ATOM     30  H   UNL d   1      26.348 -16.385  -3.130  0.00  0.00     0.162 HD
BRANCH  29  31
ATOM     31  C   UNL d   1      24.471 -15.830  -2.285  0.00  0.00     0.187 C 
BRANCH  31  32
ATOM     32  C   UNL d   1      24.841 -16.764  -1.189  0.00  0.00     0.070 A 
ATOM     33  C   UNL d   1      24.081 -17.359  -0.205  0.00  0.00     0.036 A 
ATOM     34  C   UNL d   1      24.950 -18.199   0.527  0.00  0.00     0.027 A 
ATOM     35  C   UNL d   1      26.200 -18.027  -0.021  0.00  0.00     0.142 A 
ATOM     36  O   UNL d   1      26.145 -17.157  -1.069  0.00  0.00    -0.325 OA
ENDBRANCH  31  32
ENDBRANCH  29  31
ENDBRANCH  26  27
ENDBRANCH  25  26
ENDBRANCH   4  25
TORSDOF 9
ENDMDL
MODEL 5
REMARK VINA RESULT:    -7.124      2.068      2.749
REMARK INTER + INTRA:         -13.307
REMARK INTER:                  -9.809
REMARK INTRA:                  -3.498
REMARK CONF_INDEPENDENT:        2.685
REMARK UNBOUND:                -3.498
REMARK  9 active torsions:
REMARK  status: ('A' for Active; 'I' for Inactive)
REMARK    1  A    between atoms: C_8  and  N_9 
REMARK       I    between atoms: N_9  and  C_10 
REMARK    2  A    between atoms: C_10  and  C_12 
REMARK       I    between atoms: C_12  and  N_14 
REMARK    3  A    between atoms: N_14  and  N_15 
REMARK    4  A    between atoms: C_16  and  C_17 
REMARK    5  A    between atoms: C_20  and  O_21 
REMARK    6  A    between atoms: O_21  and  C_22 
REMARK    7  A    between atoms: C_22  and  C_23 
REMARK       I    between atoms: C_23  and  N_25 
REMARK    8  A    between atoms: N_25  and  C_26 
REMARK    9  A    between atoms: C_26  and  C_27 
ROOT
ATOM      1  C   UNL d   1      27.511 -15.609  -0.862  0.00  0.00    -0.017 A 
ATOM      2  C   UNL d   1      26.284 -15.269  -1.434  0.00  0.00     0.015 A 
ATOM      3  C   UNL d   1      26.149 -15.275  -2.838  0.00  0.00     0.037 A 
ATOM      4  C   UNL d   1      27.237 -15.575  -3.676  0.00  0.00     0.069 A 
ATOM      5  C   UNL d   1      28.450 -15.923  -3.088  0.00  0.00     0.037 A 
ATOM      6  C   UNL d   1      28.587 -15.935  -1.693  0.00  0.00     0.015 A 
ENDROOT
BRANCH   1   7
ATOM      7  C   UNL d   1      27.719 -15.661   0.611  0.00  0.00     0.150 C 
ATOM      8  N   UNL d   1      28.014 -14.570   1.251  0.00  0.00    -0.183 NA
BRANCH   8   9
ATOM      9  N   UNL d   1      28.229 -14.639   2.595  0.00  0.00    -0.239 N 
ATOM     10  C   UNL d   1      27.788 -13.629   3.473  0.00  0.00     0.329 C 
ATOM     11  O   UNL d   1      27.179 -12.600   3.217  0.00  0.00    -0.261 OA
ATOM     12  H   UNL d   1      28.724 -15.433   3.011  0.00  0.00     0.192 HD
BRANCH  10  13
ATOM     13  C   UNL d   1      28.167 -13.965   4.919  0.00  0.00     0.315 C 
ATOM     14  N   UNL d   1      28.356 -12.929   5.852  0.00  0.00    -0.318 N 
ATOM     15  H   UNL d   1      28.202 -11.993   5.478  0.00  0.00     0.169 HD
ATOM     16  O   UNL d   1      28.257 -15.183   5.066  0.00  0.00    -0.262 OA
BRANCH  14  17
ATOM     17  C   UNL d   1      28.745 -13.009   7.250  0.00  0.00     0.041 A 
ATOM     18  C   UNL d   1      28.910 -14.288   7.843  0.00  0.00     0.032 A 
ATOM     19  C   UNL d   1      29.273 -14.447   9.206  0.00  0.00     0.026 A 
ATOM     20  C   UNL d   1      29.468 -13.336  10.011  0.00  0.00     0.034 A 
ATOM     21  C   UNL d   1      29.315 -12.080   9.463  0.00  0.00     0.032 A 
ATOM     22 CL   UNL d   1      29.907 -13.479  11.668  0.00  0.00    -0.084 Cl
ATOM     23  C   UNL d   1      28.975 -11.906   8.103  0.00  0.00    -0.034 A 
ATOM     24  C   UNL d   1      28.907 -10.478   7.687  0.00  0.00     0.050 C 
ENDBRANCH  14  17
ENDBRANCH  10  13
ENDBRANCH   8   9
ENDBRANCH   1   7
BRANCH   4  25
ATOM     25  O   UNL d   1      27.004 -15.492  -5.024  0.00  0.00    -0.342 OA
BRANCH  25  26
ATOM     26  C   UNL d   1      27.522 -14.366  -5.746  0.00  0.00     0.278 C 
BRANCH  26  27
ATOM     27  C   UNL d   1      28.842 -14.723  -6.471  0.00  0.00     0.242 C 
ATOM     28  O   UNL d   1      29.422 -13.947  -7.228  0.00  0.00    -0.271 OA
ATOM     29  N   UNL d   1      29.353 -15.984  -6.211  0.00  0.00    -0.353 N 
ATOM     30  H   UNL d   1      28.881 -16.624  -5.585  0.00  0.00     0.162 HD
BRANCH  29  31
ATOM     31  C   UNL d   1      30.579 -16.433  -6.860  0.00  0.00     0.187 C 
BRANCH  31  32
ATOM     32  C   UNL d   1      30.751 -17.892  -6.635  0.00  0.00     0.070 A 
ATOM     33  C   UNL d   1      31.544 -18.823  -7.270  0.00  0.00     0.036 A 
ATOM     34  C   UNL d   1      31.348 -20.051  -6.598  0.00  0.00     0.027 A 
ATOM     35  C   UNL d   1      30.407 -19.807  -5.624  0.00  0.00     0.142 A 
ATOM     36  O   UNL d   1      30.038 -18.494  -5.635  0.00  0.00    -0.325 OA
ENDBRANCH  31  32
ENDBRANCH  29  31
ENDBRANCH  26  27
ENDBRANCH  25  26
ENDBRANCH   4  25
TORSDOF 9
ENDMDL
MODEL 6
REMARK VINA RESULT:    -6.975      1.522      2.867
REMARK INTER + INTRA:         -13.223
REMARK INTER:                  -9.660
REMARK INTRA:                  -3.563
REMARK CONF_INDEPENDENT:        2.685
REMARK UNBOUND:                -3.563
REMARK  9 active torsions:
REMARK  status: ('A' for Active; 'I' for Inactive)
REMARK    1  A    between atoms: C_8  and  N_9 
REMARK       I    between atoms: N_9  and  C_10 
REMARK    2  A    between atoms: C_10  and  C_12 
REMARK       I    between atoms: C_12  and  N_14 
REMARK    3  A    between atoms: N_14  and  N_15 
REMARK    4  A    between atoms: C_16  and  C_17 
REMARK    5  A    between atoms: C_20  and  O_21 
REMARK    6  A    between atoms: O_21  and  C_22 
REMARK    7  A    between atoms: C_22  and  C_23 
REMARK       I    between atoms: C_23  and  N_25 
REMARK    8  A    between atoms: N_25  and  C_26 
REMARK    9  A    between atoms: C_26  and  C_27 
ROOT
ATOM      1  C   UNL d   1      26.981 -15.459   0.110  0.00  0.00    -0.017 A 
ATOM      2  C   UNL d   1      26.971 -14.249  -0.586  0.00  0.00     0.015 A 
ATOM      3  C   UNL d   1      26.302 -14.167  -1.825  0.00  0.00     0.037 A 
ATOM      4  C   UNL d   1      25.680 -15.292  -2.395  0.00  0.00     0.069 A 
ATOM      5  C   UNL d   1      25.690 -16.488  -1.682  0.00  0.00     0.037 A 
ATOM      6  C   UNL d   1      26.339 -16.572  -0.443  0.00  0.00     0.015 A 
ENDROOT
BRANCH   1   7
ATOM      7  C   UNL d   1      27.635 -15.611   1.438  0.00  0.00     0.150 C 
ATOM      8  N   UNL d   1      27.819 -14.562   2.180  0.00  0.00    -0.183 NA
BRANCH   8   9
ATOM      9  N   UNL d   1      28.445 -14.713   3.382  0.00  0.00    -0.239 N 
ATOM     10  C   UNL d   1      28.180 -13.862   4.472  0.00  0.00     0.329 C 
ATOM     11  O   UNL d   1      27.405 -12.918   4.541  0.00  0.00    -0.261 OA
ATOM     12  H   UNL d   1      29.134 -15.456   3.530  0.00  0.00     0.192 HD
BRANCH  10  13
ATOM     13  C   UNL d   1      29.023 -14.260   5.689  0.00  0.00     0.315 C 
ATOM     14  N   UNL d   1      28.962 -13.490   6.865  0.00  0.00    -0.318 N 
ATOM     15  H   UNL d   1      28.319 -12.701   6.819  0.00  0.00     0.169 HD
ATOM     16  O   UNL d   1      29.679 -15.271   5.442  0.00  0.00    -0.262 OA
BRANCH  14  17
ATOM     17  C   UNL d   1      29.688 -13.658   8.113  0.00  0.00     0.041 A 
ATOM     18  C   UNL d   1      30.866 -14.450   8.119  0.00  0.00     0.032 A 
ATOM     19  C   UNL d   1      31.620 -14.672   9.301  0.00  0.00     0.026 A 
ATOM     20  C   UNL d   1      31.211 -14.121  10.505  0.00  0.00     0.034 A 
ATOM     21  C   UNL d   1      30.069 -13.347  10.530  0.00  0.00     0.032 A 
ATOM     22 CL   UNL d   1      32.090 -14.365  11.963  0.00  0.00    -0.084 Cl
ATOM     23  C   UNL d   1      29.321 -13.100   9.358  0.00  0.00    -0.034 A 
ATOM     24  C   UNL d   1      28.154 -12.201   9.579  0.00  0.00     0.050 C 
ENDBRANCH  14  17
ENDBRANCH  10  13
ENDBRANCH   8   9
ENDBRANCH   1   7
BRANCH   4  25
ATOM     25  O   UNL d   1      25.112 -15.109  -3.628  0.00  0.00    -0.342 OA
BRANCH  25  26
ATOM     26  C   UNL d   1      25.794 -15.615  -4.784  0.00  0.00     0.278 C 
BRANCH  26  27
ATOM     27  C   UNL d   1      26.734 -14.548  -5.395  0.00  0.00     0.242 C 
ATOM     28  O   UNL d   1      27.656 -14.824  -6.160  0.00  0.00    -0.271 OA
ATOM     29  N   UNL d   1      26.473 -13.236  -5.035  0.00  0.00    -0.353 N 
ATOM     30  H   UNL d   1      25.713 -13.003  -4.409  0.00  0.00     0.162 HD
BRANCH  29  31
ATOM     31  C   UNL d   1      27.312 -12.153  -5.533  0.00  0.00     0.187 C 
BRANCH  31  32
ATOM     32  C   UNL d   1      26.803 -10.856  -5.015  0.00  0.00     0.070 A 
ATOM     33  C   UNL d   1      27.125  -9.556  -5.341  0.00  0.00     0.036 A 
ATOM     34  C   UNL d   1      26.283  -8.723  -4.571  0.00  0.00     0.027 A 
ATOM     35  C   UNL d   1      25.532  -9.564  -3.782  0.00  0.00     0.142 A 
ATOM     36  O   UNL d   1      25.838 -10.866  -4.046  0.00  0.00    -0.325 OA
ENDBRANCH  31  32
ENDBRANCH  29  31
ENDBRANCH  26  27
ENDBRANCH  25  26
ENDBRANCH   4  25
TORSDOF 9
ENDMDL
MODEL 7
REMARK VINA RESULT:    -6.862      1.913      3.165
REMARK INTER + INTRA:         -13.184
REMARK INTER:                  -9.546
REMARK INTRA:                  -3.637
REMARK CONF_INDEPENDENT:        2.685
REMARK UNBOUND:                -3.637
REMARK  9 active torsions:
REMARK  status: ('A' for Active; 'I' for Inactive)
REMARK    1  A    between atoms: C_8  and  N_9 
REMARK       I    between atoms: N_9  and  C_10 
REMARK    2  A    between atoms: C_10  and  C_12 
REMARK       I    between atoms: C_12  and  N_14 
REMARK    3  A    between atoms: N_14  and  N_15 
REMARK    4  A    between atoms: C_16  and  C_17 
REMARK    5  A    between atoms: C_20  and  O_21 
REMARK    6  A    between atoms: O_21  and  C_22 
REMARK    7  A    between atoms: C_22  and  C_23 
REMARK       I    between atoms: C_23  and  N_25 
REMARK    8  A    between atoms: N_25  and  C_26 
REMARK    9  A    between atoms: C_26  and  C_27 
ROOT
ATOM      1  C   UNL d   1      26.776 -14.281   0.139  0.00  0.00    -0.017 A 
ATOM      2  C   UNL d   1      26.829 -13.293  -0.845  0.00  0.00     0.015 A 
ATOM      3  C   UNL d   1      26.227 -13.529  -2.099  0.00  0.00     0.037 A 
ATOM      4  C   UNL d   1      25.610 -14.758  -2.393  0.00  0.00     0.069 A 
ATOM      5  C   UNL d   1      25.557 -15.729  -1.396  0.00  0.00     0.037 A 
ATOM      6  C   UNL d   1      26.139 -15.494  -0.142  0.00  0.00     0.015 A 
ENDROOT
BRANCH   1   7
ATOM      7  C   UNL d   1      27.357 -14.089   1.496  0.00  0.00     0.150 C 
ATOM      8  N   UNL d   1      27.749 -15.126   2.173  0.00  0.00    -0.183 NA
BRANCH   8   9
ATOM      9  N   UNL d   1      28.251 -14.936   3.426  0.00  0.00    -0.239 N 
ATOM     10  C   UNL d   1      27.843 -13.860   4.237  0.00  0.00     0.329 C 
ATOM     11  O   UNL d   1      27.030 -12.978   3.994  0.00  0.00    -0.261 OA
ATOM     12  H   UNL d   1      28.949 -15.575   3.818  0.00  0.00     0.192 HD
BRANCH  10  13
ATOM     13  C   UNL d   1      28.570 -13.891   5.586  0.00  0.00     0.315 C 
ATOM     14  N   UNL d   1      28.199 -12.991   6.601  0.00  0.00    -0.318 N 
ATOM     15  H   UNL d   1      27.429 -12.371   6.355  0.00  0.00     0.169 HD
ATOM     16  O   UNL d   1      29.435 -14.765   5.585  0.00  0.00    -0.262 OA
BRANCH  14  17
ATOM     17  C   UNL d   1      28.763 -12.820   7.930  0.00  0.00     0.041 A 
ATOM     18  C   UNL d   1      28.905 -13.959   8.765  0.00  0.00     0.032 A 
ATOM     19  C   UNL d   1      29.433 -13.870  10.080  0.00  0.00     0.026 A 
ATOM     20  C   UNL d   1      29.819 -12.643  10.597  0.00  0.00     0.034 A 
ATOM     21  C   UNL d   1      29.692 -11.518   9.809  0.00  0.00     0.032 A 
ATOM     22 CL   UNL d   1      30.461 -12.486  12.185  0.00  0.00    -0.084 Cl
ATOM     23  C   UNL d   1      29.189 -11.595   8.491  0.00  0.00    -0.034 A 
ATOM     24  C   UNL d   1      29.177 -10.284   7.784  0.00  0.00     0.050 C 
ENDBRANCH  14  17
ENDBRANCH  10  13
ENDBRANCH   8   9
ENDBRANCH   1   7
BRANCH   4  25
ATOM     25  O   UNL d   1      25.111 -14.896  -3.661  0.00  0.00    -0.342 OA
BRANCH  25  26
ATOM     26  C   UNL d   1      25.905 -15.575  -4.645  0.00  0.00     0.278 C 
BRANCH  26  27
ATOM     27  C   UNL d   1      26.820 -14.587  -5.407  0.00  0.00     0.242 C 
ATOM     28  O   UNL d   1      27.734 -14.952  -6.145  0.00  0.00    -0.271 OA
ATOM     29  N   UNL d   1      26.548 -13.242  -5.219  0.00  0.00    -0.353 N 
ATOM     30  H   UNL d   1      25.794 -12.937  -4.617  0.00  0.00     0.162 HD
BRANCH  29  31
ATOM     31  C   UNL d   1      27.363 -12.225  -5.871  0.00  0.00     0.187 C 
BRANCH  31  32
ATOM     32  C   UNL d   1      26.822 -10.878  -5.551  0.00  0.00     0.070 A 
ATOM     33  C   UNL d   1      27.098  -9.636  -6.081  0.00  0.00     0.036 A 
ATOM     34  C   UNL d   1      26.242  -8.717  -5.433  0.00  0.00     0.027 A 
ATOM     35  C   UNL d   1      25.530  -9.446  -4.509  0.00  0.00     0.142 A 
ATOM     36  O   UNL d   1      25.872 -10.764  -4.573  0.00  0.00    -0.325 OA
ENDBRANCH  31  32
ENDBRANCH  29  31
ENDBRANCH  26  27
ENDBRANCH  25  26
ENDBRANCH   4  25
TORSDOF 9
ENDMDL
MODEL 8
REMARK VINA RESULT:    -6.267      4.688     12.636
REMARK INTER + INTRA:         -12.691
REMARK INTER:                  -8.952
REMARK INTRA:                  -3.739
REMARK CONF_INDEPENDENT:        2.685
REMARK UNBOUND:                -3.739
REMARK  9 active torsions:
REMARK  status: ('A' for Active; 'I' for Inactive)
REMARK    1  A    between atoms: C_8  and  N_9 
REMARK       I    between atoms: N_9  and  C_10 
REMARK    2  A    between atoms: C_10  and  C_12 
REMARK       I    between atoms: C_12  and  N_14 
REMARK    3  A    between atoms: N_14  and  N_15 
REMARK    4  A    between atoms: C_16  and  C_17 
REMARK    5  A    between atoms: C_20  and  O_21 
REMARK    6  A    between atoms: O_21  and  C_22 
REMARK    7  A    between atoms: C_22  and  C_23 
REMARK       I    between atoms: C_23  and  N_25 
REMARK    8  A    between atoms: N_25  and  C_26 
REMARK    9  A    between atoms: C_26  and  C_27 
ROOT
ATOM      1  C   UNL d   1      28.950 -13.344   7.434  0.00  0.00    -0.017 A 
ATOM      2  C   UNL d   1      29.807 -14.136   8.201  0.00  0.00     0.015 A 
ATOM      3  C   UNL d   1      29.845 -13.963   9.600  0.00  0.00     0.037 A 
ATOM      4  C   UNL d   1      29.068 -12.979  10.236  0.00  0.00     0.069 A 
ATOM      5  C   UNL d   1      28.210 -12.206   9.457  0.00  0.00     0.037 A 
ATOM      6  C   UNL d   1      28.155 -12.384   8.068  0.00  0.00     0.015 A 
ENDROOT
BRANCH   1   7
ATOM      7  C   UNL d   1      28.828 -13.496   5.958  0.00  0.00     0.150 C 
ATOM      8  N   UNL d   1      28.683 -14.682   5.451  0.00  0.00    -0.183 NA
BRANCH   8   9
ATOM      9  N   UNL d   1      28.602 -14.807   4.095  0.00  0.00    -0.239 N 
ATOM     10  C   UNL d   1      27.646 -14.103   3.338  0.00  0.00     0.329 C 
ATOM     11  O   UNL d   1      26.792 -13.314   3.720  0.00  0.00    -0.261 OA
ATOM     12  H   UNL d   1      29.239 -15.424   3.582  0.00  0.00     0.192 HD
BRANCH  10  13
ATOM     13  C   UNL d   1      27.783 -14.435   1.848  0.00  0.00     0.315 C 
ATOM     14  N   UNL d   1      26.680 -14.267   0.991  0.00  0.00    -0.318 N 
ATOM     15  H   UNL d   1      25.844 -13.904   1.445  0.00  0.00     0.169 HD
ATOM     16  O   UNL d   1      28.921 -14.829   1.601  0.00  0.00    -0.262 OA
BRANCH  14  17
ATOM     17  C   UNL d   1      26.571 -14.545  -0.432  0.00  0.00     0.041 A 
ATOM     18  C   UNL d   1      26.835 -13.501  -1.356  0.00  0.00     0.032 A 
ATOM     19  C   UNL d   1      26.735 -13.691  -2.760  0.00  0.00     0.026 A 
ATOM     20  C   UNL d   1      26.357 -14.922  -3.272  0.00  0.00     0.034 A 
ATOM     21  C   UNL d   1      26.093 -15.956  -2.398  0.00  0.00     0.032 A 
ATOM     22 CL   UNL d   1      26.218 -15.200  -4.964  0.00  0.00    -0.084 Cl
ATOM     23  C   UNL d   1      26.210 -15.787  -1.000  0.00  0.00    -0.034 A 
ATOM     24  C   UNL d   1      25.934 -17.031  -0.229  0.00  0.00     0.050 C 
ENDBRANCH  14  17
ENDBRANCH  10  13
ENDBRANCH   8   9
ENDBRANCH   1   7
BRANCH   4  25
ATOM     25  O   UNL d   1      29.231 -12.862  11.591  0.00  0.00    -0.342 OA
BRANCH  25  26
ATOM     26  C   UNL d   1      30.562 -12.793  12.123  0.00  0.00     0.278 C 
BRANCH  26  27
ATOM     27  C   UNL d   1      31.222 -11.428  11.812  0.00  0.00     0.242 C 
ATOM     28  O   UNL d   1      32.396 -11.176  12.073  0.00  0.00    -0.271 OA
ATOM     29  N   UNL d   1      30.407 -10.488  11.203  0.00  0.00    -0.353 N 
ATOM     30  H   UNL d   1      29.441 -10.692  10.982  0.00  0.00     0.162 HD
BRANCH  29  31
ATOM     31  C   UNL d   1      30.920  -9.160  10.887  0.00  0.00     0.187 C 
BRANCH  31  32
ATOM     32  C   UNL d   1      30.392  -8.728   9.567  0.00  0.00     0.070 A 
ATOM     33  C   UNL d   1      30.557  -7.557   8.859  0.00  0.00     0.036 A 
ATOM     34  C   UNL d   1      29.874  -7.722   7.634  0.00  0.00     0.027 A 
ATOM     35  C   UNL d   1      29.288  -8.965   7.688  0.00  0.00     0.142 A 
ATOM     36  O   UNL d   1      29.600  -9.589   8.859  0.00  0.00    -0.325 OA
ENDBRANCH  31  32
ENDBRANCH  29  31
ENDBRANCH  26  27
ENDBRANCH  25  26
ENDBRANCH   4  25
TORSDOF 9
ENDMDL
MODEL 9
REMARK VINA RESULT:    -6.145      1.918      3.054
REMARK INTER + INTRA:         -12.490
REMARK INTER:                  -8.830
REMARK INTRA:                  -3.661
REMARK CONF_INDEPENDENT:        2.685
REMARK UNBOUND:                -3.661
REMARK  9 active torsions:
REMARK  status: ('A' for Active; 'I' for Inactive)
REMARK    1  A    between atoms: C_8  and  N_9 
REMARK       I    between atoms: N_9  and  C_10 
REMARK    2  A    between atoms: C_10  and  C_12 
REMARK       I    between atoms: C_12  and  N_14 
REMARK    3  A    between atoms: N_14  and  N_15 
REMARK    4  A    between atoms: C_16  and  C_17 
REMARK    5  A    between atoms: C_20  and  O_21 
REMARK    6  A    between atoms: O_21  and  C_22 
REMARK    7  A    between atoms: C_22  and  C_23 
REMARK       I    between atoms: C_23  and  N_25 
REMARK    8  A    between atoms: N_25  and  C_26 
REMARK    9  A    between atoms: C_26  and  C_27 
ROOT
ATOM      1  C   UNL d   1      27.092 -15.705  -0.405  0.00  0.00    -0.017 A 
ATOM      2  C   UNL d   1      27.928 -15.759  -1.522  0.00  0.00     0.015 A 
ATOM      3  C   UNL d   1      27.364 -15.703  -2.813  0.00  0.00     0.037 A 
ATOM      4  C   UNL d   1      25.973 -15.635  -3.001  0.00  0.00     0.069 A 
ATOM      5  C   UNL d   1      25.154 -15.570  -1.876  0.00  0.00     0.037 A 
ATOM      6  C   UNL d   1      25.710 -15.609  -0.589  0.00  0.00     0.015 A 
ENDROOT
BRANCH   1   7
ATOM      7  C   UNL d   1      27.618 -15.722   0.988  0.00  0.00     0.150 C 
ATOM      8  N   UNL d   1      27.412 -14.696   1.758  0.00  0.00    -0.183 NA
BRANCH   8   9
ATOM      9  N   UNL d   1      27.925 -14.715   3.021  0.00  0.00    -0.239 N 
ATOM     10  C   UNL d   1      27.687 -13.672   3.937  0.00  0.00     0.329 C 
ATOM     11  O   UNL d   1      27.032 -12.650   3.786  0.00  0.00    -0.261 OA
ATOM     12  H   UNL d   1      28.504 -15.496   3.345  0.00  0.00     0.192 HD
BRANCH  10  13
ATOM     13  C   UNL d   1      28.383 -13.955   5.273  0.00  0.00     0.315 C 
ATOM     14  N   UNL d   1      28.135 -13.124   6.380  0.00  0.00    -0.318 N 
ATOM     15  H   UNL d   1      27.468 -12.374   6.203  0.00  0.00     0.169 HD
ATOM     16  O   UNL d   1      29.111 -14.942   5.175  0.00  0.00    -0.262 OA
BRANCH  14  17
ATOM     17  C   UNL d   1      28.700 -13.181   7.718  0.00  0.00     0.041 A 
ATOM     18  C   UNL d   1      28.906 -14.450   8.320  0.00  0.00     0.032 A 
ATOM     19  C   UNL d   1      29.439 -14.587   9.629  0.00  0.00     0.026 A 
ATOM     20  C   UNL d   1      29.767 -13.463  10.371  0.00  0.00     0.034 A 
ATOM     21  C   UNL d   1      29.577 -12.216   9.813  0.00  0.00     0.032 A 
ATOM     22 CL   UNL d   1      30.413 -13.579  11.961  0.00  0.00    -0.084 Cl
ATOM     23  C   UNL d   1      29.068 -12.065   8.503  0.00  0.00    -0.034 A 
ATOM     24  C   UNL d   1      28.984 -10.646   8.060  0.00  0.00     0.050 C 
ENDBRANCH  14  17
ENDBRANCH  10  13
ENDBRANCH   8   9
ENDBRANCH   1   7
BRANCH   4  25
ATOM     25  O   UNL d   1      25.536 -15.645  -4.299  0.00  0.00    -0.342 OA
BRANCH  25  26
ATOM     26  C   UNL d   1      26.382 -15.090  -5.316  0.00  0.00     0.278 C 
BRANCH  26  27
ATOM     27  C   UNL d   1      26.653 -13.587  -5.065  0.00  0.00     0.242 C 
ATOM     28  O   UNL d   1      27.592 -12.980  -5.576  0.00  0.00    -0.271 OA
ATOM     29  N   UNL d   1      25.758 -12.945  -4.225  0.00  0.00    -0.353 N 
ATOM     30  H   UNL d   1      24.981 -13.439  -3.807  0.00  0.00     0.162 HD
BRANCH  29  31
ATOM     31  C   UNL d   1      25.932 -11.534  -3.902  0.00  0.00     0.187 C 
BRANCH  31  32
ATOM     32  C   UNL d   1      26.672 -11.409  -2.618  0.00  0.00     0.070 A 
ATOM     33  C   UNL d   1      27.035 -10.303  -1.880  0.00  0.00     0.036 A 
ATOM     34  C   UNL d   1      27.672 -10.783  -0.714  0.00  0.00     0.027 A 
ATOM     35  C   UNL d   1      27.707 -12.153  -0.835  0.00  0.00     0.142 A 
ATOM     36  O   UNL d   1      27.098 -12.546  -1.989  0.00  0.00    -0.325 OA
ENDBRANCH  31  32
ENDBRANCH  29  31
ENDBRANCH  26  27
ENDBRANCH  25  26
ENDBRANCH   4  25
TORSDOF 9
ENDMDL
