MODEL 1
REMARK VINA RESULT:    -7.658      0.000      0.000
REMARK INTER + INTRA:         -11.609
REMARK INTER:                 -10.044
REMARK INTRA:                  -1.565
REMARK CONF_INDEPENDENT:        2.386
REMARK UNBOUND:                -1.565
REMARK  8 active torsions:
REMARK  status: ('A' for Active; 'I' for Inactive)
REMARK    1  A    between atoms: C_2  and  C_3 
REMARK    2  A    between atoms: C_3  and  O_4 
REMARK    3  A    between atoms: O_4  and  C_5 
REMARK    4  A    between atoms: C_8  and  O_9 
REMARK    5  A    between atoms: O_9  and  C_10 
REMARK    6  A    between atoms: C_10  and  C_11 
REMARK       I    between atoms: C_11  and  N_13 
REMARK    7  A    between atoms: N_13  and  N_14 
REMARK       I    between atoms: N_14  and  C_15 
REMARK       I    between atoms: C_15  and  N_17 
REMARK    8  A    between atoms: N_17  and  C_18 
ROOT
ATOM      1  C   UNL d   1      25.563 -14.392  -3.140  0.00  0.00     0.260 C 
ATOM      2  O   UNL d   1      24.928 -14.786  -4.121  0.00  0.00    -0.269 OA
ATOM      3  N   UNL d   1      25.786 -13.030  -2.939  0.00  0.00    -0.264 N 
ATOM      4  H   UNL d   1      26.301 -12.629  -2.155  0.00  0.00     0.190 HD
ENDROOT
BRANCH   1   5
ATOM      5  C   UNL d   1      26.152 -15.365  -2.068  0.00  0.00     0.280 C 
BRANCH   5   6
ATOM      6  O   UNL d   1      25.299 -15.490  -0.915  0.00  0.00    -0.342 OA
BRANCH   6   7
ATOM      7  C   UNL d   1      24.467 -16.578  -0.816  0.00  0.00     0.069 A 
ATOM      8  C   UNL d   1      23.086 -16.331  -0.894  0.00  0.00     0.039 A 
ATOM      9  C   UNL d   1      22.149 -17.369  -0.723  0.00  0.00     0.039 A 
ATOM     10  C   UNL d   1      22.580 -18.681  -0.535  0.00  0.00     0.068 A 
ATOM     11  C   UNL d   1      23.951 -18.936  -0.518  0.00  0.00     0.039 A 
ATOM     12  C   UNL d   1      24.884 -17.894  -0.646  0.00  0.00     0.039 A 
BRANCH  10  13
ATOM     13  O   UNL d   1      21.617 -19.659  -0.475  0.00  0.00    -0.351 OA
BRANCH  13  14
ATOM     14  C   UNL d   1      20.299 -19.239  -0.847  0.00  0.00     0.175 C 
BRANCH  14  15
ATOM     15  C   UNL d   1      19.261 -20.058  -0.082  0.00  0.00     0.022 C 
ATOM     16  C   UNL d   1      19.538 -20.024   1.414  0.00  0.00     0.007 C 
ENDBRANCH  14  15
ENDBRANCH  13  14
ENDBRANCH  10  13
ENDBRANCH   6   7
ENDBRANCH   5   6
ENDBRANCH   1   5
BRANCH   3  17
ATOM     17  N   UNL d   1      25.289 -12.076  -3.901  0.00  0.00    -0.249 N 
ATOM     18  C   UNL d   1      25.638 -10.742  -3.778  0.00  0.00     0.335 C 
ATOM     19  O   UNL d   1      26.352 -10.352  -2.850  0.00  0.00    -0.246 OA
ATOM     20  N   UNL d   1      25.158  -9.906  -4.772  0.00  0.00    -0.338 N 
ATOM     21  H   UNL d   1      24.524 -10.277  -5.466  0.00  0.00     0.164 HD
ATOM     22  H   UNL d   1      24.672 -12.445  -4.619  0.00  0.00     0.192 HD
BRANCH  20  23
ATOM     23  C   UNL d   1      25.461  -8.459  -4.807  0.00  0.00     0.078 C 
ATOM     24  C   UNL d   1      24.419  -7.689  -5.624  0.00  0.00     0.032 C 
ATOM     25  C   UNL d   1      25.530  -7.819  -3.410  0.00  0.00     0.032 C 
ENDBRANCH  20  23
ENDBRANCH   3  17
TORSDOF 8
ENDMDL
MODEL 2
REMARK VINA RESULT:    -7.355      3.152      9.364
REMARK INTER + INTRA:         -11.612
REMARK INTER:                  -9.741
REMARK INTRA:                  -1.871
REMARK CONF_INDEPENDENT:        2.386
REMARK UNBOUND:                -1.871
REMARK  8 active torsions:
REMARK  status: ('A' for Active; 'I' for Inactive)
REMARK    1  A    between atoms: C_2  and  C_3 
REMARK    2  A    between atoms: C_3  and  O_4 
REMARK    3  A    between atoms: O_4  and  C_5 
REMARK    4  A    between atoms: C_8  and  O_9 
REMARK    5  A    between atoms: O_9  and  C_10 
REMARK    6  A    between atoms: C_10  and  C_11 
REMARK       I    between atoms: C_11  and  N_13 
REMARK    7  A    between atoms: N_13  and  N_14 
REMARK       I    between atoms: N_14  and  C_15 
REMARK       I    between atoms: C_15  and  N_17 
REMARK    8  A    between atoms: N_17  and  C_18 
ROOT
ATOM      1  C   UNL d   1      25.055 -17.659  -0.525  0.00  0.00     0.260 C 
ATOM      2  O   UNL d   1      25.545 -18.199   0.470  0.00  0.00    -0.269 OA
ATOM      3  N   UNL d   1      23.715 -17.864  -0.856  0.00  0.00    -0.264 N 
ATOM      4  H   UNL d   1      23.241 -17.455  -1.661  0.00  0.00     0.190 HD
ENDROOT
BRANCH   1   5
ATOM      5  C   UNL d   1      25.876 -16.724  -1.470  0.00  0.00     0.280 C 
BRANCH   5   6
ATOM      6  O   UNL d   1      25.169 -16.419  -2.687  0.00  0.00    -0.342 OA
BRANCH   6   7
ATOM      7  C   UNL d   1      25.561 -15.334  -3.432  0.00  0.00     0.069 A 
ATOM      8  C   UNL d   1      25.079 -14.078  -3.027  0.00  0.00     0.039 A 
ATOM      9  C   UNL d   1      25.358 -12.915  -3.772  0.00  0.00     0.039 A 
ATOM     10  C   UNL d   1      26.177 -12.982  -4.899  0.00  0.00     0.068 A 
ATOM     11  C   UNL d   1      26.705 -14.219  -5.266  0.00  0.00     0.039 A 
ATOM     12  C   UNL d   1      26.392 -15.384  -4.547  0.00  0.00     0.039 A 
BRANCH  10  13
ATOM     13  O   UNL d   1      26.490 -11.799  -5.521  0.00  0.00    -0.351 OA
BRANCH  13  14
ATOM     14  C   UNL d   1      25.911 -10.628  -4.931  0.00  0.00     0.175 C 
BRANCH  14  15
ATOM     15  C   UNL d   1      25.579  -9.611  -6.022  0.00  0.00     0.022 C 
ATOM     16  C   UNL d   1      24.392  -8.749  -5.618  0.00  0.00     0.007 C 
ENDBRANCH  14  15
ENDBRANCH  13  14
ENDBRANCH  10  13
ENDBRANCH   6   7
ENDBRANCH   5   6
ENDBRANCH   1   5
BRANCH   3  17
ATOM     17  N   UNL d   1      22.903 -18.734  -0.040  0.00  0.00    -0.249 N 
ATOM     18  C   UNL d   1      21.524 -18.668  -0.140  0.00  0.00     0.335 C 
ATOM     19  O   UNL d   1      20.977 -17.866  -0.903  0.00  0.00    -0.246 OA
ATOM     20  N   UNL d   1      20.826 -19.572   0.642  0.00  0.00    -0.338 N 
ATOM     21  H   UNL d   1      21.331 -20.156   1.293  0.00  0.00     0.164 HD
ATOM     22  H   UNL d   1      23.405 -19.343   0.600  0.00  0.00     0.192 HD
BRANCH  20  23
ATOM     23  C   UNL d   1      19.349 -19.655   0.633  0.00  0.00     0.078 C 
ATOM     24  C   UNL d   1      18.800 -19.707  -0.796  0.00  0.00     0.032 C 
ATOM     25  C   UNL d   1      18.805 -20.877   1.392  0.00  0.00     0.032 C 
ENDBRANCH  20  23
ENDBRANCH   3  17
TORSDOF 8
ENDMDL
MODEL 3
REMARK VINA RESULT:    -7.288      3.152      9.399
REMARK INTER + INTRA:         -11.569
REMARK INTER:                  -9.674
REMARK INTRA:                  -1.895
REMARK CONF_INDEPENDENT:        2.386
REMARK UNBOUND:                -1.895
REMARK  8 active torsions:
REMARK  status: ('A' for Active; 'I' for Inactive)
REMARK    1  A    between atoms: C_2  and  C_3 
REMARK    2  A    between atoms: C_3  and  O_4 
REMARK    3  A    between atoms: O_4  and  C_5 
REMARK    4  A    between atoms: C_8  and  O_9 
REMARK    5  A    between atoms: O_9  and  C_10 
REMARK    6  A    between atoms: C_10  and  C_11 
REMARK       I    between atoms: C_11  and  N_13 
REMARK    7  A    between atoms: N_13  and  N_14 
REMARK       I    between atoms: N_14  and  C_15 
REMARK       I    between atoms: C_15  and  N_17 
REMARK    8  A    between atoms: N_17  and  C_18 
ROOT
ATOM      1  C   UNL d   1      25.131 -17.670  -0.517  0.00  0.00     0.260 C 
ATOM      2  O   UNL d   1      25.623 -18.248   0.455  0.00  0.00    -0.269 OA
ATOM      3  N   UNL d   1      23.782 -17.840  -0.835  0.00  0.00    -0.264 N 
ATOM      4  H   UNL d   1      23.306 -17.398  -1.621  0.00  0.00     0.190 HD
ENDROOT
BRANCH   1   5
ATOM      5  C   UNL d   1      25.957 -16.724  -1.446  0.00  0.00     0.280 C 
BRANCH   5   6
ATOM      6  O   UNL d   1      25.241 -16.374  -2.646  0.00  0.00    -0.342 OA
BRANCH   6   7
ATOM      7  C   UNL d   1      25.537 -15.190  -3.277  0.00  0.00     0.069 A 
ATOM      8  C   UNL d   1      26.291 -15.273  -4.459  0.00  0.00     0.039 A 
ATOM      9  C   UNL d   1      26.714 -14.112  -5.137  0.00  0.00     0.039 A 
ATOM     10  C   UNL d   1      26.336 -12.852  -4.676  0.00  0.00     0.068 A 
ATOM     11  C   UNL d   1      25.537 -12.773  -3.536  0.00  0.00     0.039 A 
ATOM     12  C   UNL d   1      25.151 -13.928  -2.838  0.00  0.00     0.039 A 
BRANCH  10  13
ATOM     13  O   UNL d   1      26.698 -11.768  -5.437  0.00  0.00    -0.351 OA
BRANCH  13  14
ATOM     14  C   UNL d   1      25.610 -11.053  -6.035  0.00  0.00     0.175 C 
BRANCH  14  15
ATOM     15  C   UNL d   1      25.815  -9.550  -5.848  0.00  0.00     0.022 C 
ATOM     16  C   UNL d   1      24.480  -8.825  -5.769  0.00  0.00     0.007 C 
ENDBRANCH  14  15
ENDBRANCH  13  14
ENDBRANCH  10  13
ENDBRANCH   6   7
ENDBRANCH   5   6
ENDBRANCH   1   5
BRANCH   3  17
ATOM     17  N   UNL d   1      22.965 -18.717  -0.033  0.00  0.00    -0.249 N 
ATOM     18  C   UNL d   1      21.586 -18.650  -0.143  0.00  0.00     0.335 C 
ATOM     19  O   UNL d   1      21.045 -17.842  -0.903  0.00  0.00    -0.246 OA
ATOM     20  N   UNL d   1      20.882 -19.561   0.626  0.00  0.00    -0.338 N 
ATOM     21  H   UNL d   1      21.383 -20.151   1.276  0.00  0.00     0.164 HD
ATOM     22  H   UNL d   1      23.462 -19.332   0.605  0.00  0.00     0.192 HD
BRANCH  20  23
ATOM     23  C   UNL d   1      19.406 -19.644   0.605  0.00  0.00     0.078 C 
ATOM     24  C   UNL d   1      18.869 -19.704  -0.827  0.00  0.00     0.032 C 
ATOM     25  C   UNL d   1      18.856 -20.863   1.366  0.00  0.00     0.032 C 
ENDBRANCH  20  23
ENDBRANCH   3  17
TORSDOF 8
ENDMDL
MODEL 4
REMARK VINA RESULT:    -7.202      4.257      9.254
REMARK INTER + INTRA:         -11.621
REMARK INTER:                  -9.588
REMARK INTRA:                  -2.033
REMARK CONF_INDEPENDENT:        2.386
REMARK UNBOUND:                -2.033
REMARK  8 active torsions:
REMARK  status: ('A' for Active; 'I' for Inactive)
REMARK    1  A    between atoms: C_2  and  C_3 
REMARK    2  A    between atoms: C_3  and  O_4 
REMARK    3  A    between atoms: O_4  and  C_5 
REMARK    4  A    between atoms: C_8  and  O_9 
REMARK    5  A    between atoms: O_9  and  C_10 
REMARK    6  A    between atoms: C_10  and  C_11 
REMARK       I    between atoms: C_11  and  N_13 
REMARK    7  A    between atoms: N_13  and  N_14 
REMARK       I    between atoms: N_14  and  C_15 
REMARK       I    between atoms: C_15  and  N_17 
REMARK    8  A    between atoms: N_17  and  C_18 
ROOT
ATOM      1  C   UNL d   1      25.527 -17.747   0.103  0.00  0.00     0.260 C 
ATOM      2  O   UNL d   1      25.868 -18.574   0.952  0.00  0.00    -0.269 OA
ATOM      3  N   UNL d   1      24.216 -17.716  -0.372  0.00  0.00    -0.264 N 
ATOM      4  H   UNL d   1      23.861 -17.065  -1.073  0.00  0.00     0.190 HD
ENDROOT
BRANCH   1   5
ATOM      5  C   UNL d   1      26.514 -16.692  -0.493  0.00  0.00     0.280 C 
BRANCH   5   6
ATOM      6  O   UNL d   1      25.849 -15.744  -1.349  0.00  0.00    -0.342 OA
BRANCH   6   7
ATOM      7  C   UNL d   1      26.299 -15.578  -2.636  0.00  0.00     0.069 A 
ATOM      8  C   UNL d   1      27.654 -15.860  -2.876  0.00  0.00     0.039 A 
ATOM      9  C   UNL d   1      28.230 -15.644  -4.143  0.00  0.00     0.039 A 
ATOM     10  C   UNL d   1      27.444 -15.202  -5.207  0.00  0.00     0.068 A 
ATOM     11  C   UNL d   1      26.085 -14.980  -4.983  0.00  0.00     0.039 A 
ATOM     12  C   UNL d   1      25.521 -15.156  -3.709  0.00  0.00     0.039 A 
BRANCH  10  13
ATOM     13  O   UNL d   1      28.044 -15.107  -6.438  0.00  0.00    -0.351 OA
BRANCH  13  14
ATOM     14  C   UNL d   1      28.998 -14.046  -6.571  0.00  0.00     0.175 C 
BRANCH  14  15
ATOM     15  C   UNL d   1      30.398 -14.630  -6.755  0.00  0.00     0.022 C 
ATOM     16  C   UNL d   1      30.354 -16.151  -6.767  0.00  0.00     0.007 C 
ENDBRANCH  14  15
ENDBRANCH  13  14
ENDBRANCH  10  13
ENDBRANCH   6   7
ENDBRANCH   5   6
ENDBRANCH   1   5
BRANCH   3  17
ATOM     17  N   UNL d   1      23.257 -18.677   0.118  0.00  0.00    -0.249 N 
ATOM     18  C   UNL d   1      21.906 -18.461  -0.102  0.00  0.00     0.335 C 
ATOM     19  O   UNL d   1      21.509 -17.454  -0.694  0.00  0.00    -0.246 OA
ATOM     20  N   UNL d   1      21.062 -19.457   0.358  0.00  0.00    -0.338 N 
ATOM     21  H   UNL d   1      21.446 -20.224   0.893  0.00  0.00     0.164 HD
ATOM     22  H   UNL d   1      23.637 -19.465   0.634  0.00  0.00     0.192 HD
BRANCH  20  23
ATOM     23  C   UNL d   1      19.595 -19.399   0.181  0.00  0.00     0.078 C 
ATOM     24  C   UNL d   1      19.194 -19.700  -1.266  0.00  0.00     0.032 C 
ATOM     25  C   UNL d   1      18.834 -20.375   1.094  0.00  0.00     0.032 C 
ENDBRANCH  20  23
ENDBRANCH   3  17
TORSDOF 8
ENDMDL
MODEL 5
REMARK VINA RESULT:    -7.164      1.431      1.895
REMARK INTER + INTRA:         -11.249
REMARK INTER:                  -9.551
REMARK INTRA:                  -1.698
REMARK CONF_INDEPENDENT:        2.386
REMARK UNBOUND:                -1.698
REMARK  8 active torsions:
REMARK  status: ('A' for Active; 'I' for Inactive)
REMARK    1  A    between atoms: C_2  and  C_3 
REMARK    2  A    between atoms: C_3  and  O_4 
REMARK    3  A    between atoms: O_4  and  C_5 
REMARK    4  A    between atoms: C_8  and  O_9 
REMARK    5  A    between atoms: O_9  and  C_10 
REMARK    6  A    between atoms: C_10  and  C_11 
REMARK       I    between atoms: C_11  and  N_13 
REMARK    7  A    between atoms: N_13  and  N_14 
REMARK       I    between atoms: N_14  and  C_15 
REMARK       I    between atoms: C_15  and  N_17 
REMARK    8  A    between atoms: N_17  and  C_18 
ROOT
ATOM      1  C   UNL d   1      25.181 -14.473  -3.092  0.00  0.00     0.260 C 
ATOM      2  O   UNL d   1      23.960 -14.355  -3.222  0.00  0.00    -0.269 OA
ATOM      3  N   UNL d   1      26.049 -13.546  -3.669  0.00  0.00    -0.264 N 
ATOM      4  H   UNL d   1      27.067 -13.577  -3.607  0.00  0.00     0.190 HD
ENDROOT
BRANCH   1   5
ATOM      5  C   UNL d   1      25.837 -15.642  -2.289  0.00  0.00     0.280 C 
BRANCH   5   6
ATOM      6  O   UNL d   1      25.198 -15.857  -1.016  0.00  0.00    -0.342 OA
BRANCH   6   7
ATOM      7  C   UNL d   1      24.145 -16.734  -0.938  0.00  0.00     0.069 A 
ATOM      8  C   UNL d   1      24.461 -18.102  -0.886  0.00  0.00     0.039 A 
ATOM      9  C   UNL d   1      23.450 -19.084  -0.886  0.00  0.00     0.039 A 
ATOM     10  C   UNL d   1      22.107 -18.710  -0.874  0.00  0.00     0.068 A 
ATOM     11  C   UNL d   1      21.794 -17.351  -0.865  0.00  0.00     0.039 A 
ATOM     12  C   UNL d   1      22.802 -16.374  -0.907  0.00  0.00     0.039 A 
BRANCH  10  13
ATOM     13  O   UNL d   1      21.174 -19.713  -0.774  0.00  0.00    -0.351 OA
BRANCH  13  14
ATOM     14  C   UNL d   1      19.809 -19.282  -0.820  0.00  0.00     0.175 C 
BRANCH  14  15
ATOM     15  C   UNL d   1      19.023 -19.936   0.316  0.00  0.00     0.022 C 
ATOM     16  C   UNL d   1      19.890 -20.092   1.556  0.00  0.00     0.007 C 
ENDBRANCH  14  15
ENDBRANCH  13  14
ENDBRANCH  10  13
ENDBRANCH   6   7
ENDBRANCH   5   6
ENDBRANCH   1   5
BRANCH   3  17
ATOM     17  N   UNL d   1      25.513 -12.453  -4.444  0.00  0.00    -0.249 N 
ATOM     18  C   UNL d   1      26.380 -11.601  -5.107  0.00  0.00     0.335 C 
ATOM     19  O   UNL d   1      27.603 -11.750  -5.033  0.00  0.00    -0.246 OA
ATOM     20  N   UNL d   1      25.779 -10.612  -5.866  0.00  0.00    -0.338 N 
ATOM     21  H   UNL d   1      24.775 -10.503  -5.832  0.00  0.00     0.164 HD
ATOM     22  H   UNL d   1      24.502 -12.353  -4.436  0.00  0.00     0.192 HD
BRANCH  20  23
ATOM     23  C   UNL d   1      26.557  -9.636  -6.660  0.00  0.00     0.078 C 
ATOM     24  C   UNL d   1      26.917 -10.197  -8.039  0.00  0.00     0.032 C 
ATOM     25  C   UNL d   1      25.823  -8.301  -6.871  0.00  0.00     0.032 C 
ENDBRANCH  20  23
ENDBRANCH   3  17
TORSDOF 8
ENDMDL
MODEL 6
REMARK VINA RESULT:    -7.140      4.407      5.893
REMARK INTER + INTRA:         -11.558
REMARK INTER:                  -9.526
REMARK INTRA:                  -2.032
REMARK CONF_INDEPENDENT:        2.386
REMARK UNBOUND:                -2.032
REMARK  8 active torsions:
REMARK  status: ('A' for Active; 'I' for Inactive)
REMARK    1  A    between atoms: C_2  and  C_3 
REMARK    2  A    between atoms: C_3  and  O_4 
REMARK    3  A    between atoms: O_4  and  C_5 
REMARK    4  A    between atoms: C_8  and  O_9 
REMARK    5  A    between atoms: O_9  and  C_10 
REMARK    6  A    between atoms: C_10  and  C_11 
REMARK       I    between atoms: C_11  and  N_13 
REMARK    7  A    between atoms: N_13  and  N_14 
REMARK       I    between atoms: N_14  and  C_15 
REMARK       I    between atoms: C_15  and  N_17 
REMARK    8  A    between atoms: N_17  and  C_18 
ROOT
ATOM      1  C   UNL d   1      27.847 -16.236  -0.691  0.00  0.00     0.260 C 
ATOM      2  O   UNL d   1      28.759 -17.048  -0.518  0.00  0.00    -0.269 OA
ATOM      3  N   UNL d   1      27.479 -15.354   0.326  0.00  0.00    -0.264 N 
ATOM      4  H   UNL d   1      26.737 -14.658   0.258  0.00  0.00     0.190 HD
ENDROOT
BRANCH   1   5
ATOM      5  C   UNL d   1      27.050 -16.132  -2.032  0.00  0.00     0.280 C 
BRANCH   5   6
ATOM      6  O   UNL d   1      25.709 -15.645  -1.835  0.00  0.00    -0.342 OA
BRANCH   6   7
ATOM      7  C   UNL d   1      24.757 -16.499  -1.333  0.00  0.00     0.069 A 
ATOM      8  C   UNL d   1      23.441 -16.014  -1.269  0.00  0.00     0.039 A 
ATOM      9  C   UNL d   1      22.408 -16.782  -0.696  0.00  0.00     0.039 A 
ATOM     10  C   UNL d   1      22.665 -18.073  -0.235  0.00  0.00     0.068 A 
ATOM     11  C   UNL d   1      23.960 -18.576  -0.353  0.00  0.00     0.039 A 
ATOM     12  C   UNL d   1      24.997 -17.794  -0.886  0.00  0.00     0.039 A 
BRANCH  10  13
ATOM     13  O   UNL d   1      21.595 -18.804   0.220  0.00  0.00    -0.351 OA
BRANCH  13  14
ATOM     14  C   UNL d   1      20.644 -19.181  -0.782  0.00  0.00     0.175 C 
BRANCH  14  15
ATOM     15  C   UNL d   1      19.491 -19.949  -0.137  0.00  0.00     0.022 C 
ATOM     16  C   UNL d   1      19.704 -20.090   1.362  0.00  0.00     0.007 C 
ENDBRANCH  14  15
ENDBRANCH  13  14
ENDBRANCH  10  13
ENDBRANCH   6   7
ENDBRANCH   5   6
ENDBRANCH   1   5
BRANCH   3  17
ATOM     17  N   UNL d   1      28.158 -15.409   1.598  0.00  0.00    -0.249 N 
ATOM     18  C   UNL d   1      27.783 -14.537   2.606  0.00  0.00     0.335 C 
ATOM     19  O   UNL d   1      26.891 -13.702   2.429  0.00  0.00    -0.246 OA
ATOM     20  N   UNL d   1      28.452 -14.694   3.808  0.00  0.00    -0.338 N 
ATOM     21  H   UNL d   1      29.217 -15.351   3.866  0.00  0.00     0.164 HD
ATOM     22  H   UNL d   1      28.911 -16.086   1.674  0.00  0.00     0.192 HD
BRANCH  20  23
ATOM     23  C   UNL d   1      28.155 -13.864   4.996  0.00  0.00     0.078 C 
ATOM     24  C   UNL d   1      28.865 -14.398   6.243  0.00  0.00     0.032 C 
ATOM     25  C   UNL d   1      28.554 -12.389   4.821  0.00  0.00     0.032 C 
ENDBRANCH  20  23
ENDBRANCH   3  17
TORSDOF 8
ENDMDL
MODEL 7
REMARK VINA RESULT:    -7.112      1.234      1.772
REMARK INTER + INTRA:         -11.264
REMARK INTER:                  -9.498
REMARK INTRA:                  -1.765
REMARK CONF_INDEPENDENT:        2.386
REMARK UNBOUND:                -1.765
REMARK  8 active torsions:
REMARK  status: ('A' for Active; 'I' for Inactive)
REMARK    1  A    between atoms: C_2  and  C_3 
REMARK    2  A    between atoms: C_3  and  O_4 
REMARK    3  A    between atoms: O_4  and  C_5 
REMARK    4  A    between atoms: C_8  and  O_9 
REMARK    5  A    between atoms: O_9  and  C_10 
REMARK    6  A    between atoms: C_10  and  C_11 
REMARK       I    between atoms: C_11  and  N_13 
REMARK    7  A    between atoms: N_13  and  N_14 
REMARK       I    between atoms: N_14  and  C_15 
REMARK       I    between atoms: C_15  and  N_17 
REMARK    8  A    between atoms: N_17  and  C_18 
ROOT
ATOM      1  C   UNL d   1      25.765 -15.702  -2.014  0.00  0.00     0.260 C 
ATOM      2  O   UNL d   1      25.159 -16.249  -2.939  0.00  0.00    -0.269 OA
ATOM      3  N   UNL d   1      25.976 -14.322  -2.022  0.00  0.00    -0.264 N 
ATOM      4  H   UNL d   1      26.467 -13.800  -1.296  0.00  0.00     0.190 HD
ENDROOT
BRANCH   1   5
ATOM      5  C   UNL d   1      26.329 -16.491  -0.789  0.00  0.00     0.280 C 
BRANCH   5   6
ATOM      6  O   UNL d   1      25.317 -16.766   0.197  0.00  0.00    -0.342 OA
BRANCH   6   7
ATOM      7  C   UNL d   1      24.122 -17.311  -0.208  0.00  0.00     0.069 A 
ATOM      8  C   UNL d   1      24.091 -18.703  -0.395  0.00  0.00     0.039 A 
ATOM      9  C   UNL d   1      22.937 -19.346  -0.885  0.00  0.00     0.039 A 
ATOM     10  C   UNL d   1      21.777 -18.614  -1.137  0.00  0.00     0.068 A 
ATOM     11  C   UNL d   1      21.791 -17.241  -0.894  0.00  0.00     0.039 A 
ATOM     12  C   UNL d   1      22.954 -16.595  -0.445  0.00  0.00     0.039 A 
BRANCH  10  13
ATOM     13  O   UNL d   1      20.660 -19.315  -1.519  0.00  0.00    -0.351 OA
BRANCH  13  14
ATOM     14  C   UNL d   1      19.592 -19.325  -0.564  0.00  0.00     0.175 C 
BRANCH  14  15
ATOM     15  C   UNL d   1      20.106 -19.841   0.779  0.00  0.00     0.022 C 
ATOM     16  C   UNL d   1      18.951 -20.236   1.688  0.00  0.00     0.007 C 
ENDBRANCH  14  15
ENDBRANCH  13  14
ENDBRANCH  10  13
ENDBRANCH   6   7
ENDBRANCH   5   6
ENDBRANCH   1   5
BRANCH   3  17
ATOM     17  N   UNL d   1      25.501 -13.534  -3.134  0.00  0.00    -0.249 N 
ATOM     18  C   UNL d   1      25.964 -12.239  -3.294  0.00  0.00     0.335 C 
ATOM     19  O   UNL d   1      26.761 -11.742  -2.494  0.00  0.00    -0.246 OA
ATOM     20  N   UNL d   1      25.495 -11.574  -4.414  0.00  0.00    -0.338 N 
ATOM     21  H   UNL d   1      24.793 -12.014  -4.993  0.00  0.00     0.164 HD
ATOM     22  H   UNL d   1      24.815 -13.979  -3.736  0.00  0.00     0.192 HD
BRANCH  20  23
ATOM     23  C   UNL d   1      25.911 -10.195  -4.751  0.00  0.00     0.078 C 
ATOM     24  C   UNL d   1      25.699  -9.894  -6.237  0.00  0.00     0.032 C 
ATOM     25  C   UNL d   1      25.164  -9.121  -3.941  0.00  0.00     0.032 C 
ENDBRANCH  20  23
ENDBRANCH   3  17
TORSDOF 8
ENDMDL
MODEL 8
REMARK VINA RESULT:    -6.845      3.453      4.866
REMARK INTER + INTRA:         -10.988
REMARK INTER:                  -9.232
REMARK INTRA:                  -1.756
REMARK CONF_INDEPENDENT:        2.386
REMARK UNBOUND:                -1.756
REMARK  8 active torsions:
REMARK  status: ('A' for Active; 'I' for Inactive)
REMARK    1  A    between atoms: C_2  and  C_3 
REMARK    2  A    between atoms: C_3  and  O_4 
REMARK    3  A    between atoms: O_4  and  C_5 
REMARK    4  A    between atoms: C_8  and  O_9 
REMARK    5  A    between atoms: O_9  and  C_10 
REMARK    6  A    between atoms: C_10  and  C_11 
REMARK       I    between atoms: C_11  and  N_13 
REMARK    7  A    between atoms: N_13  and  N_14 
REMARK       I    between atoms: N_14  and  C_15 
REMARK       I    between atoms: C_15  and  N_17 
REMARK    8  A    between atoms: N_17  and  C_18 
ROOT
ATOM      1  C   UNL d   1      25.858 -14.838  -3.844  0.00  0.00     0.260 C 
ATOM      2  O   UNL d   1      25.156 -14.508  -4.803  0.00  0.00    -0.269 OA
ATOM      3  N   UNL d   1      27.200 -15.172  -4.028  0.00  0.00    -0.264 N 
ATOM      4  H   UNL d   1      27.841 -15.455  -3.287  0.00  0.00     0.190 HD
ENDROOT
BRANCH   1   5
ATOM      5  C   UNL d   1      25.314 -14.903  -2.380  0.00  0.00     0.280 C 
BRANCH   5   6
ATOM      6  O   UNL d   1      25.665 -16.135  -1.721  0.00  0.00    -0.342 OA
BRANCH   6   7
ATOM      7  C   UNL d   1      24.667 -16.916  -1.192  0.00  0.00     0.069 A 
ATOM      8  C   UNL d   1      23.385 -16.347  -1.123  0.00  0.00     0.039 A 
ATOM      9  C   UNL d   1      22.312 -17.037  -0.525  0.00  0.00     0.039 A 
ATOM     10  C   UNL d   1      22.492 -18.332  -0.042  0.00  0.00     0.068 A 
ATOM     11  C   UNL d   1      23.750 -18.920  -0.165  0.00  0.00     0.039 A 
ATOM     12  C   UNL d   1      24.829 -18.216  -0.724  0.00  0.00     0.039 A 
BRANCH  10  13
ATOM     13  O   UNL d   1      21.383 -18.985   0.439  0.00  0.00    -0.351 OA
BRANCH  13  14
ATOM     14  C   UNL d   1      20.404 -19.331  -0.548  0.00  0.00     0.175 C 
BRANCH  14  15
ATOM     15  C   UNL d   1      19.464 -20.398   0.010  0.00  0.00     0.022 C 
ATOM     16  C   UNL d   1      19.111 -20.107   1.461  0.00  0.00     0.007 C 
ENDBRANCH  14  15
ENDBRANCH  13  14
ENDBRANCH  10  13
ENDBRANCH   6   7
ENDBRANCH   5   6
ENDBRANCH   1   5
BRANCH   3  17
ATOM     17  N   UNL d   1      27.763 -15.155  -5.357  0.00  0.00    -0.249 N 
ATOM     18  C   UNL d   1      29.043 -15.645  -5.559  0.00  0.00     0.335 C 
ATOM     19  O   UNL d   1      29.716 -16.079  -4.619  0.00  0.00    -0.246 OA
ATOM     20  N   UNL d   1      29.484 -15.636  -6.871  0.00  0.00    -0.338 N 
ATOM     21  H   UNL d   1      28.910 -15.206  -7.583  0.00  0.00     0.164 HD
ATOM     22  H   UNL d   1      27.182 -14.748  -6.084  0.00  0.00     0.192 HD
BRANCH  20  23
ATOM     23  C   UNL d   1      30.814 -16.149  -7.265  0.00  0.00     0.078 C 
ATOM     24  C   UNL d   1      31.939 -15.270  -6.711  0.00  0.00     0.032 C 
ATOM     25  C   UNL d   1      31.070 -17.592  -6.798  0.00  0.00     0.032 C 
ENDBRANCH  20  23
ENDBRANCH   3  17
TORSDOF 8
ENDMDL
MODEL 9
REMARK VINA RESULT:    -6.386      3.105      3.611
REMARK INTER + INTRA:         -10.903
REMARK INTER:                  -8.773
REMARK INTRA:                  -2.131
REMARK CONF_INDEPENDENT:        2.386
REMARK UNBOUND:                -2.131
REMARK  8 active torsions:
REMARK  status: ('A' for Active; 'I' for Inactive)
REMARK    1  A    between atoms: C_2  and  C_3 
REMARK    2  A    between atoms: C_3  and  O_4 
REMARK    3  A    between atoms: O_4  and  C_5 
REMARK    4  A    between atoms: C_8  and  O_9 
REMARK    5  A    between atoms: O_9  and  C_10 
REMARK    6  A    between atoms: C_10  and  C_11 
REMARK       I    between atoms: C_11  and  N_13 
REMARK    7  A    between atoms: N_13  and  N_14 
REMARK       I    between atoms: N_14  and  C_15 
REMARK       I    between atoms: C_15  and  N_17 
REMARK    8  A    between atoms: N_17  and  C_18 
ROOT
ATOM      1  C   UNL d   1      27.066 -15.092  -0.753  0.00  0.00     0.260 C 
ATOM      2  O   UNL d   1      27.400 -14.006  -0.275  0.00  0.00    -0.269 OA
ATOM      3  N   UNL d   1      27.147 -15.318  -2.128  0.00  0.00    -0.264 N 
ATOM      4  H   UNL d   1      26.889 -16.186  -2.596  0.00  0.00     0.190 HD
ENDROOT
BRANCH   1   5
ATOM      5  C   UNL d   1      26.540 -16.276   0.121  0.00  0.00     0.280 C 
BRANCH   5   6
ATOM      6  O   UNL d   1      26.081 -17.383  -0.676  0.00  0.00    -0.342 OA
BRANCH   6   7
ATOM      7  C   UNL d   1      24.740 -17.680  -0.696  0.00  0.00     0.069 A 
ATOM      8  C   UNL d   1      23.857 -16.610  -0.912  0.00  0.00     0.039 A 
ATOM      9  C   UNL d   1      22.461 -16.797  -0.870  0.00  0.00     0.039 A 
ATOM     10  C   UNL d   1      21.928 -18.071  -0.674  0.00  0.00     0.068 A 
ATOM     11  C   UNL d   1      22.806 -19.143  -0.520  0.00  0.00     0.039 A 
ATOM     12  C   UNL d   1      24.197 -18.948  -0.520  0.00  0.00     0.039 A 
BRANCH  10  13
ATOM     13  O   UNL d   1      20.563 -18.200  -0.743  0.00  0.00    -0.351 OA
BRANCH  13  14
ATOM     14  C   UNL d   1      20.092 -19.506  -1.100  0.00  0.00     0.175 C 
BRANCH  14  15
ATOM     15  C   UNL d   1      19.277 -20.093   0.052  0.00  0.00     0.022 C 
ATOM     16  C   UNL d   1      19.747 -19.538   1.388  0.00  0.00     0.007 C 
ENDBRANCH  14  15
ENDBRANCH  13  14
ENDBRANCH  10  13
ENDBRANCH   6   7
ENDBRANCH   5   6
ENDBRANCH   1   5
BRANCH   3  17
ATOM     17  N   UNL d   1      27.603 -14.261  -2.998  0.00  0.00    -0.249 N 
ATOM     18  C   UNL d   1      27.663 -14.484  -4.364  0.00  0.00     0.335 C 
ATOM     19  O   UNL d   1      27.350 -15.575  -4.847  0.00  0.00    -0.246 OA
ATOM     20  N   UNL d   1      28.064 -13.400  -5.127  0.00  0.00    -0.338 N 
ATOM     21  H   UNL d   1      28.370 -12.556  -4.664  0.00  0.00     0.164 HD
ATOM     22  H   UNL d   1      27.888 -13.399  -2.543  0.00  0.00     0.192 HD
BRANCH  20  23
ATOM     23  C   UNL d   1      28.155 -13.459  -6.602  0.00  0.00     0.078 C 
ATOM     24  C   UNL d   1      28.599 -12.116  -7.189  0.00  0.00     0.032 C 
ATOM     25  C   UNL d   1      29.127 -14.538  -7.108  0.00  0.00     0.032 C 
ENDBRANCH  20  23
ENDBRANCH   3  17
TORSDOF 8
ENDMDL
