MODEL 1
REMARK VINA RESULT:    -8.940      0.000      0.000
REMARK INTER + INTRA:         -12.909
REMARK INTER:                 -11.625
REMARK INTRA:                  -1.284
REMARK CONF_INDEPENDENT:        2.685
REMARK UNBOUND:                -1.284
REMARK  9 active torsions:
REMARK  status: ('A' for Active; 'I' for Inactive)
REMARK    1  A    between atoms: O_2  and  C_3 
REMARK    2  A    between atoms: C_6  and  C_7 
REMARK    3  A    between atoms: C_7  and  C_8 
REMARK    4  A    between atoms: C_8  and  C_9 
REMARK       I    between atoms: C_9  and  N_11 
REMARK    5  A    between atoms: N_11  and  N_12 
REMARK       I    between atoms: N_12  and  C_13 
REMARK    6  A    between atoms: C_13  and  C_15 
REMARK    7  A    between atoms: C_18  and  N_19 
REMARK    8  A    between atoms: N_19  and  C_20 
REMARK    9  A    between atoms: C_23  and  N_24 
ROOT
ATOM      1  N   UNL d   1      27.811 -14.754   2.077  0.00  0.00    -0.263 N 
ATOM      2  C   UNL d   1      27.044 -13.625   2.300  0.00  0.00     0.270 C 
ATOM      3  O   UNL d   1      25.992 -13.386   1.700  0.00  0.00    -0.266 OA
ATOM      4  H   UNL d   1      28.667 -14.986   2.583  0.00  0.00     0.190 HD
ENDROOT
BRANCH   1   5
ATOM      5  N   UNL d   1      27.382 -15.711   1.141  0.00  0.00    -0.267 N 
ATOM      6  C   UNL d   1      27.208 -15.314  -0.175  0.00  0.00     0.236 C 
ATOM      7  O   UNL d   1      27.381 -14.153  -0.538  0.00  0.00    -0.272 OA
ATOM      8  H   UNL d   1      27.253 -16.662   1.485  0.00  0.00     0.190 HD
BRANCH   6   9
ATOM      9  C   UNL d   1      26.792 -16.433  -1.109  0.00  0.00     0.109 C 
BRANCH   9  10
ATOM     10  C   UNL d   1      26.148 -17.622  -0.378  0.00  0.00     0.048 C 
BRANCH  10  11
ATOM     11  C   UNL d   1      24.642 -17.734  -0.541  0.00  0.00    -0.058 A 
ATOM     12  C   UNL d   1      23.880 -16.575  -0.753  0.00  0.00     0.010 A 
ATOM     13  C   UNL d   1      22.482 -16.640  -0.794  0.00  0.00     0.037 A 
ATOM     14  C   UNL d   1      21.821 -17.865  -0.697  0.00  0.00     0.068 A 
ATOM     15  C   UNL d   1      22.569 -19.024  -0.520  0.00  0.00     0.037 A 
ATOM     16  C   UNL d   1      23.963 -18.955  -0.446  0.00  0.00     0.010 A 
BRANCH  14  17
ATOM     17  O   UNL d   1      20.470 -17.827  -0.895  0.00  0.00    -0.356 OA
ATOM     18  C   UNL d   1      19.752 -19.025  -0.623  0.00  0.00     0.210 C 
ENDBRANCH  14  17
ENDBRANCH  10  11
ENDBRANCH   9  10
ENDBRANCH   6   9
ENDBRANCH   1   5
BRANCH   2  19
ATOM     19  C   UNL d   1      27.578 -12.628   3.262  0.00  0.00     0.036 C 
ATOM     20  C   UNL d   1      28.126 -12.986   4.493  0.00  0.00     0.019 C 
ATOM     21  C   UNL d   1      28.404 -12.001   5.469  0.00  0.00     0.032 C 
ATOM     22  C   UNL d   1      28.147 -10.619   5.259  0.00  0.00     0.061 C 
ATOM     23  C   UNL d   1      27.507 -10.326   4.025  0.00  0.00     0.130 C 
ATOM     24  C   UNL d   1      27.303 -11.298   3.024  0.00  0.00     0.055 C 
BRANCH  22  25
ATOM     25  N   UNL d   1      28.644  -9.750   6.279  0.00  0.00    -0.383 N 
ATOM     26  H   UNL d   1      28.143  -8.867   6.365  0.00  0.00     0.160 HD
BRANCH  25  27
ATOM     27  C   UNL d   1      29.709  -9.985   7.288  0.00  0.00     0.082 A 
ATOM     28  C   UNL d   1      29.596  -9.391   8.656  0.00  0.00     0.027 A 
ATOM     29  C   UNL d   1      29.370 -10.884   8.410  0.00  0.00     0.027 A 
ENDBRANCH  25  27
ENDBRANCH  22  25
BRANCH  23  30
ATOM     30  N   UNL d   1      26.761  -9.119   3.667  0.00  0.00    -0.113 N 
ATOM     31  O   UNL d   1      26.985  -8.083   4.309  0.00  0.00    -0.532 OA
ATOM     32  O   UNL d   1      25.821  -9.258   2.868  0.00  0.00    -0.532 OA
ENDBRANCH  23  30
ENDBRANCH   2  19
TORSDOF 9
ENDMDL
MODEL 2
REMARK VINA RESULT:    -8.646      1.855      2.365
REMARK INTER + INTRA:         -13.074
REMARK INTER:                 -11.330
REMARK INTRA:                  -1.744
REMARK CONF_INDEPENDENT:        2.685
REMARK UNBOUND:                -1.744
REMARK  9 active torsions:
REMARK  status: ('A' for Active; 'I' for Inactive)
REMARK    1  A    between atoms: O_2  and  C_3 
REMARK    2  A    between atoms: C_6  and  C_7 
REMARK    3  A    between atoms: C_7  and  C_8 
REMARK    4  A    between atoms: C_8  and  C_9 
REMARK       I    between atoms: C_9  and  N_11 
REMARK    5  A    between atoms: N_11  and  N_12 
REMARK       I    between atoms: N_12  and  C_13 
REMARK    6  A    between atoms: C_13  and  C_15 
REMARK    7  A    between atoms: C_18  and  N_19 
REMARK    8  A    between atoms: N_19  and  C_20 
REMARK    9  A    between atoms: C_23  and  N_24 
ROOT
ATOM      1  N   UNL d   1      27.266 -13.370   1.329  0.00  0.00    -0.263 N 
ATOM      2  C   UNL d   1      27.512 -13.181   2.676  0.00  0.00     0.270 C 
ATOM      3  O   UNL d   1      27.652 -14.106   3.481  0.00  0.00    -0.266 OA
ATOM      4  H   UNL d   1      27.178 -12.620   0.642  0.00  0.00     0.190 HD
ENDROOT
BRANCH   1   5
ATOM      5  N   UNL d   1      27.191 -14.676   0.814  0.00  0.00    -0.267 N 
ATOM      6  C   UNL d   1      26.685 -14.853  -0.463  0.00  0.00     0.236 C 
ATOM      7  O   UNL d   1      26.271 -13.914  -1.140  0.00  0.00    -0.272 OA
ATOM      8  H   UNL d   1      27.547 -15.424   1.409  0.00  0.00     0.190 HD
BRANCH   6   9
ATOM      9  C   UNL d   1      26.694 -16.291  -0.940  0.00  0.00     0.109 C 
BRANCH   9  10
ATOM     10  C   UNL d   1      25.971 -17.250   0.020  0.00  0.00     0.048 C 
BRANCH  10  11
ATOM     11  C   UNL d   1      24.522 -17.537  -0.333  0.00  0.00    -0.058 A 
ATOM     12  C   UNL d   1      23.669 -16.477  -0.676  0.00  0.00     0.010 A 
ATOM     13  C   UNL d   1      22.304 -16.704  -0.895  0.00  0.00     0.037 A 
ATOM     14  C   UNL d   1      21.779 -17.995  -0.847  0.00  0.00     0.068 A 
ATOM     15  C   UNL d   1      22.622 -19.057  -0.540  0.00  0.00     0.037 A 
ATOM     16  C   UNL d   1      23.977 -18.827  -0.289  0.00  0.00     0.010 A 
BRANCH  14  17
ATOM     17  O   UNL d   1      20.470 -18.116  -1.219  0.00  0.00    -0.356 OA
ATOM     18  C   UNL d   1      19.814 -19.325  -0.858  0.00  0.00     0.210 C 
ENDBRANCH  14  17
ENDBRANCH  10  11
ENDBRANCH   9  10
ENDBRANCH   6   9
ENDBRANCH   1   5
BRANCH   2  19
ATOM     19  C   UNL d   1      27.528 -11.780   3.167  0.00  0.00     0.036 C 
ATOM     20  C   UNL d   1      28.003 -11.428   4.430  0.00  0.00     0.019 C 
ATOM     21  C   UNL d   1      27.785 -10.128   4.943  0.00  0.00     0.032 C 
ATOM     22  C   UNL d   1      27.084  -9.125   4.220  0.00  0.00     0.061 C 
ATOM     23  C   UNL d   1      26.547  -9.568   2.981  0.00  0.00     0.130 C 
ATOM     24  C   UNL d   1      26.832 -10.838   2.439  0.00  0.00     0.055 C 
BRANCH  22  25
ATOM     25  N   UNL d   1      27.104  -7.826   4.814  0.00  0.00    -0.383 N 
ATOM     26  H   UNL d   1      26.934  -7.817   5.820  0.00  0.00     0.160 HD
BRANCH  25  27
ATOM     27  C   UNL d   1      27.430  -6.511   4.206  0.00  0.00     0.082 A 
ATOM     28  C   UNL d   1      26.668  -5.286   4.604  0.00  0.00     0.027 A 
ATOM     29  C   UNL d   1      28.102  -5.527   5.079  0.00  0.00     0.027 A 
ENDBRANCH  25  27
ENDBRANCH  22  25
BRANCH  23  30
ATOM     30  N   UNL d   1      25.474  -8.953   2.199  0.00  0.00    -0.113 N 
ATOM     31  O   UNL d   1      25.627  -7.784   1.817  0.00  0.00    -0.532 OA
ATOM     32  O   UNL d   1      24.405  -9.578   2.126  0.00  0.00    -0.532 OA
ENDBRANCH  23  30
ENDBRANCH   2  19
TORSDOF 9
ENDMDL
MODEL 3
REMARK VINA RESULT:    -8.375      1.695      2.233
REMARK INTER + INTRA:         -12.885
REMARK INTER:                 -11.059
REMARK INTRA:                  -1.826
REMARK CONF_INDEPENDENT:        2.685
REMARK UNBOUND:                -1.826
REMARK  9 active torsions:
REMARK  status: ('A' for Active; 'I' for Inactive)
REMARK    1  A    between atoms: O_2  and  C_3 
REMARK    2  A    between atoms: C_6  and  C_7 
REMARK    3  A    between atoms: C_7  and  C_8 
REMARK    4  A    between atoms: C_8  and  C_9 
REMARK       I    between atoms: C_9  and  N_11 
REMARK    5  A    between atoms: N_11  and  N_12 
REMARK       I    between atoms: N_12  and  C_13 
REMARK    6  A    between atoms: C_13  and  C_15 
REMARK    7  A    between atoms: C_18  and  N_19 
REMARK    8  A    between atoms: N_19  and  C_20 
REMARK    9  A    between atoms: C_23  and  N_24 
ROOT
ATOM      1  N   UNL d   1      27.137 -13.392   1.213  0.00  0.00    -0.263 N 
ATOM      2  C   UNL d   1      27.350 -13.283   2.574  0.00  0.00     0.270 C 
ATOM      3  O   UNL d   1      27.364 -14.249   3.342  0.00  0.00    -0.266 OA
ATOM      4  H   UNL d   1      27.154 -12.610   0.556  0.00  0.00     0.190 HD
ENDROOT
BRANCH   1   5
ATOM      5  N   UNL d   1      26.947 -14.661   0.639  0.00  0.00    -0.267 N 
ATOM      6  C   UNL d   1      26.874 -14.757  -0.741  0.00  0.00     0.236 C 
ATOM      7  O   UNL d   1      26.934 -13.769  -1.471  0.00  0.00    -0.272 OA
ATOM      8  H   UNL d   1      26.906 -15.452   1.282  0.00  0.00     0.190 HD
BRANCH   6   9
ATOM      9  C   UNL d   1      26.718 -16.173  -1.256  0.00  0.00     0.109 C 
BRANCH   9  10
ATOM     10  C   UNL d   1      26.101 -17.128  -0.221  0.00  0.00     0.048 C 
BRANCH  10  11
ATOM     11  C   UNL d   1      24.609 -17.364  -0.377  0.00  0.00    -0.058 A 
ATOM     12  C   UNL d   1      24.098 -18.665  -0.262  0.00  0.00     0.010 A 
ATOM     13  C   UNL d   1      22.744 -18.922  -0.512  0.00  0.00     0.037 A 
ATOM     14  C   UNL d   1      21.863 -17.883  -0.810  0.00  0.00     0.068 A 
ATOM     15  C   UNL d   1      22.353 -16.585  -0.894  0.00  0.00     0.037 A 
ATOM     16  C   UNL d   1      23.711 -16.332  -0.677  0.00  0.00     0.010 A 
BRANCH  14  17
ATOM     17  O   UNL d   1      20.544 -18.229  -0.891  0.00  0.00    -0.356 OA
ATOM     18  C   UNL d   1      20.209 -19.555  -0.498  0.00  0.00     0.210 C 
ENDBRANCH  14  17
ENDBRANCH  10  11
ENDBRANCH   9  10
ENDBRANCH   6   9
ENDBRANCH   1   5
BRANCH   2  19
ATOM     19  C   UNL d   1      27.492 -11.912   3.126  0.00  0.00     0.036 C 
ATOM     20  C   UNL d   1      28.091 -11.652   4.359  0.00  0.00     0.019 C 
ATOM     21  C   UNL d   1      27.995 -10.370   4.947  0.00  0.00     0.032 C 
ATOM     22  C   UNL d   1      27.300  -9.294   4.334  0.00  0.00     0.061 C 
ATOM     23  C   UNL d   1      26.636  -9.641   3.127  0.00  0.00     0.130 C 
ATOM     24  C   UNL d   1      26.798 -10.896   2.504  0.00  0.00     0.055 C 
BRANCH  22  25
ATOM     25  N   UNL d   1      27.448  -8.030   4.983  0.00  0.00    -0.383 N 
ATOM     26  H   UNL d   1      26.650  -7.749   5.553  0.00  0.00     0.160 HD
BRANCH  25  27
ATOM     27  C   UNL d   1      28.621  -7.120   5.030  0.00  0.00     0.082 A 
ATOM     28  C   UNL d   1      28.446  -5.652   4.801  0.00  0.00     0.027 A 
ATOM     29  C   UNL d   1      28.713  -6.219   6.197  0.00  0.00     0.027 A 
ENDBRANCH  25  27
ENDBRANCH  22  25
BRANCH  23  30
ATOM     30  N   UNL d   1      25.542  -8.927   2.467  0.00  0.00    -0.113 N 
ATOM     31  O   UNL d   1      24.553  -9.580   2.107  0.00  0.00    -0.532 OA
ATOM     32  O   UNL d   1      25.756  -7.747   2.148  0.00  0.00    -0.532 OA
ENDBRANCH  23  30
ENDBRANCH   2  19
TORSDOF 9
ENDMDL
MODEL 4
REMARK VINA RESULT:    -8.097      6.997      9.049
REMARK INTER + INTRA:         -12.558
REMARK INTER:                 -10.782
REMARK INTRA:                  -1.776
REMARK CONF_INDEPENDENT:        2.685
REMARK UNBOUND:                -1.776
REMARK  9 active torsions:
REMARK  status: ('A' for Active; 'I' for Inactive)
REMARK    1  A    between atoms: O_2  and  C_3 
REMARK    2  A    between atoms: C_6  and  C_7 
REMARK    3  A    between atoms: C_7  and  C_8 
REMARK    4  A    between atoms: C_8  and  C_9 
REMARK       I    between atoms: C_9  and  N_11 
REMARK    5  A    between atoms: N_11  and  N_12 
REMARK       I    between atoms: N_12  and  C_13 
REMARK    6  A    between atoms: C_13  and  C_15 
REMARK    7  A    between atoms: C_18  and  N_19 
REMARK    8  A    between atoms: N_19  and  C_20 
REMARK    9  A    between atoms: C_23  and  N_24 
ROOT
ATOM      1  N   UNL d   1      25.334 -15.283  -2.536  0.00  0.00    -0.263 N 
ATOM      2  C   UNL d   1      24.878 -14.303  -3.398  0.00  0.00     0.270 C 
ATOM      3  O   UNL d   1      23.682 -14.065  -3.590  0.00  0.00    -0.266 OA
ATOM      4  H   UNL d   1      26.317 -15.475  -2.339  0.00  0.00     0.190 HD
ENDROOT
BRANCH   1   5
ATOM      5  N   UNL d   1      24.409 -16.050  -1.806  0.00  0.00    -0.267 N 
ATOM      6  C   UNL d   1      24.874 -17.144  -1.095  0.00  0.00     0.236 C 
ATOM      7  O   UNL d   1      26.056 -17.482  -1.111  0.00  0.00    -0.272 OA
ATOM      8  H   UNL d   1      23.440 -15.733  -1.819  0.00  0.00     0.190 HD
BRANCH   6   9
ATOM      9  C   UNL d   1      23.805 -17.870  -0.305  0.00  0.00     0.109 C 
BRANCH   9  10
ATOM     10  C   UNL d   1      22.654 -18.389  -1.182  0.00  0.00     0.048 C 
BRANCH  10  11
ATOM     11  C   UNL d   1      21.471 -18.956  -0.417  0.00  0.00    -0.058 A 
ATOM     12  C   UNL d   1      20.373 -19.472  -1.122  0.00  0.00     0.010 A 
ATOM     13  C   UNL d   1      19.225 -19.896  -0.441  0.00  0.00     0.037 A 
ATOM     14  C   UNL d   1      19.176 -19.880   0.954  0.00  0.00     0.068 A 
ATOM     15  C   UNL d   1      20.271 -19.401   1.663  0.00  0.00     0.037 A 
ATOM     16  C   UNL d   1      21.405 -18.948   0.982  0.00  0.00     0.010 A 
BRANCH  14  17
ATOM     17  O   UNL d   1      18.068 -20.450   1.513  0.00  0.00    -0.356 OA
ATOM     18  C   UNL d   1      17.650 -21.696   0.970  0.00  0.00     0.210 C 
ENDBRANCH  14  17
ENDBRANCH  10  11
ENDBRANCH   9  10
ENDBRANCH   6   9
ENDBRANCH   1   5
BRANCH   2  19
ATOM     19  C   UNL d   1      25.903 -13.564  -4.177  0.00  0.00     0.036 C 
ATOM     20  C   UNL d   1      25.748 -12.230  -4.554  0.00  0.00     0.019 C 
ATOM     21  C   UNL d   1      26.631 -11.640  -5.487  0.00  0.00     0.032 C 
ATOM     22  C   UNL d   1      27.705 -12.353  -6.084  0.00  0.00     0.061 C 
ATOM     23  C   UNL d   1      27.759 -13.728  -5.732  0.00  0.00     0.130 C 
ATOM     24  C   UNL d   1      26.926 -14.294  -4.745  0.00  0.00     0.055 C 
BRANCH  22  25
ATOM     25  N   UNL d   1      28.595 -11.558  -6.871  0.00  0.00    -0.383 N 
ATOM     26  H   UNL d   1      29.469 -11.314  -6.406  0.00  0.00     0.160 HD
BRANCH  25  27
ATOM     27  C   UNL d   1      28.478 -11.125  -8.286  0.00  0.00     0.082 A 
ATOM     28  C   UNL d   1      28.554 -12.130  -9.392  0.00  0.00     0.027 A 
ATOM     29  C   UNL d   1      27.228 -11.483  -8.987  0.00  0.00     0.027 A 
ENDBRANCH  25  27
ENDBRANCH  22  25
BRANCH  23  30
ATOM     30  N   UNL d   1      28.450 -14.808  -6.438  0.00  0.00    -0.113 N 
ATOM     31  O   UNL d   1      28.693 -15.851  -5.815  0.00  0.00    -0.532 OA
ATOM     32  O   UNL d   1      28.912 -14.539  -7.558  0.00  0.00    -0.532 OA
ENDBRANCH  23  30
ENDBRANCH   2  19
TORSDOF 9
ENDMDL
MODEL 5
REMARK VINA RESULT:    -8.001      1.717      2.072
REMARK INTER + INTRA:         -12.512
REMARK INTER:                 -10.686
REMARK INTRA:                  -1.826
REMARK CONF_INDEPENDENT:        2.685
REMARK UNBOUND:                -1.826
REMARK  9 active torsions:
REMARK  status: ('A' for Active; 'I' for Inactive)
REMARK    1  A    between atoms: O_2  and  C_3 
REMARK    2  A    between atoms: C_6  and  C_7 
REMARK    3  A    between atoms: C_7  and  C_8 
REMARK    4  A    between atoms: C_8  and  C_9 
REMARK       I    between atoms: C_9  and  N_11 
REMARK    5  A    between atoms: N_11  and  N_12 
REMARK       I    between atoms: N_12  and  C_13 
REMARK    6  A    between atoms: C_13  and  C_15 
REMARK    7  A    between atoms: C_18  and  N_19 
REMARK    8  A    between atoms: N_19  and  C_20 
REMARK    9  A    between atoms: C_23  and  N_24 
ROOT
ATOM      1  N   UNL d   1      28.012 -13.649   2.520  0.00  0.00    -0.263 N 
ATOM      2  C   UNL d   1      28.362 -13.370   3.828  0.00  0.00     0.270 C 
ATOM      3  O   UNL d   1      28.572 -14.240   4.679  0.00  0.00    -0.266 OA
ATOM      4  H   UNL d   1      27.866 -12.947   1.794  0.00  0.00     0.190 HD
ENDROOT
BRANCH   1   5
ATOM      5  N   UNL d   1      27.907 -14.987   2.100  0.00  0.00    -0.267 N 
ATOM      6  C   UNL d   1      27.325 -15.248   0.871  0.00  0.00     0.236 C 
ATOM      7  O   UNL d   1      26.870 -14.355   0.158  0.00  0.00    -0.272 OA
ATOM      8  H   UNL d   1      28.299 -15.694   2.722  0.00  0.00     0.190 HD
BRANCH   6   9
ATOM      9  C   UNL d   1      27.305 -16.715   0.493  0.00  0.00     0.109 C 
BRANCH   9  10
ATOM     10  C   UNL d   1      26.631 -16.980  -0.863  0.00  0.00     0.048 C 
BRANCH  10  11
ATOM     11  C   UNL d   1      25.151 -17.314  -0.787  0.00  0.00    -0.058 A 
ATOM     12  C   UNL d   1      24.201 -16.327  -1.090  0.00  0.00     0.010 A 
ATOM     13  C   UNL d   1      22.834 -16.578  -0.920  0.00  0.00     0.037 A 
ATOM     14  C   UNL d   1      22.385 -17.835  -0.513  0.00  0.00     0.068 A 
ATOM     15  C   UNL d   1      23.316 -18.830  -0.242  0.00  0.00     0.037 A 
ATOM     16  C   UNL d   1      24.682 -18.570  -0.381  0.00  0.00     0.010 A 
BRANCH  14  17
ATOM     17  O   UNL d   1      21.030 -18.010  -0.521  0.00  0.00    -0.356 OA
ATOM     18  C   UNL d   1      20.559 -19.343  -0.367  0.00  0.00     0.210 C 
ENDBRANCH  14  17
ENDBRANCH  10  11
ENDBRANCH   9  10
ENDBRANCH   6   9
ENDBRANCH   1   5
BRANCH   2  19
ATOM     19  C   UNL d   1      28.406 -11.939   4.222  0.00  0.00     0.036 C 
ATOM     20  C   UNL d   1      28.921 -11.509   5.445  0.00  0.00     0.019 C 
ATOM     21  C   UNL d   1      28.730 -10.175   5.875  0.00  0.00     0.032 C 
ATOM     22  C   UNL d   1      28.019  -9.215   5.105  0.00  0.00     0.061 C 
ATOM     23  C   UNL d   1      27.442  -9.734   3.915  0.00  0.00     0.130 C 
ATOM     24  C   UNL d   1      27.699 -11.040   3.452  0.00  0.00     0.055 C 
BRANCH  22  25
ATOM     25  N   UNL d   1      28.069  -7.879   5.610  0.00  0.00    -0.383 N 
ATOM     26  H   UNL d   1      27.396  -7.679   6.349  0.00  0.00     0.160 HD
BRANCH  25  27
ATOM     27  C   UNL d   1      29.014  -6.779   5.287  0.00  0.00     0.082 A 
ATOM     28  C   UNL d   1      30.461  -7.074   5.049  0.00  0.00     0.027 A 
ATOM     29  C   UNL d   1      29.515  -6.724   3.899  0.00  0.00     0.027 A 
ENDBRANCH  25  27
ENDBRANCH  22  25
BRANCH  23  30
ATOM     30  N   UNL d   1      26.354  -9.160   3.123  0.00  0.00    -0.113 N 
ATOM     31  O   UNL d   1      26.318  -7.929   2.986  0.00  0.00    -0.532 OA
ATOM     32  O   UNL d   1      25.435  -9.927   2.795  0.00  0.00    -0.532 OA
ENDBRANCH  23  30
ENDBRANCH   2  19
TORSDOF 9
ENDMDL
MODEL 6
REMARK VINA RESULT:    -7.740      2.291      2.996
REMARK INTER + INTRA:         -12.499
REMARK INTER:                 -10.425
REMARK INTRA:                  -2.074
REMARK CONF_INDEPENDENT:        2.685
REMARK UNBOUND:                -2.074
REMARK  9 active torsions:
REMARK  status: ('A' for Active; 'I' for Inactive)
REMARK    1  A    between atoms: O_2  and  C_3 
REMARK    2  A    between atoms: C_6  and  C_7 
REMARK    3  A    between atoms: C_7  and  C_8 
REMARK    4  A    between atoms: C_8  and  C_9 
REMARK       I    between atoms: C_9  and  N_11 
REMARK    5  A    between atoms: N_11  and  N_12 
REMARK       I    between atoms: N_12  and  C_13 
REMARK    6  A    between atoms: C_13  and  C_15 
REMARK    7  A    between atoms: C_18  and  N_19 
REMARK    8  A    between atoms: N_19  and  C_20 
REMARK    9  A    between atoms: C_23  and  N_24 
ROOT
ATOM      1  N   UNL d   1      28.359 -14.228   3.531  0.00  0.00    -0.263 N 
ATOM      2  C   UNL d   1      29.478 -14.273   4.341  0.00  0.00     0.270 C 
ATOM      3  O   UNL d   1      30.529 -14.836   4.021  0.00  0.00    -0.266 OA
ATOM      4  H   UNL d   1      27.492 -13.741   3.762  0.00  0.00     0.190 HD
ENDROOT
BRANCH   1   5
ATOM      5  N   UNL d   1      28.398 -14.825   2.259  0.00  0.00    -0.267 N 
ATOM      6  C   UNL d   1      27.412 -14.493   1.344  0.00  0.00     0.236 C 
ATOM      7  O   UNL d   1      26.492 -13.725   1.621  0.00  0.00    -0.272 OA
ATOM      8  H   UNL d   1      29.179 -15.453   2.072  0.00  0.00     0.190 HD
BRANCH   6   9
ATOM      9  C   UNL d   1      27.575 -15.153  -0.010  0.00  0.00     0.109 C 
BRANCH   9  10
ATOM     10  C   UNL d   1      27.247 -16.654   0.007  0.00  0.00     0.048 C 
BRANCH  10  11
ATOM     11  C   UNL d   1      25.786 -16.994  -0.229  0.00  0.00    -0.058 A 
ATOM     12  C   UNL d   1      24.997 -16.147  -1.022  0.00  0.00     0.010 A 
ATOM     13  C   UNL d   1      23.623 -16.378  -1.162  0.00  0.00     0.037 A 
ATOM     14  C   UNL d   1      23.024 -17.493  -0.574  0.00  0.00     0.068 A 
ATOM     15  C   UNL d   1      23.803 -18.356   0.187  0.00  0.00     0.037 A 
ATOM     16  C   UNL d   1      25.168 -18.108   0.353  0.00  0.00     0.010 A 
BRANCH  14  17
ATOM     17  O   UNL d   1      21.712 -17.697  -0.896  0.00  0.00    -0.356 OA
ATOM     18  C   UNL d   1      21.176 -18.981  -0.597  0.00  0.00     0.210 C 
ENDBRANCH  14  17
ENDBRANCH  10  11
ENDBRANCH   9  10
ENDBRANCH   6   9
ENDBRANCH   1   5
BRANCH   2  19
ATOM     19  C   UNL d   1      29.356 -13.670   5.692  0.00  0.00     0.036 C 
ATOM     20  C   UNL d   1      28.919 -14.391   6.803  0.00  0.00     0.019 C 
ATOM     21  C   UNL d   1      28.595 -13.725   8.008  0.00  0.00     0.032 C 
ATOM     22  C   UNL d   1      28.693 -12.315   8.157  0.00  0.00     0.061 C 
ATOM     23  C   UNL d   1      29.056 -11.628   6.968  0.00  0.00     0.130 C 
ATOM     24  C   UNL d   1      29.452 -12.298   5.792  0.00  0.00     0.055 C 
BRANCH  22  25
ATOM     25  N   UNL d   1      28.491 -11.832   9.486  0.00  0.00    -0.383 N 
ATOM     26  H   UNL d   1      28.521 -10.817   9.578  0.00  0.00     0.160 HD
BRANCH  25  27
ATOM     27  C   UNL d   1      28.149 -12.578  10.724  0.00  0.00     0.082 A 
ATOM     28  C   UNL d   1      28.982 -13.743  11.158  0.00  0.00     0.027 A 
ATOM     29  C   UNL d   1      29.052 -12.395  11.878  0.00  0.00     0.027 A 
ENDBRANCH  25  27
ENDBRANCH  22  25
BRANCH  23  30
ATOM     30  N   UNL d   1      28.866 -10.210   6.659  0.00  0.00    -0.113 N 
ATOM     31  O   UNL d   1      28.902  -9.399   7.595  0.00  0.00    -0.532 OA
ATOM     32  O   UNL d   1      28.497  -9.933   5.507  0.00  0.00    -0.532 OA
ENDBRANCH  23  30
ENDBRANCH   2  19
TORSDOF 9
ENDMDL
MODEL 7
REMARK VINA RESULT:    -7.636      6.126      8.996
REMARK INTER + INTRA:         -12.335
REMARK INTER:                 -10.320
REMARK INTRA:                  -2.015
REMARK CONF_INDEPENDENT:        2.685
REMARK UNBOUND:                -2.015
REMARK  9 active torsions:
REMARK  status: ('A' for Active; 'I' for Inactive)
REMARK    1  A    between atoms: O_2  and  C_3 
REMARK    2  A    between atoms: C_6  and  C_7 
REMARK    3  A    between atoms: C_7  and  C_8 
REMARK    4  A    between atoms: C_8  and  C_9 
REMARK       I    between atoms: C_9  and  N_11 
REMARK    5  A    between atoms: N_11  and  N_12 
REMARK       I    between atoms: N_12  and  C_13 
REMARK    6  A    between atoms: C_13  and  C_15 
REMARK    7  A    between atoms: C_18  and  N_19 
REMARK    8  A    between atoms: N_19  and  C_20 
REMARK    9  A    between atoms: C_23  and  N_24 
ROOT
ATOM      1  N   UNL d   1      27.101 -15.578  -2.928  0.00  0.00    -0.263 N 
ATOM      2  C   UNL d   1      26.276 -14.940  -3.836  0.00  0.00     0.270 C 
ATOM      3  O   UNL d   1      25.057 -14.822  -3.684  0.00  0.00    -0.266 OA
ATOM      4  H   UNL d   1      28.115 -15.658  -3.019  0.00  0.00     0.190 HD
ENDROOT
BRANCH   1   5
ATOM      5  N   UNL d   1      26.555 -16.108  -1.747  0.00  0.00    -0.267 N 
ATOM      6  C   UNL d   1      27.416 -16.644  -0.804  0.00  0.00     0.236 C 
ATOM      7  O   UNL d   1      28.631 -16.701  -0.983  0.00  0.00    -0.272 OA
ATOM      8  H   UNL d   1      25.543 -16.038  -1.638  0.00  0.00     0.190 HD
BRANCH   6   9
ATOM      9  C   UNL d   1      26.729 -17.142   0.452  0.00  0.00     0.109 C 
BRANCH   9  10
ATOM     10  C   UNL d   1      25.923 -18.432   0.228  0.00  0.00     0.048 C 
BRANCH  10  11
ATOM     11  C   UNL d   1      24.457 -18.220  -0.108  0.00  0.00    -0.058 A 
ATOM     12  C   UNL d   1      23.655 -19.324  -0.435  0.00  0.00     0.010 A 
ATOM     13  C   UNL d   1      22.332 -19.142  -0.856  0.00  0.00     0.037 A 
ATOM     14  C   UNL d   1      21.763 -17.869  -0.891  0.00  0.00     0.068 A 
ATOM     15  C   UNL d   1      22.539 -16.772  -0.537  0.00  0.00     0.037 A 
ATOM     16  C   UNL d   1      23.869 -16.949  -0.148  0.00  0.00     0.010 A 
BRANCH  14  17
ATOM     17  O   UNL d   1      20.427 -17.826  -1.176  0.00  0.00    -0.356 OA
ATOM     18  C   UNL d   1      19.673 -18.992  -0.871  0.00  0.00     0.210 C 
ENDBRANCH  14  17
ENDBRANCH  10  11
ENDBRANCH   9  10
ENDBRANCH   6   9
ENDBRANCH   1   5
BRANCH   2  19
ATOM     19  C   UNL d   1      26.906 -14.448  -5.087  0.00  0.00     0.036 C 
ATOM     20  C   UNL d   1      27.830 -15.200  -5.813  0.00  0.00     0.019 C 
ATOM     21  C   UNL d   1      28.575 -14.607  -6.858  0.00  0.00     0.032 C 
ATOM     22  C   UNL d   1      28.431 -13.241  -7.225  0.00  0.00     0.061 C 
ATOM     23  C   UNL d   1      27.544 -12.506  -6.394  0.00  0.00     0.130 C 
ATOM     24  C   UNL d   1      26.746 -13.116  -5.404  0.00  0.00     0.055 C 
BRANCH  22  25
ATOM     25  N   UNL d   1      29.133 -12.855  -8.407  0.00  0.00    -0.383 N 
ATOM     26  H   UNL d   1      30.048 -13.291  -8.519  0.00  0.00     0.160 HD
BRANCH  25  27
ATOM     27  C   UNL d   1      28.690 -11.996  -9.535  0.00  0.00     0.082 A 
ATOM     28  C   UNL d   1      27.341 -12.197 -10.151  0.00  0.00     0.027 A 
ATOM     29  C   UNL d   1      27.635 -11.006  -9.237  0.00  0.00     0.027 A 
ENDBRANCH  25  27
ENDBRANCH  22  25
BRANCH  23  30
ATOM     30  N   UNL d   1      27.465 -11.053  -6.230  0.00  0.00    -0.113 N 
ATOM     31  O   UNL d   1      26.346 -10.523  -6.255  0.00  0.00    -0.532 OA
ATOM     32  O   UNL d   1      28.537 -10.428  -6.262  0.00  0.00    -0.532 OA
ENDBRANCH  23  30
ENDBRANCH   2  19
TORSDOF 9
ENDMDL
MODEL 8
REMARK VINA RESULT:    -7.439      2.066      2.704
REMARK INTER + INTRA:         -12.275
REMARK INTER:                 -10.124
REMARK INTRA:                  -2.151
REMARK CONF_INDEPENDENT:        2.685
REMARK UNBOUND:                -2.151
REMARK  9 active torsions:
REMARK  status: ('A' for Active; 'I' for Inactive)
REMARK    1  A    between atoms: O_2  and  C_3 
REMARK    2  A    between atoms: C_6  and  C_7 
REMARK    3  A    between atoms: C_7  and  C_8 
REMARK    4  A    between atoms: C_8  and  C_9 
REMARK       I    between atoms: C_9  and  N_11 
REMARK    5  A    between atoms: N_11  and  N_12 
REMARK       I    between atoms: N_12  and  C_13 
REMARK    6  A    between atoms: C_13  and  C_15 
REMARK    7  A    between atoms: C_18  and  N_19 
REMARK    8  A    between atoms: N_19  and  C_20 
REMARK    9  A    between atoms: C_23  and  N_24 
ROOT
ATOM      1  N   UNL d   1      27.843 -15.100   1.736  0.00  0.00    -0.263 N 
ATOM      2  C   UNL d   1      27.397 -14.049   2.517  0.00  0.00     0.270 C 
ATOM      3  O   UNL d   1      26.575 -13.213   2.130  0.00  0.00    -0.266 OA
ATOM      4  H   UNL d   1      28.497 -15.819   2.047  0.00  0.00     0.190 HD
ENDROOT
BRANCH   1   5
ATOM      5  N   UNL d   1      27.333 -15.265   0.437  0.00  0.00    -0.267 N 
ATOM      6  C   UNL d   1      27.642 -16.427  -0.250  0.00  0.00     0.236 C 
ATOM      7  O   UNL d   1      28.372 -17.295   0.225  0.00  0.00    -0.272 OA
ATOM      8  H   UNL d   1      26.730 -14.521   0.084  0.00  0.00     0.190 HD
BRANCH   6   9
ATOM      9  C   UNL d   1      27.002 -16.526  -1.620  0.00  0.00     0.109 C 
BRANCH   9  10
ATOM     10  C   UNL d   1      25.595 -15.908  -1.675  0.00  0.00     0.048 C 
BRANCH  10  11
ATOM     11  C   UNL d   1      24.484 -16.797  -1.144  0.00  0.00    -0.058 A 
ATOM     12  C   UNL d   1      24.742 -18.152  -0.890  0.00  0.00     0.010 A 
ATOM     13  C   UNL d   1      23.707 -19.015  -0.508  0.00  0.00     0.037 A 
ATOM     14  C   UNL d   1      22.414 -18.532  -0.303  0.00  0.00     0.068 A 
ATOM     15  C   UNL d   1      22.155 -17.184  -0.520  0.00  0.00     0.037 A 
ATOM     16  C   UNL d   1      23.180 -16.329  -0.933  0.00  0.00     0.010 A 
BRANCH  14  17
ATOM     17  O   UNL d   1      21.521 -19.430   0.207  0.00  0.00    -0.356 OA
ATOM     18  C   UNL d   1      20.180 -19.328  -0.257  0.00  0.00     0.210 C 
ENDBRANCH  14  17
ENDBRANCH  10  11
ENDBRANCH   9  10
ENDBRANCH   6   9
ENDBRANCH   1   5
BRANCH   2  19
ATOM     19  C   UNL d   1      28.012 -13.900   3.859  0.00  0.00     0.036 C 
ATOM     20  C   UNL d   1      28.175 -14.970   4.739  0.00  0.00     0.019 C 
ATOM     21  C   UNL d   1      28.546 -14.744   6.084  0.00  0.00     0.032 C 
ATOM     22  C   UNL d   1      28.770 -13.443   6.610  0.00  0.00     0.061 C 
ATOM     23  C   UNL d   1      28.503 -12.390   5.695  0.00  0.00     0.130 C 
ATOM     24  C   UNL d   1      28.209 -12.620   4.335  0.00  0.00     0.055 C 
BRANCH  22  25
ATOM     25  N   UNL d   1      29.301 -13.411   7.937  0.00  0.00    -0.383 N 
ATOM     26  H   UNL d   1      29.702 -12.515   8.212  0.00  0.00     0.160 HD
BRANCH  25  27
ATOM     27  C   UNL d   1      29.265 -14.450   8.997  0.00  0.00     0.082 A 
ATOM     28  C   UNL d   1      30.278 -14.440  10.098  0.00  0.00     0.027 A 
ATOM     29  C   UNL d   1      28.829 -14.012  10.339  0.00  0.00     0.027 A 
ENDBRANCH  25  27
ENDBRANCH  22  25
BRANCH  23  30
ATOM     30  N   UNL d   1      28.246 -10.982   5.999  0.00  0.00    -0.113 N 
ATOM     31  O   UNL d   1      27.782 -10.266   5.100  0.00  0.00    -0.532 OA
ATOM     32  O   UNL d   1      28.682 -10.554   7.079  0.00  0.00    -0.532 OA
ENDBRANCH  23  30
ENDBRANCH   2  19
TORSDOF 9
ENDMDL
MODEL 9
REMARK VINA RESULT:    -7.378      5.158      7.394
REMARK INTER + INTRA:         -12.141
REMARK INTER:                 -10.063
REMARK INTRA:                  -2.078
REMARK CONF_INDEPENDENT:        2.685
REMARK UNBOUND:                -2.078
REMARK  9 active torsions:
REMARK  status: ('A' for Active; 'I' for Inactive)
REMARK    1  A    between atoms: O_2  and  C_3 
REMARK    2  A    between atoms: C_6  and  C_7 
REMARK    3  A    between atoms: C_7  and  C_8 
REMARK    4  A    between atoms: C_8  and  C_9 
REMARK       I    between atoms: C_9  and  N_11 
REMARK    5  A    between atoms: N_11  and  N_12 
REMARK       I    between atoms: N_12  and  C_13 
REMARK    6  A    between atoms: C_13  and  C_15 
REMARK    7  A    between atoms: C_18  and  N_19 
REMARK    8  A    between atoms: N_19  and  C_20 
REMARK    9  A    between atoms: C_23  and  N_24 
ROOT
ATOM      1  N   UNL d   1      26.099 -13.955  -2.145  0.00  0.00    -0.263 N 
ATOM      2  C   UNL d   1      25.594 -13.851  -3.428  0.00  0.00     0.270 C 
ATOM      3  O   UNL d   1      25.256 -14.823  -4.110  0.00  0.00    -0.266 OA
ATOM      4  H   UNL d   1      26.355 -13.163  -1.554  0.00  0.00     0.190 HD
ENDROOT
BRANCH   1   5
ATOM      5  N   UNL d   1      26.222 -15.222  -1.549  0.00  0.00    -0.267 N 
ATOM      6  C   UNL d   1      26.495 -15.288  -0.192  0.00  0.00     0.236 C 
ATOM      7  O   UNL d   1      26.667 -14.281   0.492  0.00  0.00    -0.272 OA
ATOM      8  H   UNL d   1      26.070 -16.029  -2.153  0.00  0.00     0.190 HD
BRANCH   6   9
ATOM      9  C   UNL d   1      26.558 -16.698   0.359  0.00  0.00     0.109 C 
BRANCH   9  10
ATOM     10  C   UNL d   1      25.963 -17.746  -0.595  0.00  0.00     0.048 C 
BRANCH  10  11
ATOM     11  C   UNL d   1      24.446 -17.778  -0.646  0.00  0.00    -0.058 A 
ATOM     12  C   UNL d   1      23.777 -19.012  -0.620  0.00  0.00     0.010 A 
ATOM     13  C   UNL d   1      22.387 -19.072  -0.779  0.00  0.00     0.037 A 
ATOM     14  C   UNL d   1      21.631 -17.905  -0.894  0.00  0.00     0.068 A 
ATOM     15  C   UNL d   1      22.280 -16.675  -0.888  0.00  0.00     0.037 A 
ATOM     16  C   UNL d   1      23.671 -16.617  -0.762  0.00  0.00     0.010 A 
BRANCH  14  17
ATOM     17  O   UNL d   1      20.276 -18.075  -0.897  0.00  0.00    -0.356 OA
ATOM     18  C   UNL d   1      19.781 -19.251  -0.267  0.00  0.00     0.210 C 
ENDBRANCH  14  17
ENDBRANCH  10  11
ENDBRANCH   9  10
ENDBRANCH   6   9
ENDBRANCH   1   5
BRANCH   2  19
ATOM     19  C   UNL d   1      25.539 -12.491  -4.021  0.00  0.00     0.036 C 
ATOM     20  C   UNL d   1      25.632 -12.261  -5.394  0.00  0.00     0.019 C 
ATOM     21  C   UNL d   1      25.809 -10.950  -5.892  0.00  0.00     0.032 C 
ATOM     22  C   UNL d   1      25.902  -9.813  -5.044  0.00  0.00     0.061 C 
ATOM     23  C   UNL d   1      25.891 -10.117  -3.657  0.00  0.00     0.130 C 
ATOM     24  C   UNL d   1      25.636 -11.414  -3.165  0.00  0.00     0.055 C 
BRANCH  22  25
ATOM     25  N   UNL d   1      25.909  -8.554  -5.721  0.00  0.00    -0.383 N 
ATOM     26  H   UNL d   1      26.825  -8.256  -6.054  0.00  0.00     0.160 HD
BRANCH  25  27
ATOM     27  C   UNL d   1      24.774  -7.672  -6.092  0.00  0.00     0.082 A 
ATOM     28  C   UNL d   1      23.369  -8.075  -5.773  0.00  0.00     0.027 A 
ATOM     29  C   UNL d   1      24.086  -6.977  -4.985  0.00  0.00     0.027 A 
ENDBRANCH  25  27
ENDBRANCH  22  25
BRANCH  23  30
ATOM     30  N   UNL d   1      26.353  -9.278  -2.551  0.00  0.00    -0.113 N 
ATOM     31  O   UNL d   1      26.590  -8.084  -2.784  0.00  0.00    -0.532 OA
ATOM     32  O   UNL d   1      26.654  -9.858  -1.496  0.00  0.00    -0.532 OA
ENDBRANCH  23  30
ENDBRANCH   2  19
TORSDOF 9
ENDMDL
