MODEL 1
REMARK VINA RESULT:    -7.237      0.000      0.000
REMARK INTER + INTRA:          -8.958
REMARK INTER:                  -8.132
REMARK INTRA:                  -0.826
REMARK CONF_INDEPENDENT:        0.895
REMARK UNBOUND:                -0.826
REMARK  3 active torsions:
REMARK  status: ('A' for Active; 'I' for Inactive)
REMARK    1  A    between atoms: C_4  and  N_5 
REMARK    2  A    between atoms: C_8  and  C_9 
REMARK       I    between atoms: C_9  and  N_11 
REMARK    3  A    between atoms: N_11  and  C_12 
ROOT
ATOM      1  N   UNL d   1      28.073 -14.330   0.566  0.00  0.00    -0.366 N 
ATOM      2  C   UNL d   1      28.355 -15.385  -0.407  0.00  0.00     0.125 C 
ATOM      3  C   UNL d   1      28.324 -14.765  -1.805  0.00  0.00     0.034 C 
ATOM      4  C   UNL d   1      26.978 -14.095  -2.102  0.00  0.00     0.081 C 
ATOM      5  C   UNL d   1      26.609 -13.114  -0.948  0.00  0.00     0.034 C 
ATOM      6  C   UNL d   1      26.717 -13.781   0.449  0.00  0.00     0.125 C 
ENDROOT
BRANCH   4   7
ATOM      7  C   UNL d   1      25.832 -15.081  -2.271  0.00  0.00     0.222 C 
ATOM      8  O   UNL d   1      25.173 -15.045  -3.314  0.00  0.00    -0.273 OA
ATOM      9  N   UNL d   1      25.579 -15.972  -1.252  0.00  0.00    -0.356 N 
ATOM     10  H   UNL d   1      26.283 -16.119  -0.537  0.00  0.00     0.162 HD
BRANCH   9  11
ATOM     11  C   UNL d   1      24.471 -16.947  -1.306  0.00  0.00     0.084 C 
ATOM     12  C   UNL d   1      24.785 -18.217  -0.493  0.00  0.00     0.025 C 
ATOM     13  C   UNL d   1      23.651 -19.216  -0.416  0.00  0.00     0.002 C 
ATOM     14  C   UNL d   1      22.378 -18.538   0.078  0.00  0.00     0.000 C 
ATOM     15  C   UNL d   1      22.008 -17.367  -0.824  0.00  0.00     0.002 C 
ATOM     16  C   UNL d   1      23.129 -16.326  -0.890  0.00  0.00     0.025 C 
ENDBRANCH   9  11
ENDBRANCH   4   7
BRANCH   1  17
ATOM     17  C   UNL d   1      28.840 -14.327   1.706  0.00  0.00     0.129 A 
ATOM     18  C   UNL d   1      28.305 -14.364   2.984  0.00  0.00     0.075 A 
ATOM     19  C   UNL d   1      29.167 -14.449   4.087  0.00  0.00     0.010 A 
ATOM     20  C   UNL d   1      28.669 -14.525   5.496  0.00  0.00     0.068 C 
ATOM     21  N   UNL d   1      30.495 -14.472   3.880  0.00  0.00    -0.348 N 
ATOM     22  C   UNL d   1      30.978 -14.431   2.631  0.00  0.00     0.102 A 
ATOM     23  H   UNL d   1      31.145 -14.525   4.662  0.00  0.00     0.167 HD
ATOM     24  N   UNL d   1      30.179 -14.380   1.537  0.00  0.00    -0.218 NA
ATOM     25  C   UNL d   1      32.468 -14.447   2.448  0.00  0.00     0.091 C 
ENDBRANCH   1  17
TORSDOF 3
ENDMDL
MODEL 2
REMARK VINA RESULT:    -7.181      4.048      7.372
REMARK INTER + INTRA:          -8.888
REMARK INTER:                  -8.076
REMARK INTRA:                  -0.812
REMARK CONF_INDEPENDENT:        0.895
REMARK UNBOUND:                -0.812
REMARK  3 active torsions:
REMARK  status: ('A' for Active; 'I' for Inactive)
REMARK    1  A    between atoms: C_4  and  N_5 
REMARK    2  A    between atoms: C_8  and  C_9 
REMARK       I    between atoms: C_9  and  N_11 
REMARK    3  A    between atoms: N_11  and  C_12 
ROOT
ATOM      1  N   UNL d   1      26.177 -15.902  -2.678  0.00  0.00    -0.366 N 
ATOM      2  C   UNL d   1      27.638 -15.949  -2.692  0.00  0.00     0.125 C 
ATOM      3  C   UNL d   1      28.159 -14.543  -2.990  0.00  0.00     0.034 C 
ATOM      4  C   UNL d   1      27.619 -14.005  -4.320  0.00  0.00     0.081 C 
ATOM      5  C   UNL d   1      26.067 -14.144  -4.355  0.00  0.00     0.034 C 
ATOM      6  C   UNL d   1      25.595 -15.575  -3.985  0.00  0.00     0.125 C 
ENDROOT
BRANCH   4   7
ATOM      7  C   UNL d   1      28.189 -14.714  -5.538  0.00  0.00     0.222 C 
ATOM      8  O   UNL d   1      27.404 -15.200  -6.358  0.00  0.00    -0.273 OA
ATOM      9  N   UNL d   1      29.557 -14.786  -5.674  0.00  0.00    -0.356 N 
ATOM     10  H   UNL d   1      30.143 -14.177  -5.112  0.00  0.00     0.162 HD
BRANCH   9  11
ATOM     11  C   UNL d   1      30.209 -15.480  -6.803  0.00  0.00     0.084 C 
ATOM     12  C   UNL d   1      31.529 -14.800  -7.209  0.00  0.00     0.025 C 
ATOM     13  C   UNL d   1      32.305 -15.519  -8.291  0.00  0.00     0.002 C 
ATOM     14  C   UNL d   1      32.525 -16.978  -7.908  0.00  0.00     0.000 C 
ATOM     15  C   UNL d   1      31.193 -17.671  -7.644  0.00  0.00     0.002 C 
ATOM     16  C   UNL d   1      30.405 -16.979  -6.528  0.00  0.00     0.025 C 
ENDBRANCH   9  11
ENDBRANCH   4   7
BRANCH   1  17
ATOM     17  C   UNL d   1      25.550 -16.606  -1.680  0.00  0.00     0.129 A 
ATOM     18  C   UNL d   1      24.179 -16.801  -1.630  0.00  0.00     0.075 A 
ATOM     19  C   UNL d   1      23.635 -17.610  -0.622  0.00  0.00     0.010 A 
ATOM     20  C   UNL d   1      22.171 -17.896  -0.518  0.00  0.00     0.068 C 
ATOM     21  N   UNL d   1      24.457 -18.162   0.288  0.00  0.00    -0.348 N 
ATOM     22  C   UNL d   1      25.778 -17.948   0.213  0.00  0.00     0.102 A 
ATOM     23  H   UNL d   1      24.090 -18.747   1.037  0.00  0.00     0.167 HD
ATOM     24  N   UNL d   1      26.346 -17.200  -0.763  0.00  0.00    -0.218 NA
ATOM     25  C   UNL d   1      26.655 -18.575   1.258  0.00  0.00     0.091 C 
ENDBRANCH   1  17
TORSDOF 3
ENDMDL
MODEL 3
REMARK VINA RESULT:    -7.105      4.374      6.784
REMARK INTER + INTRA:          -8.793
REMARK INTER:                  -8.000
REMARK INTRA:                  -0.793
REMARK CONF_INDEPENDENT:        0.895
REMARK UNBOUND:                -0.793
REMARK  3 active torsions:
REMARK  status: ('A' for Active; 'I' for Inactive)
REMARK    1  A    between atoms: C_4  and  N_5 
REMARK    2  A    between atoms: C_8  and  C_9 
REMARK       I    between atoms: C_9  and  N_11 
REMARK    3  A    between atoms: N_11  and  C_12 
ROOT
ATOM      1  N   UNL d   1      28.824 -15.355  -5.153  0.00  0.00    -0.366 N 
ATOM      2  C   UNL d   1      27.580 -14.795  -5.681  0.00  0.00     0.125 C 
ATOM      3  C   UNL d   1      27.173 -13.616  -4.796  0.00  0.00     0.034 C 
ATOM      4  C   UNL d   1      27.003 -14.035  -3.332  0.00  0.00     0.081 C 
ATOM      5  C   UNL d   1      28.272 -14.801  -2.851  0.00  0.00     0.034 C 
ATOM      6  C   UNL d   1      28.672 -15.946  -3.819  0.00  0.00     0.125 C 
ENDROOT
BRANCH   4   7
ATOM      7  C   UNL d   1      25.791 -14.922  -3.091  0.00  0.00     0.222 C 
ATOM      8  O   UNL d   1      24.780 -14.738  -3.774  0.00  0.00    -0.273 OA
ATOM      9  N   UNL d   1      25.874 -15.893  -2.117  0.00  0.00    -0.356 N 
ATOM     10  H   UNL d   1      26.785 -16.157  -1.758  0.00  0.00     0.162 HD
BRANCH   9  11
ATOM     11  C   UNL d   1      24.743 -16.782  -1.784  0.00  0.00     0.084 C 
ATOM     12  C   UNL d   1      25.160 -17.896  -0.805  0.00  0.00     0.025 C 
ATOM     13  C   UNL d   1      24.027 -18.783  -0.337  0.00  0.00     0.002 C 
ATOM     14  C   UNL d   1      22.891 -17.940   0.230  0.00  0.00     0.000 C 
ATOM     15  C   UNL d   1      22.399 -16.935  -0.806  0.00  0.00     0.002 C 
ATOM     16  C   UNL d   1      23.523 -16.004  -1.270  0.00  0.00     0.025 C 
ENDBRANCH   9  11
ENDBRANCH   4   7
BRANCH   1  17
ATOM     17  C   UNL d   1      29.780 -15.701  -6.075  0.00  0.00     0.129 A 
ATOM     18  C   UNL d   1      30.521 -14.773  -6.791  0.00  0.00     0.075 A 
ATOM     19  C   UNL d   1      31.540 -15.218  -7.646  0.00  0.00     0.010 A 
ATOM     20  C   UNL d   1      32.404 -14.280  -8.427  0.00  0.00     0.068 C 
ATOM     21  N   UNL d   1      31.761 -16.539  -7.768  0.00  0.00    -0.348 N 
ATOM     22  C   UNL d   1      31.023 -17.409  -7.065  0.00  0.00     0.102 A 
ATOM     23  H   UNL d   1      32.488 -16.892  -8.388  0.00  0.00     0.167 HD
ATOM     24  N   UNL d   1      30.051 -17.019  -6.205  0.00  0.00    -0.218 NA
ATOM     25  C   UNL d   1      31.298 -18.873  -7.243  0.00  0.00     0.091 C 
ENDBRANCH   1  17
TORSDOF 3
ENDMDL
MODEL 4
REMARK VINA RESULT:    -7.089      4.104      7.238
REMARK INTER + INTRA:          -8.853
REMARK INTER:                  -7.984
REMARK INTRA:                  -0.869
REMARK CONF_INDEPENDENT:        0.895
REMARK UNBOUND:                -0.869
REMARK  3 active torsions:
REMARK  status: ('A' for Active; 'I' for Inactive)
REMARK    1  A    between atoms: C_4  and  N_5 
REMARK    2  A    between atoms: C_8  and  C_9 
REMARK       I    between atoms: C_9  and  N_11 
REMARK    3  A    between atoms: N_11  and  C_12 
ROOT
ATOM      1  N   UNL d   1      25.689 -15.503  -2.624  0.00  0.00    -0.366 N 
ATOM      2  C   UNL d   1      24.770 -14.376  -2.775  0.00  0.00     0.125 C 
ATOM      3  C   UNL d   1      24.634 -14.067  -4.267  0.00  0.00     0.034 C 
ATOM      4  C   UNL d   1      25.990 -13.754  -4.909  0.00  0.00     0.081 C 
ATOM      5  C   UNL d   1      27.009 -14.883  -4.569  0.00  0.00     0.034 C 
ATOM      6  C   UNL d   1      27.059 -15.195  -3.050  0.00  0.00     0.125 C 
ENDROOT
BRANCH   4   7
ATOM      7  C   UNL d   1      26.583 -12.427  -4.461  0.00  0.00     0.222 C 
ATOM      8  O   UNL d   1      27.803 -12.355  -4.288  0.00  0.00    -0.273 OA
ATOM      9  N   UNL d   1      25.732 -11.362  -4.266  0.00  0.00    -0.356 N 
ATOM     10  H   UNL d   1      24.791 -11.404  -4.644  0.00  0.00     0.162 HD
BRANCH   9  11
ATOM     11  C   UNL d   1      26.204 -10.043  -3.800  0.00  0.00     0.084 C 
ATOM     12  C   UNL d   1      25.157  -8.941  -4.047  0.00  0.00     0.025 C 
ATOM     13  C   UNL d   1      25.529  -7.580  -3.500  0.00  0.00     0.002 C 
ATOM     14  C   UNL d   1      25.893  -7.682  -2.023  0.00  0.00     0.000 C 
ATOM     15  C   UNL d   1      27.028  -8.678  -1.817  0.00  0.00     0.002 C 
ATOM     16  C   UNL d   1      26.660 -10.072  -2.334  0.00  0.00     0.025 C 
ENDBRANCH   9  11
ENDBRANCH   4   7
BRANCH   1  17
ATOM     17  C   UNL d   1      25.336 -16.464  -1.708  0.00  0.00     0.129 A 
ATOM     18  C   UNL d   1      26.231 -17.031  -0.815  0.00  0.00     0.075 A 
ATOM     19  C   UNL d   1      25.761 -17.940   0.144  0.00  0.00     0.010 A 
ATOM     20  C   UNL d   1      26.656 -18.572   1.163  0.00  0.00     0.068 C 
ATOM     21  N   UNL d   1      24.455 -18.256   0.163  0.00  0.00    -0.348 N 
ATOM     22  C   UNL d   1      23.618 -17.691  -0.719  0.00  0.00     0.102 A 
ATOM     23  H   UNL d   1      24.086 -18.919   0.843  0.00  0.00     0.167 HD
ATOM     24  N   UNL d   1      24.025 -16.786  -1.641  0.00  0.00    -0.218 NA
ATOM     25  C   UNL d   1      22.170 -18.083  -0.668  0.00  0.00     0.091 C 
ENDBRANCH   1  17
TORSDOF 3
ENDMDL
MODEL 5
REMARK VINA RESULT:    -7.035      3.944      7.141
REMARK INTER + INTRA:          -8.792
REMARK INTER:                  -7.930
REMARK INTRA:                  -0.862
REMARK CONF_INDEPENDENT:        0.895
REMARK UNBOUND:                -0.862
REMARK  3 active torsions:
REMARK  status: ('A' for Active; 'I' for Inactive)
REMARK    1  A    between atoms: C_4  and  N_5 
REMARK    2  A    between atoms: C_8  and  C_9 
REMARK       I    between atoms: C_9  and  N_11 
REMARK    3  A    between atoms: N_11  and  C_12 
ROOT
ATOM      1  N   UNL d   1      25.606 -15.438  -2.459  0.00  0.00    -0.366 N 
ATOM      2  C   UNL d   1      24.716 -14.321  -2.775  0.00  0.00     0.125 C 
ATOM      3  C   UNL d   1      24.775 -14.075  -4.283  0.00  0.00     0.034 C 
ATOM      4  C   UNL d   1      26.203 -13.786  -4.759  0.00  0.00     0.081 C 
ATOM      5  C   UNL d   1      27.167 -14.897  -4.243  0.00  0.00     0.034 C 
ATOM      6  C   UNL d   1      27.020 -15.144  -2.718  0.00  0.00     0.125 C 
ENDROOT
BRANCH   4   7
ATOM      7  C   UNL d   1      26.737 -12.439  -4.294  0.00  0.00     0.222 C 
ATOM      8  O   UNL d   1      27.924 -12.357  -3.967  0.00  0.00    -0.273 OA
ATOM      9  N   UNL d   1      25.871 -11.369  -4.258  0.00  0.00    -0.356 N 
ATOM     10  H   UNL d   1      24.988 -11.429  -4.753  0.00  0.00     0.162 HD
BRANCH   9  11
ATOM     11  C   UNL d   1      26.282 -10.030  -3.792  0.00  0.00     0.084 C 
ATOM     12  C   UNL d   1      25.224  -8.960  -4.118  0.00  0.00     0.025 C 
ATOM     13  C   UNL d   1      25.530  -7.580  -3.576  0.00  0.00     0.002 C 
ATOM     14  C   UNL d   1      25.812  -7.647  -2.079  0.00  0.00     0.000 C 
ATOM     15  C   UNL d   1      26.958  -8.610  -1.791  0.00  0.00     0.002 C 
ATOM     16  C   UNL d   1      26.655 -10.021  -2.301  0.00  0.00     0.025 C 
ENDBRANCH   9  11
ENDBRANCH   4   7
BRANCH   1  17
ATOM     17  C   UNL d   1      25.134 -16.360  -1.558  0.00  0.00     0.129 A 
ATOM     18  C   UNL d   1      23.805 -16.744  -1.484  0.00  0.00     0.075 A 
ATOM     19  C   UNL d   1      23.430 -17.759  -0.592  0.00  0.00     0.010 A 
ATOM     20  C   UNL d   1      22.023 -18.252  -0.476  0.00  0.00     0.068 C 
ATOM     21  N   UNL d   1      24.368 -18.323   0.188  0.00  0.00    -0.348 N 
ATOM     22  C   UNL d   1      25.644 -17.925   0.095  0.00  0.00     0.102 A 
ATOM     23  H   UNL d   1      24.125 -19.057   0.851  0.00  0.00     0.167 HD
ATOM     24  N   UNL d   1      26.053 -16.970  -0.776  0.00  0.00    -0.218 NA
ATOM     25  C   UNL d   1      26.655 -18.575   0.994  0.00  0.00     0.091 C 
ENDBRANCH   1  17
TORSDOF 3
ENDMDL
MODEL 6
REMARK VINA RESULT:    -7.012      4.188      6.522
REMARK INTER + INTRA:          -8.688
REMARK INTER:                  -7.907
REMARK INTRA:                  -0.782
REMARK CONF_INDEPENDENT:        0.895
REMARK UNBOUND:                -0.782
REMARK  3 active torsions:
REMARK  status: ('A' for Active; 'I' for Inactive)
REMARK    1  A    between atoms: C_4  and  N_5 
REMARK    2  A    between atoms: C_8  and  C_9 
REMARK       I    between atoms: C_9  and  N_11 
REMARK    3  A    between atoms: N_11  and  C_12 
ROOT
ATOM      1  N   UNL d   1      28.681 -15.351  -4.811  0.00  0.00    -0.366 N 
ATOM      2  C   UNL d   1      27.446 -14.821  -5.386  0.00  0.00     0.125 C 
ATOM      3  C   UNL d   1      26.977 -13.653  -4.517  0.00  0.00     0.034 C 
ATOM      4  C   UNL d   1      26.760 -14.079  -3.061  0.00  0.00     0.081 C 
ATOM      5  C   UNL d   1      28.027 -14.815  -2.531  0.00  0.00     0.034 C 
ATOM      6  C   UNL d   1      28.492 -15.948  -3.484  0.00  0.00     0.125 C 
ENDROOT
BRANCH   4   7
ATOM      7  C   UNL d   1      25.562 -14.995  -2.867  0.00  0.00     0.222 C 
ATOM      8  O   UNL d   1      24.538 -14.772  -3.519  0.00  0.00    -0.273 OA
ATOM      9  N   UNL d   1      25.670 -16.034  -1.970  0.00  0.00    -0.356 N 
ATOM     10  H   UNL d   1      26.589 -16.314  -1.645  0.00  0.00     0.162 HD
BRANCH   9  11
ATOM     11  C   UNL d   1      24.554 -16.959  -1.686  0.00  0.00     0.084 C 
ATOM     12  C   UNL d   1      24.948 -18.033  -0.656  0.00  0.00     0.025 C 
ATOM     13  C   UNL d   1      23.821 -18.953  -0.238  0.00  0.00     0.002 C 
ATOM     14  C   UNL d   1      22.621 -18.141   0.236  0.00  0.00     0.000 C 
ATOM     15  C   UNL d   1      22.160 -17.179  -0.853  0.00  0.00     0.002 C 
ATOM     16  C   UNL d   1      23.275 -16.216  -1.269  0.00  0.00     0.025 C 
ENDBRANCH   9  11
ENDBRANCH   4   7
BRANCH   1  17
ATOM     17  C   UNL d   1      29.681 -15.673  -5.696  0.00  0.00     0.129 A 
ATOM     18  C   UNL d   1      30.056 -16.977  -5.980  0.00  0.00     0.075 A 
ATOM     19  C   UNL d   1      31.026 -17.214  -6.964  0.00  0.00     0.010 A 
ATOM     20  C   UNL d   1      31.463 -18.591  -7.351  0.00  0.00     0.068 C 
ATOM     21  N   UNL d   1      31.586 -16.168  -7.596  0.00  0.00    -0.348 N 
ATOM     22  C   UNL d   1      31.202 -14.920  -7.294  0.00  0.00     0.102 A 
ATOM     23  H   UNL d   1      32.299 -16.309  -8.310  0.00  0.00     0.167 HD
ATOM     24  N   UNL d   1      30.246 -14.649  -6.372  0.00  0.00    -0.218 NA
ATOM     25  C   UNL d   1      31.863 -13.783  -8.018  0.00  0.00     0.091 C 
ENDBRANCH   1  17
TORSDOF 3
ENDMDL
MODEL 7
REMARK VINA RESULT:    -6.996      2.287      3.920
REMARK INTER + INTRA:          -8.613
REMARK INTER:                  -7.891
REMARK INTRA:                  -0.722
REMARK CONF_INDEPENDENT:        0.895
REMARK UNBOUND:                -0.722
REMARK  3 active torsions:
REMARK  status: ('A' for Active; 'I' for Inactive)
REMARK    1  A    between atoms: C_4  and  N_5 
REMARK    2  A    between atoms: C_8  and  C_9 
REMARK       I    between atoms: C_9  and  N_11 
REMARK    3  A    between atoms: N_11  and  C_12 
ROOT
ATOM      1  N   UNL d   1      26.334 -15.949  -0.128  0.00  0.00    -0.366 N 
ATOM      2  C   UNL d   1      25.891 -17.162   0.558  0.00  0.00     0.125 C 
ATOM      3  C   UNL d   1      25.650 -18.245  -0.494  0.00  0.00     0.034 C 
ATOM      4  C   UNL d   1      24.620 -17.804  -1.540  0.00  0.00     0.081 C 
ATOM      5  C   UNL d   1      25.018 -16.413  -2.119  0.00  0.00     0.034 C 
ATOM      6  C   UNL d   1      25.309 -15.373  -1.006  0.00  0.00     0.125 C 
ENDROOT
BRANCH   4   7
ATOM      7  C   UNL d   1      23.204 -17.706  -0.995  0.00  0.00     0.222 C 
ATOM      8  O   UNL d   1      22.790 -16.604  -0.625  0.00  0.00    -0.273 OA
ATOM      9  N   UNL d   1      22.444 -18.853  -0.935  0.00  0.00    -0.356 N 
ATOM     10  H   UNL d   1      22.737 -19.669  -1.461  0.00  0.00     0.162 HD
BRANCH   9  11
ATOM     11  C   UNL d   1      21.071 -18.869  -0.392  0.00  0.00     0.084 C 
ATOM     12  C   UNL d   1      20.117 -19.700  -1.271  0.00  0.00     0.025 C 
ATOM     13  C   UNL d   1      18.716 -19.849  -0.719  0.00  0.00     0.002 C 
ATOM     14  C   UNL d   1      18.760 -20.378   0.709  0.00  0.00     0.000 C 
ATOM     15  C   UNL d   1      19.597 -19.462   1.596  0.00  0.00     0.002 C 
ATOM     16  C   UNL d   1      21.031 -19.325   1.074  0.00  0.00     0.025 C 
ENDBRANCH   9  11
ENDBRANCH   4   7
BRANCH   1  17
ATOM     17  C   UNL d   1      27.366 -15.257   0.456  0.00  0.00     0.129 A 
ATOM     18  C   UNL d   1      28.701 -15.592   0.288  0.00  0.00     0.075 A 
ATOM     19  C   UNL d   1      29.691 -14.774   0.850  0.00  0.00     0.010 A 
ATOM     20  C   UNL d   1      31.153 -15.049   0.688  0.00  0.00     0.068 C 
ATOM     21  N   UNL d   1      29.322 -13.692   1.558  0.00  0.00    -0.348 N 
ATOM     22  C   UNL d   1      28.023 -13.399   1.704  0.00  0.00     0.102 A 
ATOM     23  H   UNL d   1      30.019 -13.083   1.984  0.00  0.00     0.167 HD
ATOM     24  N   UNL d   1      27.036 -14.146   1.151  0.00  0.00    -0.218 NA
ATOM     25  C   UNL d   1      27.658 -12.188   2.512  0.00  0.00     0.091 C 
ENDBRANCH   1  17
TORSDOF 3
ENDMDL
MODEL 8
REMARK VINA RESULT:    -6.828      4.172      6.568
REMARK INTER + INTRA:          -8.578
REMARK INTER:                  -7.723
REMARK INTRA:                  -0.855
REMARK CONF_INDEPENDENT:        0.895
REMARK UNBOUND:                -0.855
REMARK  3 active torsions:
REMARK  status: ('A' for Active; 'I' for Inactive)
REMARK    1  A    between atoms: C_4  and  N_5 
REMARK    2  A    between atoms: C_8  and  C_9 
REMARK       I    between atoms: C_9  and  N_11 
REMARK    3  A    between atoms: N_11  and  C_12 
ROOT
ATOM      1  N   UNL d   1      26.137 -11.552  -3.950  0.00  0.00    -0.366 N 
ATOM      2  C   UNL d   1      26.429 -12.230  -2.688  0.00  0.00     0.125 C 
ATOM      3  C   UNL d   1      27.630 -13.151  -2.907  0.00  0.00     0.034 C 
ATOM      4  C   UNL d   1      27.372 -14.168  -4.025  0.00  0.00     0.081 C 
ATOM      5  C   UNL d   1      26.876 -13.430  -5.305  0.00  0.00     0.034 C 
ATOM      6  C   UNL d   1      25.697 -12.465  -5.011  0.00  0.00     0.125 C 
ENDROOT
BRANCH   4   7
ATOM      7  C   UNL d   1      26.344 -15.227  -3.658  0.00  0.00     0.222 C 
ATOM      8  O   UNL d   1      25.530 -15.581  -4.515  0.00  0.00    -0.273 OA
ATOM      9  N   UNL d   1      26.366 -15.746  -2.382  0.00  0.00    -0.356 N 
ATOM     10  H   UNL d   1      27.186 -15.601  -1.803  0.00  0.00     0.162 HD
BRANCH   9  11
ATOM     11  C   UNL d   1      25.392 -16.753  -1.917  0.00  0.00     0.084 C 
ATOM     12  C   UNL d   1      25.942 -17.583  -0.743  0.00  0.00     0.025 C 
ATOM     13  C   UNL d   1      24.958 -18.566  -0.146  0.00  0.00     0.002 C 
ATOM     14  C   UNL d   1      23.663 -17.857   0.233  0.00  0.00     0.000 C 
ATOM     15  C   UNL d   1      23.060 -17.156  -0.979  0.00  0.00     0.002 C 
ATOM     16  C   UNL d   1      24.028 -16.132  -1.581  0.00  0.00     0.025 C 
ENDBRANCH   9  11
ENDBRANCH   4   7
BRANCH   1  17
ATOM     17  C   UNL d   1      25.832 -10.215  -3.871  0.00  0.00     0.129 A 
ATOM     18  C   UNL d   1      25.198  -9.517  -4.886  0.00  0.00     0.075 A 
ATOM     19  C   UNL d   1      24.846  -8.175  -4.682  0.00  0.00     0.010 A 
ATOM     20  C   UNL d   1      24.131  -7.362  -5.715  0.00  0.00     0.068 C 
ATOM     21  N   UNL d   1      25.151  -7.589  -3.511  0.00  0.00    -0.348 N 
ATOM     22  C   UNL d   1      25.769  -8.293  -2.552  0.00  0.00     0.102 A 
ATOM     23  H   UNL d   1      24.915  -6.613  -3.337  0.00  0.00     0.167 HD
ATOM     24  N   UNL d   1      26.098  -9.599  -2.698  0.00  0.00    -0.218 NA
ATOM     25  C   UNL d   1      26.101  -7.594  -1.266  0.00  0.00     0.091 C 
ENDBRANCH   1  17
TORSDOF 3
ENDMDL
MODEL 9
REMARK VINA RESULT:    -6.776      3.446      6.218
REMARK INTER + INTRA:          -8.414
REMARK INTER:                  -7.671
REMARK INTRA:                  -0.743
REMARK CONF_INDEPENDENT:        0.895
REMARK UNBOUND:                -0.743
REMARK  3 active torsions:
REMARK  status: ('A' for Active; 'I' for Inactive)
REMARK    1  A    between atoms: C_4  and  N_5 
REMARK    2  A    between atoms: C_8  and  C_9 
REMARK       I    between atoms: C_9  and  N_11 
REMARK    3  A    between atoms: N_11  and  C_12 
ROOT
ATOM      1  N   UNL d   1      28.154 -15.095  -3.440  0.00  0.00    -0.366 N 
ATOM      2  C   UNL d   1      26.898 -14.542  -2.937  0.00  0.00     0.125 C 
ATOM      3  C   UNL d   1      27.138 -14.021  -1.519  0.00  0.00     0.034 C 
ATOM      4  C   UNL d   1      27.660 -15.122  -0.589  0.00  0.00     0.081 C 
ATOM      5  C   UNL d   1      28.889 -15.825  -1.240  0.00  0.00     0.034 C 
ATOM      6  C   UNL d   1      28.605 -16.277  -2.697  0.00  0.00     0.125 C 
ENDROOT
BRANCH   4   7
ATOM      7  C   UNL d   1      26.622 -16.183  -0.261  0.00  0.00     0.222 C 
ATOM      8  O   UNL d   1      27.007 -17.267   0.187  0.00  0.00    -0.273 OA
ATOM      9  N   UNL d   1      25.294 -15.890  -0.480  0.00  0.00    -0.356 N 
ATOM     10  H   UNL d   1      25.017 -14.924  -0.619  0.00  0.00     0.162 HD
BRANCH   9  11
ATOM     11  C   UNL d   1      24.213 -16.863  -0.225  0.00  0.00     0.084 C 
ATOM     12  C   UNL d   1      22.916 -16.484  -0.963  0.00  0.00     0.025 C 
ATOM     13  C   UNL d   1      21.795 -17.493  -0.833  0.00  0.00     0.002 C 
ATOM     14  C   UNL d   1      22.280 -18.881  -1.236  0.00  0.00     0.000 C 
ATOM     15  C   UNL d   1      23.482 -19.294  -0.395  0.00  0.00     0.002 C 
ATOM     16  C   UNL d   1      24.642 -18.304  -0.538  0.00  0.00     0.025 C 
ENDBRANCH   9  11
ENDBRANCH   4   7
BRANCH   1  17
ATOM     17  C   UNL d   1      28.476 -14.800  -4.742  0.00  0.00     0.129 A 
ATOM     18  C   UNL d   1      27.963 -13.708  -5.425  0.00  0.00     0.075 A 
ATOM     19  C   UNL d   1      28.418 -13.434  -6.723  0.00  0.00     0.010 A 
ATOM     20  C   UNL d   1      27.938 -12.258  -7.514  0.00  0.00     0.068 C 
ATOM     21  N   UNL d   1      29.327 -14.250  -7.284  0.00  0.00    -0.348 N 
ATOM     22  C   UNL d   1      29.798 -15.299  -6.597  0.00  0.00     0.102 A 
ATOM     23  H   UNL d   1      29.669 -14.081  -8.228  0.00  0.00     0.167 HD
ATOM     24  N   UNL d   1      29.409 -15.581  -5.329  0.00  0.00    -0.218 NA
ATOM     25  C   UNL d   1      30.803 -16.190  -7.268  0.00  0.00     0.091 C 
ENDBRANCH   1  17
TORSDOF 3
ENDMDL
