MODEL 1
REMARK VINA RESULT:    -7.035      0.000      0.000
REMARK INTER + INTRA:         -12.471
REMARK INTER:                  -9.720
REMARK INTRA:                  -2.751
REMARK CONF_INDEPENDENT:        2.685
REMARK UNBOUND:                -2.751
REMARK  9 active torsions:
REMARK  status: ('A' for Active; 'I' for Inactive)
REMARK    1  A    between atoms: C_3  and  C_2 
REMARK    2  A    between atoms: C_3  and  N_5 
REMARK       I    between atoms: N_5  and  C_6 
REMARK    3  A    between atoms: C_8  and  C_6 
REMARK    4  A    between atoms: C_8  and  N_10 
REMARK       I    between atoms: N_10  and  C_11 
REMARK       I    between atoms: C_11  and  N_13 
REMARK    5  A    between atoms: N_13  and  C_14 
REMARK    6  A    between atoms: C_14  and  C_15 
REMARK    7  A    between atoms: C_15  and  N_16 
REMARK    8  A    between atoms: N_16  and  C_17 
REMARK    9  A    between atoms: C_22  and  N_23 
ROOT
ATOM      1  N   UNL d   1      23.910 -17.456  -1.644  0.00  0.00    -0.330 N 
ATOM      2  C   UNL d   1      25.209 -17.052  -1.514  0.00  0.00     0.316 C 
ATOM      3  O   UNL d   1      25.981 -17.530  -0.691  0.00  0.00    -0.247 OA
ATOM      4  N   UNL d   1      25.631 -16.158  -2.450  0.00  0.00    -0.342 N 
ATOM      5  H   UNL d   1      23.272 -16.936  -2.228  0.00  0.00     0.165 HD
ATOM      6  H   UNL d   1      24.954 -15.593  -2.946  0.00  0.00     0.164 HD
ENDROOT
BRANCH   4   7
ATOM      7  C   UNL d   1      27.050 -15.780  -2.472  0.00  0.00     0.144 C 
BRANCH   7   8
ATOM      8  C   UNL d   1      27.362 -14.760  -1.393  0.00  0.00     0.139 C 
BRANCH   8   9
ATOM      9  N   UNL d   1      26.775 -13.443  -1.528  0.00  0.00    -0.386 N 
ATOM     10  H   UNL d   1      26.016 -13.225  -0.881  0.00  0.00     0.159 HD
BRANCH   9  11
ATOM     11  C   UNL d   1      26.690 -12.750  -2.747  0.00  0.00     0.061 A 
ATOM     12  C   UNL d   1      27.549 -11.610  -2.781  0.00  0.00     0.031 A 
ATOM     13  C   UNL d   1      27.571 -10.689  -3.838  0.00  0.00     0.002 A 
ATOM     14  C   UNL d   1      26.773 -10.902  -4.942  0.00  0.00     0.003 A 
ATOM     15  C   UNL d   1      25.961 -12.028  -4.979  0.00  0.00     0.038 A 
ATOM     16  C   UNL d   1      25.916 -12.975  -3.918  0.00  0.00     0.129 A 
BRANCH  16  17
ATOM     17  N   UNL d   1      24.998 -14.109  -4.230  0.00  0.00    -0.113 N 
ATOM     18  O   UNL d   1      23.863 -14.081  -3.744  0.00  0.00    -0.532 OA
ATOM     19  O   UNL d   1      25.331 -15.005  -5.016  0.00  0.00    -0.532 OA
ENDBRANCH  16  17
ENDBRANCH   9  11
ENDBRANCH   8   9
ENDBRANCH   7   8
ENDBRANCH   4   7
BRANCH   1  20
ATOM     20  C   UNL d   1      23.370 -18.533  -0.797  0.00  0.00     0.174 C 
ATOM     21  C   UNL d   1      23.956 -18.507   0.620  0.00  0.00     0.042 C 
BRANCH  20  22
ATOM     22  C   UNL d   1      21.824 -18.416  -0.666  0.00  0.00     0.240 C 
ATOM     23  N   UNL d   1      21.224 -19.303   0.201  0.00  0.00    -0.355 N 
ATOM     24  H   UNL d   1      21.809 -20.031   0.619  0.00  0.00     0.162 HD
ATOM     25  O   UNL d   1      21.175 -17.558  -1.265  0.00  0.00    -0.271 OA
BRANCH  23  26
ATOM     26  C   UNL d   1      19.787 -19.353   0.404  0.00  0.00     0.080 C 
ATOM     27  C   UNL d   1      19.076 -19.697  -0.913  0.00  0.00     0.032 C 
BRANCH  26  28
ATOM     28  C   UNL d   1      19.455 -20.338   1.549  0.00  0.00     0.020 C 
ATOM     29  C   UNL d   1      20.277 -20.075   2.797  0.00  0.00     0.007 C 
ENDBRANCH  26  28
ENDBRANCH  23  26
ENDBRANCH  20  22
ENDBRANCH   1  20
TORSDOF 9
ENDMDL
MODEL 2
REMARK VINA RESULT:    -5.352      2.325      3.924
REMARK INTER + INTRA:         -12.326
REMARK INTER:                  -8.036
REMARK INTRA:                  -4.289
REMARK CONF_INDEPENDENT:        2.685
REMARK UNBOUND:                -4.289
REMARK  9 active torsions:
REMARK  status: ('A' for Active; 'I' for Inactive)
REMARK    1  A    between atoms: C_3  and  C_2 
REMARK    2  A    between atoms: C_3  and  N_5 
REMARK       I    between atoms: N_5  and  C_6 
REMARK    3  A    between atoms: C_8  and  C_6 
REMARK    4  A    between atoms: C_8  and  N_10 
REMARK       I    between atoms: N_10  and  C_11 
REMARK       I    between atoms: C_11  and  N_13 
REMARK    5  A    between atoms: N_13  and  C_14 
REMARK    6  A    between atoms: C_14  and  C_15 
REMARK    7  A    between atoms: C_15  and  N_16 
REMARK    8  A    between atoms: N_16  and  C_17 
REMARK    9  A    between atoms: C_22  and  N_23 
ROOT
ATOM      1  N   UNL d   1      26.905 -15.961  -2.427  0.00  0.00    -0.330 N 
ATOM      2  C   UNL d   1      26.390 -14.747  -2.069  0.00  0.00     0.316 C 
ATOM      3  O   UNL d   1      26.219 -14.408  -0.904  0.00  0.00    -0.247 OA
ATOM      4  N   UNL d   1      26.190 -13.879  -3.099  0.00  0.00    -0.342 N 
ATOM      5  H   UNL d   1      26.891 -16.255  -3.392  0.00  0.00     0.165 HD
ATOM      6  H   UNL d   1      26.091 -14.233  -4.042  0.00  0.00     0.164 HD
ENDROOT
BRANCH   4   7
ATOM      7  C   UNL d   1      25.774 -12.505  -2.790  0.00  0.00     0.144 C 
BRANCH   7   8
ATOM      8  C   UNL d   1      25.735 -11.650  -4.042  0.00  0.00     0.139 C 
BRANCH   8   9
ATOM      9  N   UNL d   1      25.818 -12.329  -5.319  0.00  0.00    -0.386 N 
ATOM     10  H   UNL d   1      25.055 -12.973  -5.532  0.00  0.00     0.159 HD
BRANCH   9  11
ATOM     11  C   UNL d   1      27.030 -12.669  -5.941  0.00  0.00     0.061 A 
ATOM     12  C   UNL d   1      27.630 -11.554  -6.601  0.00  0.00     0.031 A 
ATOM     13  C   UNL d   1      28.786 -11.650  -7.388  0.00  0.00     0.002 A 
ATOM     14  C   UNL d   1      29.431 -12.864  -7.503  0.00  0.00     0.003 A 
ATOM     15  C   UNL d   1      28.915 -13.967  -6.835  0.00  0.00     0.038 A 
ATOM     16  C   UNL d   1      27.741 -13.897  -6.034  0.00  0.00     0.129 A 
BRANCH  16  17
ATOM     17  N   UNL d   1      27.431 -15.208  -5.395  0.00  0.00    -0.113 N 
ATOM     18  O   UNL d   1      26.252 -15.575  -5.376  0.00  0.00    -0.532 OA
ATOM     19  O   UNL d   1      28.332 -15.944  -4.971  0.00  0.00    -0.532 OA
ENDBRANCH  16  17
ENDBRANCH   9  11
ENDBRANCH   8   9
ENDBRANCH   7   8
ENDBRANCH   4   7
BRANCH   1  20
ATOM     20  C   UNL d   1      27.316 -16.935  -1.400  0.00  0.00     0.174 C 
ATOM     21  C   UNL d   1      28.190 -16.298  -0.313  0.00  0.00     0.042 C 
BRANCH  20  22
ATOM     22  C   UNL d   1      26.075 -17.558  -0.697  0.00  0.00     0.240 C 
ATOM     23  N   UNL d   1      24.872 -16.930  -0.931  0.00  0.00    -0.355 N 
ATOM     24  H   UNL d   1      24.885 -16.055  -1.461  0.00  0.00     0.162 HD
ATOM     25  O   UNL d   1      26.151 -18.575  -0.007  0.00  0.00    -0.271 OA
BRANCH  23  26
ATOM     26  C   UNL d   1      23.629 -17.360  -0.316  0.00  0.00     0.080 C 
ATOM     27  C   UNL d   1      22.539 -16.298  -0.520  0.00  0.00     0.032 C 
BRANCH  26  28
ATOM     28  C   UNL d   1      23.230 -18.752  -0.859  0.00  0.00     0.020 C 
ATOM     29  C   UNL d   1      21.727 -18.951  -0.897  0.00  0.00     0.007 C 
ENDBRANCH  26  28
ENDBRANCH  23  26
ENDBRANCH  20  22
ENDBRANCH   1  20
TORSDOF 9
ENDMDL
MODEL 3
REMARK VINA RESULT:    -5.224      2.457      4.586
REMARK INTER + INTRA:         -12.511
REMARK INTER:                  -7.909
REMARK INTRA:                  -4.602
REMARK CONF_INDEPENDENT:        2.685
REMARK UNBOUND:                -4.602
REMARK  9 active torsions:
REMARK  status: ('A' for Active; 'I' for Inactive)
REMARK    1  A    between atoms: C_3  and  C_2 
REMARK    2  A    between atoms: C_3  and  N_5 
REMARK       I    between atoms: N_5  and  C_6 
REMARK    3  A    between atoms: C_8  and  C_6 
REMARK    4  A    between atoms: C_8  and  N_10 
REMARK       I    between atoms: N_10  and  C_11 
REMARK       I    between atoms: C_11  and  N_13 
REMARK    5  A    between atoms: N_13  and  C_14 
REMARK    6  A    between atoms: C_14  and  C_15 
REMARK    7  A    between atoms: C_15  and  N_16 
REMARK    8  A    between atoms: N_16  and  C_17 
REMARK    9  A    between atoms: C_22  and  N_23 
ROOT
ATOM      1  N   UNL d   1      26.446 -14.074  -1.576  0.00  0.00    -0.330 N 
ATOM      2  C   UNL d   1      26.613 -12.732  -1.768  0.00  0.00     0.316 C 
ATOM      3  O   UNL d   1      27.447 -12.066  -1.166  0.00  0.00    -0.247 OA
ATOM      4  N   UNL d   1      25.865 -12.196  -2.773  0.00  0.00    -0.342 N 
ATOM      5  H   UNL d   1      25.654 -14.551  -1.980  0.00  0.00     0.165 HD
ATOM      6  H   UNL d   1      25.026 -12.669  -3.082  0.00  0.00     0.164 HD
ENDROOT
BRANCH   4   7
ATOM      7  C   UNL d   1      26.087 -10.792  -3.142  0.00  0.00     0.144 C 
BRANCH   7   8
ATOM      8  C   UNL d   1      26.038 -10.607  -4.647  0.00  0.00     0.139 C 
BRANCH   8   9
ATOM      9  N   UNL d   1      25.765 -11.776  -5.456  0.00  0.00    -0.386 N 
ATOM     10  H   UNL d   1      24.779 -11.994  -5.606  0.00  0.00     0.159 HD
BRANCH   9  11
ATOM     11  C   UNL d   1      26.603 -12.902  -5.504  0.00  0.00     0.061 A 
ATOM     12  C   UNL d   1      27.805 -12.651  -6.233  0.00  0.00     0.031 A 
ATOM     13  C   UNL d   1      28.756 -13.639  -6.521  0.00  0.00     0.002 A 
ATOM     14  C   UNL d   1      28.575 -14.918  -6.037  0.00  0.00     0.003 A 
ATOM     15  C   UNL d   1      27.448 -15.198  -5.276  0.00  0.00     0.038 A 
ATOM     16  C   UNL d   1      26.465 -14.214  -4.974  0.00  0.00     0.129 A 
BRANCH  16  17
ATOM     17  N   UNL d   1      25.384 -14.765  -4.106  0.00  0.00    -0.113 N 
ATOM     18  O   UNL d   1      25.531 -15.906  -3.659  0.00  0.00    -0.532 OA
ATOM     19  O   UNL d   1      24.412 -14.073  -3.776  0.00  0.00    -0.532 OA
ENDBRANCH  16  17
ENDBRANCH   9  11
ENDBRANCH   8   9
ENDBRANCH   7   8
ENDBRANCH   4   7
BRANCH   1  20
ATOM     20  C   UNL d   1      27.304 -14.809  -0.631  0.00  0.00     0.174 C 
ATOM     21  C   UNL d   1      27.385 -14.119   0.736  0.00  0.00     0.042 C 
BRANCH  20  22
ATOM     22  C   UNL d   1      26.764 -16.250  -0.395  0.00  0.00     0.240 C 
ATOM     23  N   UNL d   1      25.584 -16.563  -1.034  0.00  0.00    -0.355 N 
ATOM     24  H   UNL d   1      25.097 -15.813  -1.532  0.00  0.00     0.162 HD
ATOM     25  O   UNL d   1      27.372 -17.078   0.284  0.00  0.00    -0.271 OA
BRANCH  23  26
ATOM     26  C   UNL d   1      24.926 -17.849  -0.883  0.00  0.00     0.080 C 
ATOM     27  C   UNL d   1      24.775 -18.198   0.604  0.00  0.00     0.032 C 
BRANCH  26  28
ATOM     28  C   UNL d   1      23.581 -17.840  -1.645  0.00  0.00     0.020 C 
ATOM     29  C   UNL d   1      22.408 -18.208  -0.755  0.00  0.00     0.007 C 
ENDBRANCH  26  28
ENDBRANCH  23  26
ENDBRANCH  20  22
ENDBRANCH   1  20
TORSDOF 9
ENDMDL
MODEL 4
REMARK VINA RESULT:    -5.125      2.302      3.683
REMARK INTER + INTRA:         -12.565
REMARK INTER:                  -7.810
REMARK INTRA:                  -4.756
REMARK CONF_INDEPENDENT:        2.685
REMARK UNBOUND:                -4.756
REMARK  9 active torsions:
REMARK  status: ('A' for Active; 'I' for Inactive)
REMARK    1  A    between atoms: C_3  and  C_2 
REMARK    2  A    between atoms: C_3  and  N_5 
REMARK       I    between atoms: N_5  and  C_6 
REMARK    3  A    between atoms: C_8  and  C_6 
REMARK    4  A    between atoms: C_8  and  N_10 
REMARK       I    between atoms: N_10  and  C_11 
REMARK       I    between atoms: C_11  and  N_13 
REMARK    5  A    between atoms: N_13  and  C_14 
REMARK    6  A    between atoms: C_14  and  C_15 
REMARK    7  A    between atoms: C_15  and  N_16 
REMARK    8  A    between atoms: N_16  and  C_17 
REMARK    9  A    between atoms: C_22  and  N_23 
ROOT
ATOM      1  N   UNL d   1      27.254 -16.359  -2.251  0.00  0.00    -0.330 N 
ATOM      2  C   UNL d   1      28.340 -15.949  -2.972  0.00  0.00     0.316 C 
ATOM      3  O   UNL d   1      29.434 -15.722  -2.468  0.00  0.00    -0.247 OA
ATOM      4  N   UNL d   1      28.160 -15.925  -4.322  0.00  0.00    -0.342 N 
ATOM      5  H   UNL d   1      26.341 -16.390  -2.680  0.00  0.00     0.165 HD
ATOM      6  H   UNL d   1      27.225 -15.865  -4.703  0.00  0.00     0.164 HD
ENDROOT
BRANCH   4   7
ATOM      7  C   UNL d   1      29.316 -15.635  -5.180  0.00  0.00     0.144 C 
BRANCH   7   8
ATOM      8  C   UNL d   1      29.073 -14.400  -6.027  0.00  0.00     0.139 C 
BRANCH   8   9
ATOM      9  N   UNL d   1      27.699 -13.998  -6.245  0.00  0.00    -0.386 N 
ATOM     10  H   UNL d   1      27.415 -13.888  -7.219  0.00  0.00     0.159 HD
BRANCH   9  11
ATOM     11  C   UNL d   1      26.975 -13.189  -5.355  0.00  0.00     0.061 A 
ATOM     12  C   UNL d   1      27.265 -11.801  -5.528  0.00  0.00     0.031 A 
ATOM     13  C   UNL d   1      26.759 -10.795  -4.693  0.00  0.00     0.002 A 
ATOM     14  C   UNL d   1      25.887 -11.128  -3.678  0.00  0.00     0.003 A 
ATOM     15  C   UNL d   1      25.532 -12.459  -3.504  0.00  0.00     0.038 A 
ATOM     16  C   UNL d   1      26.035 -13.500  -4.334  0.00  0.00     0.129 A 
BRANCH  16  17
ATOM     17  N   UNL d   1      25.462 -14.826  -3.962  0.00  0.00    -0.113 N 
ATOM     18  O   UNL d   1      24.790 -14.893  -2.928  0.00  0.00    -0.532 OA
ATOM     19  O   UNL d   1      25.584 -15.809  -4.705  0.00  0.00    -0.532 OA
ENDBRANCH  16  17
ENDBRANCH   9  11
ENDBRANCH   8   9
ENDBRANCH   7   8
ENDBRANCH   4   7
BRANCH   1  20
ATOM     20  C   UNL d   1      27.357 -16.580  -0.798  0.00  0.00     0.174 C 
ATOM     21  C   UNL d   1      27.547 -15.270  -0.024  0.00  0.00     0.042 C 
BRANCH  20  22
ATOM     22  C   UNL d   1      26.074 -17.267  -0.248  0.00  0.00     0.240 C 
ATOM     23  N   UNL d   1      24.890 -16.897  -0.845  0.00  0.00    -0.355 N 
ATOM     24  H   UNL d   1      24.917 -16.137  -1.530  0.00  0.00     0.162 HD
ATOM     25  O   UNL d   1      26.113 -18.122   0.638  0.00  0.00    -0.271 OA
BRANCH  23  26
ATOM     26  C   UNL d   1      23.600 -17.412  -0.419  0.00  0.00     0.080 C 
ATOM     27  C   UNL d   1      22.530 -16.316  -0.520  0.00  0.00     0.032 C 
BRANCH  26  28
ATOM     28  C   UNL d   1      23.250 -18.681  -1.231  0.00  0.00     0.020 C 
ATOM     29  C   UNL d   1      21.757 -18.950  -1.270  0.00  0.00     0.007 C 
ENDBRANCH  26  28
ENDBRANCH  23  26
ENDBRANCH  20  22
ENDBRANCH   1  20
TORSDOF 9
ENDMDL
MODEL 5
REMARK VINA RESULT:    -4.498      3.052      7.388
REMARK INTER + INTRA:         -12.279
REMARK INTER:                  -7.182
REMARK INTRA:                  -5.097
REMARK CONF_INDEPENDENT:        2.685
REMARK UNBOUND:                -5.097
REMARK  9 active torsions:
REMARK  status: ('A' for Active; 'I' for Inactive)
REMARK    1  A    between atoms: C_3  and  C_2 
REMARK    2  A    between atoms: C_3  and  N_5 
REMARK       I    between atoms: N_5  and  C_6 
REMARK    3  A    between atoms: C_8  and  C_6 
REMARK    4  A    between atoms: C_8  and  N_10 
REMARK       I    between atoms: N_10  and  C_11 
REMARK       I    between atoms: C_11  and  N_13 
REMARK    5  A    between atoms: N_13  and  C_14 
REMARK    6  A    between atoms: C_14  and  C_15 
REMARK    7  A    between atoms: C_15  and  N_16 
REMARK    8  A    between atoms: N_16  and  C_17 
REMARK    9  A    between atoms: C_22  and  N_23 
ROOT
ATOM      1  N   UNL d   1      26.443 -13.127  -3.790  0.00  0.00    -0.330 N 
ATOM      2  C   UNL d   1      27.103 -13.220  -2.597  0.00  0.00     0.316 C 
ATOM      3  O   UNL d   1      28.318 -13.356  -2.511  0.00  0.00    -0.247 OA
ATOM      4  N   UNL d   1      26.329 -13.027  -1.493  0.00  0.00    -0.342 N 
ATOM      5  H   UNL d   1      25.435 -13.166  -3.818  0.00  0.00     0.165 HD
ATOM      6  H   UNL d   1      25.329 -13.167  -1.551  0.00  0.00     0.164 HD
ENDROOT
BRANCH   4   7
ATOM      7  C   UNL d   1      26.981 -12.968  -0.179  0.00  0.00     0.144 C 
BRANCH   7   8
ATOM      8  C   UNL d   1      27.497 -14.332   0.239  0.00  0.00     0.139 C 
BRANCH   8   9
ATOM      9  N   UNL d   1      27.355 -15.419  -0.707  0.00  0.00    -0.386 N 
ATOM     10  H   UNL d   1      27.853 -15.308  -1.592  0.00  0.00     0.159 HD
BRANCH   9  11
ATOM     11  C   UNL d   1      26.206 -16.219  -0.807  0.00  0.00     0.061 A 
ATOM     12  C   UNL d   1      26.143 -17.206   0.223  0.00  0.00     0.031 A 
ATOM     13  C   UNL d   1      25.156 -18.199   0.285  0.00  0.00     0.002 A 
ATOM     14  C   UNL d   1      24.146 -18.213  -0.655  0.00  0.00     0.003 A 
ATOM     15  C   UNL d   1      24.133 -17.240  -1.645  0.00  0.00     0.038 A 
ATOM     16  C   UNL d   1      25.127 -16.224  -1.733  0.00  0.00     0.129 A 
BRANCH  16  17
ATOM     17  N   UNL d   1      24.854 -15.283  -2.858  0.00  0.00    -0.113 N 
ATOM     18  O   UNL d   1      25.436 -15.482  -3.928  0.00  0.00    -0.532 OA
ATOM     19  O   UNL d   1      24.010 -14.383  -2.751  0.00  0.00    -0.532 OA
ENDBRANCH  16  17
ENDBRANCH   9  11
ENDBRANCH   8   9
ENDBRANCH   7   8
ENDBRANCH   4   7
BRANCH   1  20
ATOM     20  C   UNL d   1      27.184 -13.159  -5.063  0.00  0.00     0.174 C 
ATOM     21  C   UNL d   1      28.399 -12.224  -5.050  0.00  0.00     0.042 C 
BRANCH  20  22
ATOM     22  C   UNL d   1      27.701 -14.594  -5.369  0.00  0.00     0.240 C 
ATOM     23  N   UNL d   1      28.829 -14.987  -4.682  0.00  0.00    -0.355 N 
ATOM     24  H   UNL d   1      29.301 -14.290  -4.100  0.00  0.00     0.162 HD
ATOM     25  O   UNL d   1      27.119 -15.353  -6.145  0.00  0.00    -0.271 OA
BRANCH  23  26
ATOM     26  C   UNL d   1      29.463 -16.278  -4.885  0.00  0.00     0.080 C 
ATOM     27  C   UNL d   1      30.212 -16.296  -6.226  0.00  0.00     0.032 C 
BRANCH  26  28
ATOM     28  C   UNL d   1      30.369 -16.611  -3.678  0.00  0.00     0.020 C 
ATOM     29  C   UNL d   1      29.579 -16.808  -2.397  0.00  0.00     0.007 C 
ENDBRANCH  26  28
ENDBRANCH  23  26
ENDBRANCH  20  22
ENDBRANCH   1  20
TORSDOF 9
ENDMDL
MODEL 6
REMARK VINA RESULT:    -4.244      3.847      6.472
REMARK INTER + INTRA:         -11.803
REMARK INTER:                  -6.928
REMARK INTRA:                  -4.875
REMARK CONF_INDEPENDENT:        2.685
REMARK UNBOUND:                -4.875
REMARK  9 active torsions:
REMARK  status: ('A' for Active; 'I' for Inactive)
REMARK    1  A    between atoms: C_3  and  C_2 
REMARK    2  A    between atoms: C_3  and  N_5 
REMARK       I    between atoms: N_5  and  C_6 
REMARK    3  A    between atoms: C_8  and  C_6 
REMARK    4  A    between atoms: C_8  and  N_10 
REMARK       I    between atoms: N_10  and  C_11 
REMARK       I    between atoms: C_11  and  N_13 
REMARK    5  A    between atoms: N_13  and  C_14 
REMARK    6  A    between atoms: C_14  and  C_15 
REMARK    7  A    between atoms: C_15  and  N_16 
REMARK    8  A    between atoms: N_16  and  C_17 
REMARK    9  A    between atoms: C_22  and  N_23 
ROOT
ATOM      1  N   UNL d   1      26.678 -13.451  -1.282  0.00  0.00    -0.330 N 
ATOM      2  C   UNL d   1      27.982 -13.860  -1.287  0.00  0.00     0.316 C 
ATOM      3  O   UNL d   1      28.474 -14.523  -2.193  0.00  0.00    -0.247 OA
ATOM      4  N   UNL d   1      28.743 -13.374  -0.267  0.00  0.00    -0.342 N 
ATOM      5  H   UNL d   1      26.278 -13.038  -0.453  0.00  0.00     0.165 HD
ATOM      6  H   UNL d   1      28.297 -13.054   0.583  0.00  0.00     0.164 HD
ENDROOT
BRANCH   4   7
ATOM      7  C   UNL d   1      30.186 -13.646  -0.275  0.00  0.00     0.144 C 
BRANCH   7   8
ATOM      8  C   UNL d   1      30.738 -13.711   1.137  0.00  0.00     0.139 C 
BRANCH   8   9
ATOM      9  N   UNL d   1      30.140 -14.666   2.046  0.00  0.00    -0.386 N 
ATOM     10  H   UNL d   1      29.983 -15.602   1.670  0.00  0.00     0.159 HD
BRANCH   9  11
ATOM     11  C   UNL d   1      29.240 -14.313   3.064  0.00  0.00     0.061 A 
ATOM     12  C   UNL d   1      29.826 -14.410   4.362  0.00  0.00     0.031 A 
ATOM     13  C   UNL d   1      29.110 -14.219   5.552  0.00  0.00     0.002 A 
ATOM     14  C   UNL d   1      27.779 -13.860   5.494  0.00  0.00     0.003 A 
ATOM     15  C   UNL d   1      27.178 -13.700   4.252  0.00  0.00     0.038 A 
ATOM     16  C   UNL d   1      27.882 -13.893   3.030  0.00  0.00     0.129 A 
BRANCH  16  17
ATOM     17  N   UNL d   1      27.017 -13.614   1.847  0.00  0.00    -0.113 N 
ATOM     18  O   UNL d   1      26.739 -12.436   1.603  0.00  0.00    -0.532 OA
ATOM     19  O   UNL d   1      26.657 -14.522   1.087  0.00  0.00    -0.532 OA
ENDBRANCH  16  17
ENDBRANCH   9  11
ENDBRANCH   8   9
ENDBRANCH   7   8
ENDBRANCH   4   7
BRANCH   1  20
ATOM     20  C   UNL d   1      25.786 -13.774  -2.409  0.00  0.00     0.174 C 
ATOM     21  C   UNL d   1      26.385 -13.362  -3.759  0.00  0.00     0.042 C 
BRANCH  20  22
ATOM     22  C   UNL d   1      25.499 -15.302  -2.471  0.00  0.00     0.240 C 
ATOM     23  N   UNL d   1      25.398 -15.945  -1.257  0.00  0.00    -0.355 N 
ATOM     24  H   UNL d   1      25.611 -15.409  -0.413  0.00  0.00     0.162 HD
ATOM     25  O   UNL d   1      25.329 -15.898  -3.536  0.00  0.00    -0.271 OA
BRANCH  23  26
ATOM     26  C   UNL d   1      25.177 -17.376  -1.143  0.00  0.00     0.080 C 
ATOM     27  C   UNL d   1      25.764 -17.901   0.175  0.00  0.00     0.032 C 
BRANCH  26  28
ATOM     28  C   UNL d   1      23.670 -17.687  -1.304  0.00  0.00     0.020 C 
ATOM     29  C   UNL d   1      22.794 -16.728  -0.520  0.00  0.00     0.007 C 
ENDBRANCH  26  28
ENDBRANCH  23  26
ENDBRANCH  20  22
ENDBRANCH   1  20
TORSDOF 9
ENDMDL
