MODEL 1
REMARK VINA RESULT:   -10.425      0.000      0.000
REMARK INTER + INTRA:         -14.026
REMARK INTER:                 -12.811
REMARK INTRA:                  -1.215
REMARK CONF_INDEPENDENT:        2.386
REMARK UNBOUND:                -1.215
REMARK  8 active torsions:
REMARK  status: ('A' for Active; 'I' for Inactive)
REMARK       I    between atoms: C_2  and  N_3 
REMARK    1  A    between atoms: C_2  and  C_17 
REMARK    2  A    between atoms: N_3  and  N_4 
REMARK    3  A    between atoms: C_5  and  C_6 
REMARK    4  A    between atoms: C_7  and  O_8 
REMARK    5  A    between atoms: C_20  and  C_21 
REMARK    6  A    between atoms: C_21  and  N_22 
REMARK    7  A    between atoms: N_25  and  C_26 
REMARK    8  A    between atoms: C_26  and  C_27 
ROOT
ATOM      1  C   UNL d   1      28.253 -13.734   3.230  0.00  0.00     0.033 C 
ATOM      2  C   UNL d   1      29.115 -14.234   2.306  0.00  0.00     0.017 C 
ATOM      3  C   UNL d   1      28.649 -14.470   0.950  0.00  0.00     0.010 C 
ATOM      4  C   UNL d   1      27.379 -14.062   0.492  0.00  0.00    -0.030 C 
ATOM      5  C   UNL d   1      26.949 -13.044   1.279  0.00  0.00     0.010 C 
ATOM      6  C   UNL d   1      27.097 -13.300   2.637  0.00  0.00     0.017 C 
ENDROOT
BRANCH   1   7
ATOM      7  C   UNL d   1      28.587 -13.299   4.654  0.00  0.00     0.271 C 
ATOM      8  O   UNL d   1      28.212 -12.291   5.164  0.00  0.00    -0.266 OA
ATOM      9  N   UNL d   1      29.444 -14.177   5.310  0.00  0.00    -0.243 N 
ATOM     10  H   UNL d   1      29.705 -15.064   4.914  0.00  0.00     0.192 HD
BRANCH   9  11
ATOM     11  N   UNL d   1      29.794 -13.811   6.571  0.00  0.00    -0.183 NA
ATOM     12  C   UNL d   1      28.860 -13.794   7.465  0.00  0.00     0.153 C 
BRANCH  12  13
ATOM     13  C   UNL d   1      29.171 -13.341   8.836  0.00  0.00     0.027 A 
ATOM     14  C   UNL d   1      29.138 -14.265   9.893  0.00  0.00     0.078 A 
ATOM     15  C   UNL d   1      29.533 -13.885  11.169  0.00  0.00     0.038 A 
ATOM     16  C   UNL d   1      29.968 -12.581  11.401  0.00  0.00     0.015 A 
ATOM     17  C   UNL d   1      29.985 -11.633  10.366  0.00  0.00    -0.025 A 
ATOM     18  C   UNL d   1      30.412 -10.320  10.616  0.00  0.00     0.012 A 
ATOM     19  C   UNL d   1      29.567 -12.002   9.062  0.00  0.00    -0.011 A 
ATOM     20  C   UNL d   1      30.406  -9.362   9.604  0.00  0.00     0.001 A 
ATOM     21  C   UNL d   1      29.964  -9.699   8.332  0.00  0.00     0.001 A 
ATOM     22  C   UNL d   1      29.549 -11.002   8.063  0.00  0.00     0.013 A 
BRANCH  14  23
ATOM     23  O   UNL d   1      28.768 -15.574   9.736  0.00  0.00    -0.360 OA
ATOM     24  H   UNL d   1      29.544 -16.082   9.408  0.00  0.00     0.217 HD
ENDBRANCH  14  23
ENDBRANCH  12  13
ENDBRANCH   9  11
ENDBRANCH   1   7
BRANCH   4  25
ATOM     25  C   UNL d   1      26.529 -14.589  -0.739  0.00  0.00     0.311 C 
BRANCH  25  26
ATOM     26  N   UNL d   1      26.707 -16.020  -1.429  0.00  0.00     0.095 NA
ATOM     27  C   UNL d   1      25.750 -16.698  -2.382  0.00  0.00     0.300 C 
ATOM     28  C   UNL d   1      24.286 -17.011  -1.917  0.00  0.00     0.265 C 
ATOM     29  N   UNL d   1      24.274 -17.780  -0.531  0.00  0.00    -0.064 N 
ATOM     30  C   UNL d   1      25.578 -17.429   0.201  0.00  0.00     0.265 C 
ATOM     31  H   UNL d   1      24.319 -18.794  -0.651  0.00  0.00     0.280 HD
ATOM     32  C   UNL d   1      26.947 -17.060  -0.408  0.00  0.00     0.300 C 
BRANCH  29  33
ATOM     33  C   UNL d   1      22.776 -17.578   0.230  0.00  0.00     0.273 C 
BRANCH  33  34
ATOM     34  C   UNL d   1      21.656 -18.602  -0.021  0.00  0.00    -0.033 C 
ATOM     35  C   UNL d   1      21.054 -18.900  -1.230  0.00  0.00     0.009 C 
ATOM     36  C   UNL d   1      19.861 -19.699  -1.269  0.00  0.00     0.001 C 
ATOM     37  C   UNL d   1      19.399 -20.409  -0.159  0.00  0.00     0.000 C 
ATOM     38  C   UNL d   1      20.154 -20.351   0.958  0.00  0.00     0.001 C 
ATOM     39  C   UNL d   1      20.993 -19.259   1.001  0.00  0.00     0.009 C 
ENDBRANCH  33  34
ENDBRANCH  29  33
ENDBRANCH  25  26
ENDBRANCH   4  25
TORSDOF 8
ENDMDL
MODEL 2
REMARK VINA RESULT:   -10.420      6.153     12.054
REMARK INTER + INTRA:         -14.972
REMARK INTER:                 -12.806
REMARK INTRA:                  -2.166
REMARK CONF_INDEPENDENT:        2.386
REMARK UNBOUND:                -2.166
REMARK  8 active torsions:
REMARK  status: ('A' for Active; 'I' for Inactive)
REMARK       I    between atoms: C_2  and  N_3 
REMARK    1  A    between atoms: C_2  and  C_17 
REMARK    2  A    between atoms: N_3  and  N_4 
REMARK    3  A    between atoms: C_5  and  C_6 
REMARK    4  A    between atoms: C_7  and  O_8 
REMARK    5  A    between atoms: C_20  and  C_21 
REMARK    6  A    between atoms: C_21  and  N_22 
REMARK    7  A    between atoms: N_25  and  C_26 
REMARK    8  A    between atoms: C_26  and  C_27 
ROOT
ATOM      1  C   UNL d   1      27.665 -14.456  -3.671  0.00  0.00     0.033 C 
ATOM      2  C   UNL d   1      26.392 -14.187  -3.279  0.00  0.00     0.017 C 
ATOM      3  C   UNL d   1      26.165 -13.374  -2.097  0.00  0.00     0.010 C 
ATOM      4  C   UNL d   1      27.204 -12.712  -1.410  0.00  0.00    -0.030 C 
ATOM      5  C   UNL d   1      28.239 -12.536  -2.268  0.00  0.00     0.010 C 
ATOM      6  C   UNL d   1      28.562 -13.684  -2.982  0.00  0.00     0.017 C 
ENDROOT
BRANCH   1   7
ATOM      7  C   UNL d   1      28.100 -15.171  -4.947  0.00  0.00     0.271 C 
ATOM      8  O   UNL d   1      27.475 -15.199  -5.959  0.00  0.00    -0.266 OA
ATOM      9  N   UNL d   1      29.299 -15.862  -4.807  0.00  0.00    -0.243 N 
ATOM     10  H   UNL d   1      29.868 -15.784  -3.981  0.00  0.00     0.192 HD
BRANCH   9  11
ATOM     11  N   UNL d   1      29.709 -16.542  -5.911  0.00  0.00    -0.183 NA
ATOM     12  C   UNL d   1      30.645 -17.419  -5.754  0.00  0.00     0.153 C 
BRANCH  12  13
ATOM     13  C   UNL d   1      31.174 -18.139  -6.932  0.00  0.00     0.027 A 
ATOM     14  C   UNL d   1      30.680 -19.417  -7.238  0.00  0.00     0.078 A 
ATOM     15  C   UNL d   1      31.083 -20.064  -8.400  0.00  0.00     0.038 A 
ATOM     16  C   UNL d   1      31.980 -19.439  -9.266  0.00  0.00     0.015 A 
ATOM     17  C   UNL d   1      32.507 -18.174  -8.966  0.00  0.00    -0.025 A 
ATOM     18  C   UNL d   1      33.419 -17.562  -9.840  0.00  0.00     0.012 A 
ATOM     19  C   UNL d   1      32.118 -17.509  -7.775  0.00  0.00    -0.011 A 
ATOM     20  C   UNL d   1      33.971 -16.318  -9.541  0.00  0.00     0.001 A 
ATOM     21  C   UNL d   1      33.629 -15.674  -8.360  0.00  0.00     0.001 A 
ATOM     22  C   UNL d   1      32.714 -16.260  -7.488  0.00  0.00     0.013 A 
BRANCH  14  23
ATOM     23  O   UNL d   1      29.763 -20.075  -6.463  0.00  0.00    -0.360 OA
ATOM     24  H   UNL d   1      28.905 -20.097  -6.943  0.00  0.00     0.217 HD
ENDBRANCH  14  23
ENDBRANCH  12  13
ENDBRANCH   9  11
ENDBRANCH   1   7
BRANCH   4  25
ATOM     25  C   UNL d   1      27.251 -12.178   0.083  0.00  0.00     0.311 C 
BRANCH  25  26
ATOM     26  N   UNL d   1      28.285 -12.669   1.199  0.00  0.00     0.095 NA
ATOM     27  C   UNL d   1      29.580 -13.417   0.977  0.00  0.00     0.300 C 
ATOM     28  C   UNL d   1      29.554 -14.814   0.265  0.00  0.00     0.265 C 
ATOM     29  N   UNL d   1      28.500 -15.785   0.941  0.00  0.00    -0.064 N 
ATOM     30  C   UNL d   1      27.435 -14.909   1.618  0.00  0.00     0.265 C 
ATOM     31  H   UNL d   1      28.906 -16.324   1.709  0.00  0.00     0.280 HD
ATOM     32  C   UNL d   1      27.597 -13.495   2.213  0.00  0.00     0.300 C 
BRANCH  29  33
ATOM     33  C   UNL d   1      28.052 -17.001  -0.148  0.00  0.00     0.273 C 
BRANCH  33  34
ATOM     34  C   UNL d   1      26.564 -17.217  -0.470  0.00  0.00    -0.033 C 
ATOM     35  C   UNL d   1      25.866 -16.726  -1.559  0.00  0.00     0.009 C 
ATOM     36  C   UNL d   1      24.433 -16.807  -1.599  0.00  0.00     0.001 C 
ATOM     37  C   UNL d   1      23.701 -17.584  -0.698  0.00  0.00     0.000 C 
ATOM     38  C   UNL d   1      24.408 -18.304   0.198  0.00  0.00     0.001 C 
ATOM     39  C   UNL d   1      25.683 -17.827   0.407  0.00  0.00     0.009 C 
ENDBRANCH  33  34
ENDBRANCH  29  33
ENDBRANCH  25  26
ENDBRANCH   4  25
TORSDOF 8
ENDMDL
MODEL 3
REMARK VINA RESULT:   -10.230      1.496      2.054
REMARK INTER + INTRA:         -14.303
REMARK INTER:                 -12.616
REMARK INTRA:                  -1.687
REMARK CONF_INDEPENDENT:        2.386
REMARK UNBOUND:                -1.687
REMARK  8 active torsions:
REMARK  status: ('A' for Active; 'I' for Inactive)
REMARK       I    between atoms: C_2  and  N_3 
REMARK    1  A    between atoms: C_2  and  C_17 
REMARK    2  A    between atoms: N_3  and  N_4 
REMARK    3  A    between atoms: C_5  and  C_6 
REMARK    4  A    between atoms: C_7  and  O_8 
REMARK    5  A    between atoms: C_20  and  C_21 
REMARK    6  A    between atoms: C_21  and  N_22 
REMARK    7  A    between atoms: N_25  and  C_26 
REMARK    8  A    between atoms: C_26  and  C_27 
ROOT
ATOM      1  C   UNL d   1      28.260 -13.741   3.737  0.00  0.00     0.033 C 
ATOM      2  C   UNL d   1      29.409 -13.653   3.016  0.00  0.00     0.017 C 
ATOM      3  C   UNL d   1      29.338 -13.559   1.568  0.00  0.00     0.010 C 
ATOM      4  C   UNL d   1      28.125 -13.398   0.868  0.00  0.00    -0.030 C 
ATOM      5  C   UNL d   1      27.214 -12.853   1.712  0.00  0.00     0.010 C 
ATOM      6  C   UNL d   1      27.169 -13.480   2.952  0.00  0.00     0.017 C 
ENDROOT
BRANCH   1   7
ATOM      7  C   UNL d   1      28.127 -13.713   5.257  0.00  0.00     0.271 C 
ATOM      8  O   UNL d   1      27.319 -13.079   5.859  0.00  0.00    -0.266 OA
ATOM      9  N   UNL d   1      29.099 -14.468   5.907  0.00  0.00    -0.243 N 
ATOM     10  H   UNL d   1      29.737 -15.063   5.407  0.00  0.00     0.192 HD
BRANCH   9  11
ATOM     11  N   UNL d   1      29.037 -14.445   7.265  0.00  0.00    -0.183 NA
ATOM     12  C   UNL d   1      29.326 -13.332   7.854  0.00  0.00     0.153 C 
BRANCH  12  13
ATOM     13  C   UNL d   1      29.340 -13.269   9.330  0.00  0.00     0.027 A 
ATOM     14  C   UNL d   1      28.969 -14.402  10.072  0.00  0.00     0.078 A 
ATOM     15  C   UNL d   1      29.080 -14.400  11.457  0.00  0.00     0.038 A 
ATOM     16  C   UNL d   1      29.564 -13.268  12.112  0.00  0.00     0.015 A 
ATOM     17  C   UNL d   1      29.915 -12.115  11.393  0.00  0.00    -0.025 A 
ATOM     18  C   UNL d   1      30.388 -10.978  12.066  0.00  0.00     0.012 A 
ATOM     19  C   UNL d   1      29.790 -12.097   9.980  0.00  0.00    -0.011 A 
ATOM     20  C   UNL d   1      30.713  -9.817  11.366  0.00  0.00     0.001 A 
ATOM     21  C   UNL d   1      30.560  -9.773   9.987  0.00  0.00     0.001 A 
ATOM     22  C   UNL d   1      30.105 -10.897   9.301  0.00  0.00     0.013 A 
BRANCH  14  23
ATOM     23  O   UNL d   1      28.530 -15.566   9.500  0.00  0.00    -0.360 OA
ATOM     24  H   UNL d   1      29.211 -15.879   8.864  0.00  0.00     0.217 HD
ENDBRANCH  14  23
ENDBRANCH  12  13
ENDBRANCH   9  11
ENDBRANCH   1   7
BRANCH   4  25
ATOM     25  C   UNL d   1      27.780 -13.716  -0.647  0.00  0.00     0.311 C 
BRANCH  25  26
ATOM     26  N   UNL d   1      28.414 -14.911  -1.500  0.00  0.00     0.095 NA
ATOM     27  C   UNL d   1      27.671 -15.935  -2.326  0.00  0.00     0.300 C 
ATOM     28  C   UNL d   1      26.621 -16.872  -1.635  0.00  0.00     0.265 C 
ATOM     29  N   UNL d   1      27.233 -17.579  -0.355  0.00  0.00    -0.064 N 
ATOM     30  C   UNL d   1      28.376 -16.690   0.158  0.00  0.00     0.265 C 
ATOM     31  H   UNL d   1      27.688 -18.465  -0.583  0.00  0.00     0.280 HD
ATOM     32  C   UNL d   1      29.289 -15.745  -0.650  0.00  0.00     0.300 C 
BRANCH  29  33
ATOM     33  C   UNL d   1      25.991 -18.073   0.683  0.00  0.00     0.273 C 
BRANCH  33  34
ATOM     34  C   UNL d   1      24.536 -18.050   0.185  0.00  0.00    -0.033 C 
ATOM     35  C   UNL d   1      23.750 -19.139  -0.146  0.00  0.00     0.009 C 
ATOM     36  C   UNL d   1      22.498 -18.952  -0.824  0.00  0.00     0.001 C 
ATOM     37  C   UNL d   1      21.899 -17.697  -0.956  0.00  0.00     0.000 C 
ATOM     38  C   UNL d   1      22.530 -16.657  -0.373  0.00  0.00     0.001 C 
ATOM     39  C   UNL d   1      23.870 -16.882  -0.145  0.00  0.00     0.009 C 
ENDBRANCH  33  34
ENDBRANCH  29  33
ENDBRANCH  25  26
ENDBRANCH   4  25
TORSDOF 8
ENDMDL
MODEL 4
REMARK VINA RESULT:   -10.135      8.171     13.095
REMARK INTER + INTRA:         -14.569
REMARK INTER:                 -12.522
REMARK INTRA:                  -2.048
REMARK CONF_INDEPENDENT:        2.386
REMARK UNBOUND:                -2.048
REMARK  8 active torsions:
REMARK  status: ('A' for Active; 'I' for Inactive)
REMARK       I    between atoms: C_2  and  N_3 
REMARK    1  A    between atoms: C_2  and  C_17 
REMARK    2  A    between atoms: N_3  and  N_4 
REMARK    3  A    between atoms: C_5  and  C_6 
REMARK    4  A    between atoms: C_7  and  O_8 
REMARK    5  A    between atoms: C_20  and  C_21 
REMARK    6  A    between atoms: C_21  and  N_22 
REMARK    7  A    between atoms: N_25  and  C_26 
REMARK    8  A    between atoms: C_26  and  C_27 
ROOT
ATOM      1  C   UNL d   1      25.902 -10.361  -3.740  0.00  0.00     0.033 C 
ATOM      2  C   UNL d   1      26.551  -9.665  -2.769  0.00  0.00     0.017 C 
ATOM      3  C   UNL d   1      27.046 -10.366  -1.597  0.00  0.00     0.010 C 
ATOM      4  C   UNL d   1      27.026 -11.772  -1.478  0.00  0.00    -0.030 C 
ATOM      5  C   UNL d   1      26.986 -12.305  -2.724  0.00  0.00     0.010 C 
ATOM      6  C   UNL d   1      26.035 -11.711  -3.546  0.00  0.00     0.017 C 
ENDROOT
BRANCH   1   7
ATOM      7  C   UNL d   1      25.433  -9.831  -5.091  0.00  0.00     0.271 C 
ATOM      8  O   UNL d   1      25.867 -10.171  -6.145  0.00  0.00    -0.266 OA
ATOM      9  N   UNL d   1      24.464  -8.838  -4.984  0.00  0.00    -0.243 N 
ATOM     10  H   UNL d   1      24.040  -8.597  -4.104  0.00  0.00     0.192 HD
BRANCH   9  11
ATOM     11  N   UNL d   1      24.039  -8.313  -6.164  0.00  0.00    -0.183 NA
ATOM     12  C   UNL d   1      23.370  -7.208  -6.115  0.00  0.00     0.153 C 
BRANCH  12  13
ATOM     13  C   UNL d   1      22.828  -6.628  -7.362  0.00  0.00     0.027 A 
ATOM     14  C   UNL d   1      23.647  -6.551  -8.500  0.00  0.00     0.078 A 
ATOM     15  C   UNL d   1      23.125  -6.112  -9.710  0.00  0.00     0.038 A 
ATOM     16  C   UNL d   1      21.781  -5.748  -9.795  0.00  0.00     0.015 A 
ATOM     17  C   UNL d   1      20.951  -5.792  -8.664  0.00  0.00    -0.025 A 
ATOM     18  C   UNL d   1      19.604  -5.411  -8.760  0.00  0.00     0.012 A 
ATOM     19  C   UNL d   1      21.475  -6.221  -7.417  0.00  0.00    -0.011 A 
ATOM     20  C   UNL d   1      18.777  -5.422  -7.639  0.00  0.00     0.001 A 
ATOM     21  C   UNL d   1      19.286  -5.804  -6.405  0.00  0.00     0.001 A 
ATOM     22  C   UNL d   1      20.618  -6.199  -6.294  0.00  0.00     0.013 A 
BRANCH  14  23
ATOM     23  O   UNL d   1      24.962  -6.934  -8.509  0.00  0.00    -0.360 OA
ATOM     24  H   UNL d   1      25.078  -7.673  -7.870  0.00  0.00     0.217 HD
ENDBRANCH  14  23
ENDBRANCH  12  13
ENDBRANCH   9  11
ENDBRANCH   1   7
BRANCH   4  25
ATOM     25  C   UNL d   1      27.085 -12.678  -0.178  0.00  0.00     0.311 C 
BRANCH  25  26
ATOM     26  N   UNL d   1      28.426 -13.099   0.586  0.00  0.00     0.095 NA
ATOM     27  C   UNL d   1      29.569 -13.920   0.036  0.00  0.00     0.300 C 
ATOM     28  C   UNL d   1      29.299 -15.380  -0.470  0.00  0.00     0.265 C 
ATOM     29  N   UNL d   1      28.520 -16.231   0.615  0.00  0.00    -0.064 N 
ATOM     30  C   UNL d   1      27.745 -15.246   1.503  0.00  0.00     0.265 C 
ATOM     31  H   UNL d   1      29.153 -16.706   1.262  0.00  0.00     0.280 HD
ATOM     32  C   UNL d   1      28.105 -13.787   1.853  0.00  0.00     0.300 C 
BRANCH  29  33
ATOM     33  C   UNL d   1      27.729 -17.530  -0.127  0.00  0.00     0.273 C 
BRANCH  33  34
ATOM     34  C   UNL d   1      26.233 -17.414  -0.461  0.00  0.00    -0.033 C 
ATOM     35  C   UNL d   1      25.625 -16.446  -1.242  0.00  0.00     0.009 C 
ATOM     36  C   UNL d   1      24.194 -16.326  -1.264  0.00  0.00     0.001 C 
ATOM     37  C   UNL d   1      23.352 -17.301  -0.724  0.00  0.00     0.000 C 
ATOM     38  C   UNL d   1      23.944 -18.400  -0.213  0.00  0.00     0.001 C 
ATOM     39  C   UNL d   1      25.265 -18.208   0.129  0.00  0.00     0.009 C 
ENDBRANCH  33  34
ENDBRANCH  29  33
ENDBRANCH  25  26
ENDBRANCH   4  25
TORSDOF 8
ENDMDL
MODEL 5
REMARK VINA RESULT:    -9.994      5.954     11.832
REMARK INTER + INTRA:         -15.223
REMARK INTER:                 -12.380
REMARK INTRA:                  -2.843
REMARK CONF_INDEPENDENT:        2.386
REMARK UNBOUND:                -2.843
REMARK  8 active torsions:
REMARK  status: ('A' for Active; 'I' for Inactive)
REMARK       I    between atoms: C_2  and  N_3 
REMARK    1  A    between atoms: C_2  and  C_17 
REMARK    2  A    between atoms: N_3  and  N_4 
REMARK    3  A    between atoms: C_5  and  C_6 
REMARK    4  A    between atoms: C_7  and  O_8 
REMARK    5  A    between atoms: C_20  and  C_21 
REMARK    6  A    between atoms: C_21  and  N_22 
REMARK    7  A    between atoms: N_25  and  C_26 
REMARK    8  A    between atoms: C_26  and  C_27 
ROOT
ATOM      1  C   UNL d   1      27.686 -14.501  -3.463  0.00  0.00     0.033 C 
ATOM      2  C   UNL d   1      26.493 -13.875  -3.290  0.00  0.00     0.017 C 
ATOM      3  C   UNL d   1      26.331 -12.936  -2.193  0.00  0.00     0.010 C 
ATOM      4  C   UNL d   1      27.402 -12.516  -1.377  0.00  0.00    -0.030 C 
ATOM      5  C   UNL d   1      28.557 -12.691  -2.067  0.00  0.00     0.010 C 
ATOM      6  C   UNL d   1      28.653 -13.939  -2.673  0.00  0.00     0.017 C 
ENDROOT
BRANCH   1   7
ATOM      7  C   UNL d   1      28.086 -15.408  -4.623  0.00  0.00     0.271 C 
ATOM      8  O   UNL d   1      27.445 -15.572  -5.612  0.00  0.00    -0.266 OA
ATOM      9  N   UNL d   1      29.273 -16.098  -4.396  0.00  0.00    -0.243 N 
ATOM     10  H   UNL d   1      29.856 -15.911  -3.599  0.00  0.00     0.192 HD
BRANCH   9  11
ATOM     11  N   UNL d   1      29.650 -16.944  -5.391  0.00  0.00    -0.183 NA
ATOM     12  C   UNL d   1      30.387 -17.954  -5.064  0.00  0.00     0.153 C 
BRANCH  12  13
ATOM     13  C   UNL d   1      30.881 -18.868  -6.115  0.00  0.00     0.027 A 
ATOM     14  C   UNL d   1      31.093 -18.376  -7.413  0.00  0.00     0.078 A 
ATOM     15  C   UNL d   1      31.660 -19.189  -8.386  0.00  0.00     0.038 A 
ATOM     16  C   UNL d   1      32.022 -20.499  -8.071  0.00  0.00     0.015 A 
ATOM     17  C   UNL d   1      31.794 -21.020  -6.788  0.00  0.00    -0.025 A 
ATOM     18  C   UNL d   1      32.152 -22.343  -6.488  0.00  0.00     0.012 A 
ATOM     19  C   UNL d   1      31.200 -20.206  -5.789  0.00  0.00    -0.011 A 
ATOM     20  C   UNL d   1      31.905 -22.881  -5.227  0.00  0.00     0.001 A 
ATOM     21  C   UNL d   1      31.290 -22.109  -4.251  0.00  0.00     0.001 A 
ATOM     22  C   UNL d   1      30.941 -20.788  -4.528  0.00  0.00     0.013 A 
BRANCH  14  23
ATOM     23  O   UNL d   1      30.808 -17.090  -7.787  0.00  0.00    -0.360 OA
ATOM     24  H   UNL d   1      30.035 -16.777  -7.267  0.00  0.00     0.217 HD
ENDBRANCH  14  23
ENDBRANCH  12  13
ENDBRANCH   9  11
ENDBRANCH   1   7
BRANCH   4  25
ATOM     25  C   UNL d   1      27.381 -11.892   0.080  0.00  0.00     0.311 C 
BRANCH  25  26
ATOM     26  N   UNL d   1      28.350 -12.326   1.277  0.00  0.00     0.095 NA
ATOM     27  C   UNL d   1      29.646 -13.095   1.167  0.00  0.00     0.300 C 
ATOM     28  C   UNL d   1      29.643 -14.531   0.536  0.00  0.00     0.265 C 
ATOM     29  N   UNL d   1      28.545 -15.454   1.209  0.00  0.00    -0.064 N 
ATOM     30  C   UNL d   1      27.455 -14.532   1.777  0.00  0.00     0.265 C 
ATOM     31  H   UNL d   1      28.905 -15.950   2.027  0.00  0.00     0.280 HD
ATOM     32  C   UNL d   1      27.601 -13.087   2.298  0.00  0.00     0.300 C 
BRANCH  29  33
ATOM     33  C   UNL d   1      28.143 -16.727   0.169  0.00  0.00     0.273 C 
BRANCH  33  34
ATOM     34  C   UNL d   1      26.664 -17.008  -0.145  0.00  0.00    -0.033 C 
ATOM     35  C   UNL d   1      25.861 -17.981   0.422  0.00  0.00     0.009 C 
ATOM     36  C   UNL d   1      24.575 -18.282  -0.144  0.00  0.00     0.001 C 
ATOM     37  C   UNL d   1      23.971 -17.467  -1.105  0.00  0.00     0.000 C 
ATOM     38  C   UNL d   1      24.633 -16.344  -1.453  0.00  0.00     0.001 C 
ATOM     39  C   UNL d   1      25.983 -16.392  -1.181  0.00  0.00     0.009 C 
ENDBRANCH  33  34
ENDBRANCH  29  33
ENDBRANCH  25  26
ENDBRANCH   4  25
TORSDOF 8
ENDMDL
MODEL 6
REMARK VINA RESULT:    -9.893      2.486      3.936
REMARK INTER + INTRA:         -14.476
REMARK INTER:                 -12.279
REMARK INTRA:                  -2.197
REMARK CONF_INDEPENDENT:        2.386
REMARK UNBOUND:                -2.197
REMARK  8 active torsions:
REMARK  status: ('A' for Active; 'I' for Inactive)
REMARK       I    between atoms: C_2  and  N_3 
REMARK    1  A    between atoms: C_2  and  C_17 
REMARK    2  A    between atoms: N_3  and  N_4 
REMARK    3  A    between atoms: C_5  and  C_6 
REMARK    4  A    between atoms: C_7  and  O_8 
REMARK    5  A    between atoms: C_20  and  C_21 
REMARK    6  A    between atoms: C_21  and  N_22 
REMARK    7  A    between atoms: N_25  and  C_26 
REMARK    8  A    between atoms: C_26  and  C_27 
ROOT
ATOM      1  C   UNL d   1      30.029 -14.445   2.776  0.00  0.00     0.033 C 
ATOM      2  C   UNL d   1      31.377 -14.496   2.614  0.00  0.00     0.017 C 
ATOM      3  C   UNL d   1      31.935 -14.511   1.273  0.00  0.00     0.010 C 
ATOM      4  C   UNL d   1      31.154 -14.320   0.114  0.00  0.00    -0.030 C 
ATOM      5  C   UNL d   1      30.029 -13.647   0.464  0.00  0.00     0.010 C 
ATOM      6  C   UNL d   1      29.403 -14.170   1.589  0.00  0.00     0.017 C 
ENDROOT
BRANCH   1   7
ATOM      7  C   UNL d   1      29.269 -14.289   4.089  0.00  0.00     0.271 C 
ATOM      8  O   UNL d   1      28.083 -14.242   4.190  0.00  0.00    -0.266 OA
ATOM      9  N   UNL d   1      30.104 -14.139   5.192  0.00  0.00    -0.243 N 
ATOM     10  H   UNL d   1      31.101 -14.251   5.127  0.00  0.00     0.192 HD
BRANCH   9  11
ATOM     11  N   UNL d   1      29.468 -13.964   6.381  0.00  0.00    -0.183 NA
ATOM     12  C   UNL d   1      30.203 -13.741   7.420  0.00  0.00     0.153 C 
BRANCH  12  13
ATOM     13  C   UNL d   1      29.569 -13.609   8.748  0.00  0.00     0.027 A 
ATOM     14  C   UNL d   1      28.457 -12.765   8.901  0.00  0.00     0.078 A 
ATOM     15  C   UNL d   1      27.779 -12.711  10.113  0.00  0.00     0.038 A 
ATOM     16  C   UNL d   1      28.204 -13.501  11.181  0.00  0.00     0.015 A 
ATOM     17  C   UNL d   1      29.329 -14.332  11.059  0.00  0.00    -0.025 A 
ATOM     18  C   UNL d   1      29.754 -15.111  12.146  0.00  0.00     0.012 A 
ATOM     19  C   UNL d   1      30.041 -14.383   9.833  0.00  0.00    -0.011 A 
ATOM     20  C   UNL d   1      30.885 -15.918  12.047  0.00  0.00     0.001 A 
ATOM     21  C   UNL d   1      31.614 -15.950  10.865  0.00  0.00     0.001 A 
ATOM     22  C   UNL d   1      31.198 -15.193   9.772  0.00  0.00     0.013 A 
BRANCH  14  23
ATOM     23  O   UNL d   1      27.951 -11.995   7.888  0.00  0.00    -0.360 OA
ATOM     24  H   UNL d   1      27.961 -12.523   7.058  0.00  0.00     0.217 HD
ENDBRANCH  14  23
ENDBRANCH  12  13
ENDBRANCH   9  11
ENDBRANCH   1   7
BRANCH   4  25
ATOM     25  C   UNL d   1      31.453 -14.730  -1.389  0.00  0.00     0.311 C 
BRANCH  25  26
ATOM     26  N   UNL d   1      31.162 -16.171  -2.020  0.00  0.00     0.095 NA
ATOM     27  C   UNL d   1      29.917 -16.609  -2.755  0.00  0.00     0.300 C 
ATOM     28  C   UNL d   1      28.529 -16.554  -2.028  0.00  0.00     0.265 C 
ATOM     29  N   UNL d   1      28.587 -17.281  -0.621  0.00  0.00    -0.064 N 
ATOM     30  C   UNL d   1      30.047 -17.246  -0.145  0.00  0.00     0.265 C 
ATOM     31  H   UNL d   1      28.370 -18.277  -0.691  0.00  0.00     0.280 HD
ATOM     32  C   UNL d   1      31.332 -17.226  -1.000  0.00  0.00     0.300 C 
BRANCH  29  33
ATOM     33  C   UNL d   1      27.341 -16.715   0.375  0.00  0.00     0.273 C 
BRANCH  33  34
ATOM     34  C   UNL d   1      25.884 -17.077   0.042  0.00  0.00    -0.033 C 
ATOM     35  C   UNL d   1      25.191 -18.203   0.449  0.00  0.00     0.009 C 
ATOM     36  C   UNL d   1      23.920 -18.524  -0.138  0.00  0.00     0.001 C 
ATOM     37  C   UNL d   1      23.213 -17.620  -0.935  0.00  0.00     0.000 C 
ATOM     38  C   UNL d   1      23.760 -16.398  -1.098  0.00  0.00     0.001 C 
ATOM     39  C   UNL d   1      25.117 -16.363  -0.861  0.00  0.00     0.009 C 
ENDBRANCH  33  34
ENDBRANCH  29  33
ENDBRANCH  25  26
ENDBRANCH   4  25
TORSDOF 8
ENDMDL
MODEL 7
REMARK VINA RESULT:    -9.795      4.988     10.575
REMARK INTER + INTRA:         -14.367
REMARK INTER:                 -12.182
REMARK INTRA:                  -2.185
REMARK CONF_INDEPENDENT:        2.386
REMARK UNBOUND:                -2.185
REMARK  8 active torsions:
REMARK  status: ('A' for Active; 'I' for Inactive)
REMARK       I    between atoms: C_2  and  N_3 
REMARK    1  A    between atoms: C_2  and  C_17 
REMARK    2  A    between atoms: N_3  and  N_4 
REMARK    3  A    between atoms: C_5  and  C_6 
REMARK    4  A    between atoms: C_7  and  O_8 
REMARK    5  A    between atoms: C_20  and  C_21 
REMARK    6  A    between atoms: C_21  and  N_22 
REMARK    7  A    between atoms: N_25  and  C_26 
REMARK    8  A    between atoms: C_26  and  C_27 
ROOT
ATOM      1  C   UNL d   1      26.612  -9.544   2.468  0.00  0.00     0.033 C 
ATOM      2  C   UNL d   1      27.300  -8.939   3.472  0.00  0.00     0.017 C 
ATOM      3  C   UNL d   1      27.837  -9.743   4.556  0.00  0.00     0.010 C 
ATOM      4  C   UNL d   1      27.816 -11.153   4.548  0.00  0.00    -0.030 C 
ATOM      5  C   UNL d   1      27.726 -11.572   3.261  0.00  0.00     0.010 C 
ATOM      6  C   UNL d   1      26.747 -10.905   2.534  0.00  0.00     0.017 C 
ENDROOT
BRANCH   1   7
ATOM      7  C   UNL d   1      26.093  -8.893   1.190  0.00  0.00     0.271 C 
ATOM      8  O   UNL d   1      25.052  -8.326   1.088  0.00  0.00    -0.266 OA
ATOM      9  N   UNL d   1      26.939  -9.073   0.100  0.00  0.00    -0.243 N 
ATOM     10  H   UNL d   1      27.851  -9.485   0.193  0.00  0.00     0.192 HD
BRANCH   9  11
ATOM     11  N   UNL d   1      26.500  -8.536  -1.070  0.00  0.00    -0.183 NA
ATOM     12  C   UNL d   1      26.254  -9.352  -2.042  0.00  0.00     0.153 C 
BRANCH  12  13
ATOM     13  C   UNL d   1      25.838  -8.817  -3.355  0.00  0.00     0.027 A 
ATOM     14  C   UNL d   1      25.342  -7.506  -3.441  0.00  0.00     0.078 A 
ATOM     15  C   UNL d   1      25.049  -6.947  -4.678  0.00  0.00     0.038 A 
ATOM     16  C   UNL d   1      25.251  -7.691  -5.840  0.00  0.00     0.015 A 
ATOM     17  C   UNL d   1      25.720  -9.012  -5.777  0.00  0.00    -0.025 A 
ATOM     18  C   UNL d   1      25.907  -9.754  -6.954  0.00  0.00     0.012 A 
ATOM     19  C   UNL d   1      26.007  -9.602  -4.519  0.00  0.00    -0.011 A 
ATOM     20  C   UNL d   1      26.345 -11.075  -6.903  0.00  0.00     0.001 A 
ATOM     21  C   UNL d   1      26.593 -11.677  -5.677  0.00  0.00     0.001 A 
ATOM     22  C   UNL d   1      26.427 -10.951  -4.500  0.00  0.00     0.013 A 
BRANCH  14  23
ATOM     23  O   UNL d   1      25.161  -6.697  -2.350  0.00  0.00    -0.360 OA
ATOM     24  H   UNL d   1      24.816  -7.243  -1.609  0.00  0.00     0.217 HD
ENDBRANCH  14  23
ENDBRANCH  12  13
ENDBRANCH   9  11
ENDBRANCH   1   7
BRANCH   4  25
ATOM     25  C   UNL d   1      27.922 -12.174   5.758  0.00  0.00     0.311 C 
BRANCH  25  26
ATOM     26  N   UNL d   1      28.928 -13.415   5.824  0.00  0.00     0.095 NA
ATOM     27  C   UNL d   1      30.206 -13.596   5.038  0.00  0.00     0.300 C 
ATOM     28  C   UNL d   1      30.155 -13.612   3.471  0.00  0.00     0.265 C 
ATOM     29  N   UNL d   1      29.068 -14.636   2.940  0.00  0.00    -0.064 N 
ATOM     30  C   UNL d   1      28.016 -14.804   4.048  0.00  0.00     0.265 C 
ATOM     31  H   UNL d   1      29.450 -15.575   2.813  0.00  0.00     0.280 HD
ATOM     32  C   UNL d   1      28.205 -14.680   5.574  0.00  0.00     0.300 C 
BRANCH  29  33
ATOM     33  C   UNL d   1      28.605 -14.224   1.366  0.00  0.00     0.273 C 
BRANCH  33  34
ATOM     34  C   UNL d   1      27.619 -15.127   0.606  0.00  0.00    -0.033 C 
ATOM     35  C   UNL d   1      26.721 -14.743  -0.374  0.00  0.00     0.009 C 
ATOM     36  C   UNL d   1      25.699 -15.650  -0.817  0.00  0.00     0.001 C 
ATOM     37  C   UNL d   1      25.708 -17.008  -0.487  0.00  0.00     0.000 C 
ATOM     38  C   UNL d   1      26.756 -17.450   0.240  0.00  0.00     0.001 C 
ATOM     39  C   UNL d   1      27.404 -16.454   0.937  0.00  0.00     0.009 C 
ENDBRANCH  33  34
ENDBRANCH  29  33
ENDBRANCH  25  26
ENDBRANCH   4  25
TORSDOF 8
ENDMDL
MODEL 8
REMARK VINA RESULT:    -9.591      2.248      3.367
REMARK INTER + INTRA:         -14.296
REMARK INTER:                 -11.977
REMARK INTRA:                  -2.319
REMARK CONF_INDEPENDENT:        2.386
REMARK UNBOUND:                -2.319
REMARK  8 active torsions:
REMARK  status: ('A' for Active; 'I' for Inactive)
REMARK       I    between atoms: C_2  and  N_3 
REMARK    1  A    between atoms: C_2  and  C_17 
REMARK    2  A    between atoms: N_3  and  N_4 
REMARK    3  A    between atoms: C_5  and  C_6 
REMARK    4  A    between atoms: C_7  and  O_8 
REMARK    5  A    between atoms: C_20  and  C_21 
REMARK    6  A    between atoms: C_21  and  N_22 
REMARK    7  A    between atoms: N_25  and  C_26 
REMARK    8  A    between atoms: C_26  and  C_27 
ROOT
ATOM      1  C   UNL d   1      27.970 -12.617   3.846  0.00  0.00     0.033 C 
ATOM      2  C   UNL d   1      27.878 -11.515   3.055  0.00  0.00     0.017 C 
ATOM      3  C   UNL d   1      27.687 -11.677   1.624  0.00  0.00     0.010 C 
ATOM      4  C   UNL d   1      27.434 -12.926   1.020  0.00  0.00    -0.030 C 
ATOM      5  C   UNL d   1      26.912 -13.756   1.957  0.00  0.00     0.010 C 
ATOM      6  C   UNL d   1      27.617 -13.745   3.155  0.00  0.00     0.017 C 
ENDROOT
BRANCH   1   7
ATOM      7  C   UNL d   1      28.037 -12.648   5.370  0.00  0.00     0.271 C 
ATOM      8  O   UNL d   1      27.111 -12.856   6.089  0.00  0.00    -0.266 OA
ATOM      9  N   UNL d   1      29.300 -12.345   5.870  0.00  0.00    -0.243 N 
ATOM     10  H   UNL d   1      30.101 -12.242   5.271  0.00  0.00     0.192 HD
BRANCH   9  11
ATOM     11  N   UNL d   1      29.398 -12.330   7.226  0.00  0.00    -0.183 NA
ATOM     12  C   UNL d   1      29.609 -13.460   7.818  0.00  0.00     0.153 C 
BRANCH  12  13
ATOM     13  C   UNL d   1      29.658 -13.511   9.294  0.00  0.00     0.027 A 
ATOM     14  C   UNL d   1      28.642 -12.895  10.040  0.00  0.00     0.078 A 
ATOM     15  C   UNL d   1      28.610 -13.025  11.423  0.00  0.00     0.038 A 
ATOM     16  C   UNL d   1      29.592 -13.774  12.071  0.00  0.00     0.015 A 
ATOM     17  C   UNL d   1      30.632 -14.378  11.348  0.00  0.00    -0.025 A 
ATOM     18  C   UNL d   1      31.620 -15.118  12.014  0.00  0.00     0.012 A 
ATOM     19  C   UNL d   1      30.687 -14.238   9.937  0.00  0.00    -0.011 A 
ATOM     20  C   UNL d   1      32.674 -15.698  11.311  0.00  0.00     0.001 A 
ATOM     21  C   UNL d   1      32.761 -15.538   9.935  0.00  0.00     0.001 A 
ATOM     22  C   UNL d   1      31.781 -14.817   9.256  0.00  0.00     0.013 A 
BRANCH  14  23
ATOM     23  O   UNL d   1      27.618 -12.182   9.474  0.00  0.00    -0.360 OA
ATOM     24  H   UNL d   1      27.678 -12.270   8.497  0.00  0.00     0.217 HD
ENDBRANCH  14  23
ENDBRANCH  12  13
ENDBRANCH   9  11
ENDBRANCH   1   7
BRANCH   4  25
ATOM     25  C   UNL d   1      27.638 -13.383  -0.485  0.00  0.00     0.311 C 
BRANCH  25  26
ATOM     26  N   UNL d   1      28.837 -14.302  -1.009  0.00  0.00     0.095 NA
ATOM     27  C   UNL d   1      28.747 -15.446  -1.992  0.00  0.00     0.300 C 
ATOM     28  C   UNL d   1      27.833 -16.678  -1.664  0.00  0.00     0.265 C 
ATOM     29  N   UNL d   1      28.140 -17.254  -0.220  0.00  0.00    -0.064 N 
ATOM     30  C   UNL d   1      28.735 -16.110   0.615  0.00  0.00     0.265 C 
ATOM     31  H   UNL d   1      28.877 -17.963  -0.235  0.00  0.00     0.280 HD
ATOM     32  C   UNL d   1      29.564 -14.902   0.129  0.00  0.00     0.300 C 
BRANCH  29  33
ATOM     33  C   UNL d   1      26.811 -18.135   0.345  0.00  0.00     0.273 C 
BRANCH  33  34
ATOM     34  C   UNL d   1      25.402 -17.792  -0.168  0.00  0.00    -0.033 C 
ATOM     35  C   UNL d   1      24.924 -16.541  -0.518  0.00  0.00     0.009 C 
ATOM     36  C   UNL d   1      23.520 -16.340  -0.746  0.00  0.00     0.001 C 
ATOM     37  C   UNL d   1      22.623 -17.402  -0.878  0.00  0.00     0.000 C 
ATOM     38  C   UNL d   1      23.142 -18.646  -0.826  0.00  0.00     0.001 C 
ATOM     39  C   UNL d   1      24.366 -18.708  -0.197  0.00  0.00     0.009 C 
ENDBRANCH  33  34
ENDBRANCH  29  33
ENDBRANCH  25  26
ENDBRANCH   4  25
TORSDOF 8
ENDMDL
MODEL 9
REMARK VINA RESULT:    -9.012      7.455     12.461
REMARK INTER + INTRA:         -14.306
REMARK INTER:                 -11.399
REMARK INTRA:                  -2.907
REMARK CONF_INDEPENDENT:        2.386
REMARK UNBOUND:                -2.907
REMARK  8 active torsions:
REMARK  status: ('A' for Active; 'I' for Inactive)
REMARK       I    between atoms: C_2  and  N_3 
REMARK    1  A    between atoms: C_2  and  C_17 
REMARK    2  A    between atoms: N_3  and  N_4 
REMARK    3  A    between atoms: C_5  and  C_6 
REMARK    4  A    between atoms: C_7  and  O_8 
REMARK    5  A    between atoms: C_20  and  C_21 
REMARK    6  A    between atoms: C_21  and  N_22 
REMARK    7  A    between atoms: N_25  and  C_26 
REMARK    8  A    between atoms: C_26  and  C_27 
ROOT
ATOM      1  C   UNL d   1      26.258 -13.163  -4.385  0.00  0.00     0.033 C 
ATOM      2  C   UNL d   1      26.314 -14.363  -5.021  0.00  0.00     0.017 C 
ATOM      3  C   UNL d   1      25.997 -15.576  -4.286  0.00  0.00     0.010 C 
ATOM      4  C   UNL d   1      25.480 -15.566  -2.974  0.00  0.00    -0.030 C 
ATOM      5  C   UNL d   1      24.882 -14.367  -2.760  0.00  0.00     0.010 C 
ATOM      6  C   UNL d   1      25.659 -13.286  -3.160  0.00  0.00     0.017 C 
ENDROOT
BRANCH   1   7
ATOM      7  C   UNL d   1      26.424 -11.783  -5.015  0.00  0.00     0.271 C 
ATOM      8  O   UNL d   1      27.256 -11.496  -5.816  0.00  0.00    -0.266 OA
ATOM      9  N   UNL d   1      25.531 -10.841  -4.515  0.00  0.00    -0.243 N 
ATOM     10  H   UNL d   1      24.780 -11.092  -3.895  0.00  0.00     0.192 HD
BRANCH   9  11
ATOM     11  N   UNL d   1      25.665  -9.588  -5.026  0.00  0.00    -0.183 NA
ATOM     12  C   UNL d   1      24.739  -9.171  -5.824  0.00  0.00     0.153 C 
BRANCH  12  13
ATOM     13  C   UNL d   1      24.867  -7.842  -6.459  0.00  0.00     0.027 A 
ATOM     14  C   UNL d   1      26.025  -7.536  -7.190  0.00  0.00     0.078 A 
ATOM     15  C   UNL d   1      26.119  -6.337  -7.886  0.00  0.00     0.038 A 
ATOM     16  C   UNL d   1      25.055  -5.435  -7.859  0.00  0.00     0.015 A 
ATOM     17  C   UNL d   1      23.898  -5.709  -7.114  0.00  0.00    -0.025 A 
ATOM     18  C   UNL d   1      22.841  -4.787  -7.085  0.00  0.00     0.012 A 
ATOM     19  C   UNL d   1      23.796  -6.921  -6.384  0.00  0.00    -0.011 A 
ATOM     20  C   UNL d   1      21.699  -5.033  -6.326  0.00  0.00     0.001 A 
ATOM     21  C   UNL d   1      21.601  -6.198  -5.578  0.00  0.00     0.001 A 
ATOM     22  C   UNL d   1      22.636  -7.131  -5.605  0.00  0.00     0.013 A 
BRANCH  14  23
ATOM     23  O   UNL d   1      27.092  -8.388  -7.303  0.00  0.00    -0.360 OA
ATOM     24  H   UNL d   1      26.935  -9.165  -6.722  0.00  0.00     0.217 HD
ENDBRANCH  14  23
ENDBRANCH  12  13
ENDBRANCH   9  11
ENDBRANCH   1   7
BRANCH   4  25
ATOM     25  C   UNL d   1      25.492 -16.706  -1.872  0.00  0.00     0.311 C 
BRANCH  25  26
ATOM     26  N   UNL d   1      25.817 -16.479  -0.323  0.00  0.00     0.095 NA
ATOM     27  C   UNL d   1      26.754 -15.453   0.272  0.00  0.00     0.300 C 
ATOM     28  C   UNL d   1      28.270 -15.464  -0.131  0.00  0.00     0.265 C 
ATOM     29  N   UNL d   1      28.900 -16.908   0.040  0.00  0.00    -0.064 N 
ATOM     30  C   UNL d   1      27.755 -17.926  -0.071  0.00  0.00     0.265 C 
ATOM     31  H   UNL d   1      29.277 -17.057   0.978  0.00  0.00     0.280 HD
ATOM     32  C   UNL d   1      26.269 -17.739   0.301  0.00  0.00     0.300 C 
BRANCH  29  33
ATOM     33  C   UNL d   1      30.282 -17.054  -0.926  0.00  0.00     0.273 C 
BRANCH  33  34
ATOM     34  C   UNL d   1      30.139 -17.045  -2.457  0.00  0.00    -0.033 C 
ATOM     35  C   UNL d   1      30.573 -18.016  -3.342  0.00  0.00     0.009 C 
ATOM     36  C   UNL d   1      30.587 -17.758  -4.754  0.00  0.00     0.001 C 
ATOM     37  C   UNL d   1      29.947 -16.652  -5.319  0.00  0.00     0.000 C 
ATOM     38  C   UNL d   1      29.266 -15.847  -4.477  0.00  0.00     0.001 C 
ATOM     39  C   UNL d   1      29.674 -15.950  -3.165  0.00  0.00     0.009 C 
ENDBRANCH  33  34
ENDBRANCH  29  33
ENDBRANCH  25  26
ENDBRANCH   4  25
TORSDOF 8
ENDMDL
