MODEL 1
REMARK VINA RESULT:    -7.967      0.000      0.000
REMARK INTER + INTRA:         -10.227
REMARK INTER:                  -9.160
REMARK INTRA:                  -1.067
REMARK CONF_INDEPENDENT:        1.193
REMARK UNBOUND:                -1.067
REMARK  4 active torsions:
REMARK  status: ('A' for Active; 'I' for Inactive)
REMARK    1  A    between atoms: C_6  and  N_7 
REMARK    2  A    between atoms: C_8  and  N_7 
REMARK    3  A    between atoms: C_8  and  C_10 
REMARK       I    between atoms: C_10  and  N_12 
REMARK    4  A    between atoms: N_12  and  C_13 
ROOT
ATOM      1  C   UNL d   1      23.514 -17.327  -0.943  0.00  0.00     0.244 C 
ATOM      2  O   UNL d   1      23.053 -16.328  -0.399  0.00  0.00    -0.271 OA
ATOM      3  N   UNL d   1      24.863 -17.451  -1.266  0.00  0.00    -0.324 N 
ATOM      4  H   UNL d   1      25.114 -18.046  -2.041  0.00  0.00     0.169 HD
ENDROOT
BRANCH   1   5
ATOM      5  C   UNL d   1      22.608 -18.541  -1.274  0.00  0.00     0.170 C 
ATOM      6  C   UNL d   1      23.282 -19.696  -0.523  0.00  0.00     0.042 C 
BRANCH   5   7
ATOM      7  N   UNL d   1      21.204 -18.260  -0.891  0.00  0.00    -0.377 N 
ATOM      8  H   UNL d   1      20.840 -17.359  -1.182  0.00  0.00     0.160 HD
BRANCH   7   9
ATOM      9  C   UNL d   1      20.326 -19.068  -0.184  0.00  0.00     0.029 A 
ATOM     10  C   UNL d   1      19.212 -19.699  -0.742  0.00  0.00     0.029 A 
ATOM     11  C   UNL d   1      18.395 -20.600  -0.073  0.00  0.00     0.003 A 
ATOM     12  C   UNL d   1      18.621 -20.842   1.257  0.00  0.00     0.007 A 
ATOM     13  C   UNL d   1      19.681 -20.197   1.897  0.00  0.00    -0.060 A 
ATOM     14  C   UNL d   1      19.897 -20.451   3.353  0.00  0.00     0.048 C 
ATOM     15  C   UNL d   1      20.536 -19.329   1.175  0.00  0.00     0.036 A 
ENDBRANCH   7   9
ENDBRANCH   5   7
ENDBRANCH   1   5
BRANCH   3  16
ATOM     16  C   UNL d   1      25.779 -16.437  -0.863  0.00  0.00     0.046 A 
ATOM     17  C   UNL d   1      25.823 -15.198  -1.547  0.00  0.00    -0.035 A 
ATOM     18  C   UNL d   1      24.874 -14.823  -2.657  0.00  0.00     0.050 C 
ATOM     19  C   UNL d   1      26.778 -14.237  -1.175  0.00  0.00     0.009 A 
ATOM     20  C   UNL d   1      27.667 -14.480  -0.135  0.00  0.00     0.001 A 
ATOM     21  C   UNL d   1      27.606 -15.686   0.558  0.00  0.00     0.009 A 
ATOM     22  C   UNL d   1      26.654 -16.669   0.219  0.00  0.00    -0.035 A 
ATOM     23  C   UNL d   1      26.664 -17.966   0.975  0.00  0.00     0.050 C 
ENDBRANCH   3  16
TORSDOF 4
ENDMDL
MODEL 2
REMARK VINA RESULT:    -7.023      1.582      2.795
REMARK INTER + INTRA:          -9.160
REMARK INTER:                  -8.216
REMARK INTRA:                  -0.944
REMARK CONF_INDEPENDENT:        1.193
REMARK UNBOUND:                -0.944
REMARK  4 active torsions:
REMARK  status: ('A' for Active; 'I' for Inactive)
REMARK    1  A    between atoms: C_6  and  N_7 
REMARK    2  A    between atoms: C_8  and  N_7 
REMARK    3  A    between atoms: C_8  and  C_10 
REMARK       I    between atoms: C_10  and  N_12 
REMARK    4  A    between atoms: N_12  and  C_13 
ROOT
ATOM      1  C   UNL d   1      24.459 -16.378  -1.610  0.00  0.00     0.244 C 
ATOM      2  O   UNL d   1      23.601 -15.509  -1.735  0.00  0.00    -0.271 OA
ATOM      3  N   UNL d   1      25.794 -16.170  -1.949  0.00  0.00    -0.324 N 
ATOM      4  H   UNL d   1      26.346 -16.968  -2.225  0.00  0.00     0.169 HD
ENDROOT
BRANCH   1   5
ATOM      5  C   UNL d   1      24.102 -17.769  -1.025  0.00  0.00     0.170 C 
ATOM      6  C   UNL d   1      25.410 -18.213  -0.356  0.00  0.00     0.042 C 
BRANCH   5   7
ATOM      7  N   UNL d   1      22.926 -17.668  -0.128  0.00  0.00    -0.377 N 
ATOM      8  H   UNL d   1      22.968 -16.936   0.572  0.00  0.00     0.160 HD
BRANCH   7   9
ATOM      9  C   UNL d   1      21.780 -18.448  -0.120  0.00  0.00     0.029 A 
ATOM     10  C   UNL d   1      21.071 -18.819  -1.265  0.00  0.00     0.029 A 
ATOM     11  C   UNL d   1      19.992 -19.693  -1.279  0.00  0.00     0.003 A 
ATOM     12  C   UNL d   1      19.511 -20.176  -0.090  0.00  0.00     0.007 A 
ATOM     13  C   UNL d   1      20.133 -19.798   1.100  0.00  0.00    -0.060 A 
ATOM     14  C   UNL d   1      19.579 -20.311   2.390  0.00  0.00     0.048 C 
ATOM     15  C   UNL d   1      21.269 -18.952   1.082  0.00  0.00     0.036 A 
ENDBRANCH   7   9
ENDBRANCH   5   7
ENDBRANCH   1   5
BRANCH   3  16
ATOM     16  C   UNL d   1      26.222 -14.874  -2.357  0.00  0.00     0.046 A 
ATOM     17  C   UNL d   1      26.604 -13.908  -1.396  0.00  0.00    -0.035 A 
ATOM     18  C   UNL d   1      26.679 -14.188   0.084  0.00  0.00     0.050 C 
ATOM     19  C   UNL d   1      26.960 -12.616  -1.817  0.00  0.00     0.009 A 
ATOM     20  C   UNL d   1      26.958 -12.279  -3.165  0.00  0.00     0.001 A 
ATOM     21  C   UNL d   1      26.611 -13.237  -4.115  0.00  0.00     0.009 A 
ATOM     22  C   UNL d   1      26.259 -14.545  -3.729  0.00  0.00    -0.035 A 
ATOM     23  C   UNL d   1      25.854 -15.522  -4.796  0.00  0.00     0.050 C 
ENDBRANCH   3  16
TORSDOF 4
ENDMDL
MODEL 3
REMARK VINA RESULT:    -6.862      4.099      6.264
REMARK INTER + INTRA:          -9.111
REMARK INTER:                  -8.055
REMARK INTRA:                  -1.056
REMARK CONF_INDEPENDENT:        1.193
REMARK UNBOUND:                -1.056
REMARK  4 active torsions:
REMARK  status: ('A' for Active; 'I' for Inactive)
REMARK    1  A    between atoms: C_6  and  N_7 
REMARK    2  A    between atoms: C_8  and  N_7 
REMARK    3  A    between atoms: C_8  and  C_10 
REMARK       I    between atoms: C_10  and  N_12 
REMARK    4  A    between atoms: N_12  and  C_13 
ROOT
ATOM      1  C   UNL d   1      26.728 -14.909  -4.360  0.00  0.00     0.244 C 
ATOM      2  O   UNL d   1      26.320 -15.575  -5.307  0.00  0.00    -0.271 OA
ATOM      3  N   UNL d   1      28.067 -14.888  -3.978  0.00  0.00    -0.324 N 
ATOM      4  H   UNL d   1      28.284 -14.695  -3.011  0.00  0.00     0.169 HD
ENDROOT
BRANCH   1   5
ATOM      5  C   UNL d   1      25.761 -14.012  -3.545  0.00  0.00     0.170 C 
ATOM      6  C   UNL d   1      25.155 -13.090  -4.612  0.00  0.00     0.042 C 
BRANCH   5   7
ATOM      7  N   UNL d   1      24.793 -14.843  -2.792  0.00  0.00    -0.377 N 
ATOM      8  H   UNL d   1      23.814 -14.618  -2.936  0.00  0.00     0.160 HD
BRANCH   7   9
ATOM      9  C   UNL d   1      25.051 -15.883  -1.913  0.00  0.00     0.029 A 
ATOM     10  C   UNL d   1      26.302 -16.147  -1.349  0.00  0.00     0.029 A 
ATOM     11  C   UNL d   1      26.547 -17.111  -0.382  0.00  0.00     0.003 A 
ATOM     12  C   UNL d   1      25.525 -17.938   0.008  0.00  0.00     0.007 A 
ATOM     13  C   UNL d   1      24.261 -17.772  -0.560  0.00  0.00    -0.060 A 
ATOM     14  C   UNL d   1      23.165 -18.699  -0.145  0.00  0.00     0.048 C 
ATOM     15  C   UNL d   1      24.025 -16.741  -1.502  0.00  0.00     0.036 A 
ENDBRANCH   7   9
ENDBRANCH   5   7
ENDBRANCH   1   5
BRANCH   3  16
ATOM     16  C   UNL d   1      29.034 -15.575  -4.766  0.00  0.00     0.046 A 
ATOM     17  C   UNL d   1      29.248 -15.210  -6.117  0.00  0.00    -0.035 A 
ATOM     18  C   UNL d   1      28.565 -14.043  -6.785  0.00  0.00     0.050 C 
ATOM     19  C   UNL d   1      30.160 -15.943  -6.896  0.00  0.00     0.009 A 
ATOM     20  C   UNL d   1      30.866 -17.010  -6.352  0.00  0.00     0.001 A 
ATOM     21  C   UNL d   1      30.678 -17.352  -5.016  0.00  0.00     0.009 A 
ATOM     22  C   UNL d   1      29.780 -16.633  -4.203  0.00  0.00    -0.035 A 
ATOM     23  C   UNL d   1      29.590 -17.075  -2.781  0.00  0.00     0.050 C 
ENDBRANCH   3  16
TORSDOF 4
ENDMDL
MODEL 4
REMARK VINA RESULT:    -6.797      4.142      6.583
REMARK INTER + INTRA:          -8.989
REMARK INTER:                  -7.990
REMARK INTRA:                  -0.999
REMARK CONF_INDEPENDENT:        1.193
REMARK UNBOUND:                -0.999
REMARK  4 active torsions:
REMARK  status: ('A' for Active; 'I' for Inactive)
REMARK    1  A    between atoms: C_6  and  N_7 
REMARK    2  A    between atoms: C_8  and  N_7 
REMARK    3  A    between atoms: C_8  and  C_10 
REMARK       I    between atoms: C_10  and  N_12 
REMARK    4  A    between atoms: N_12  and  C_13 
ROOT
ATOM      1  C   UNL d   1      26.786 -14.898  -4.390  0.00  0.00     0.244 C 
ATOM      2  O   UNL d   1      26.373 -15.580  -5.323  0.00  0.00    -0.271 OA
ATOM      3  N   UNL d   1      28.129 -14.864  -4.021  0.00  0.00    -0.324 N 
ATOM      4  H   UNL d   1      28.354 -14.655  -3.060  0.00  0.00     0.169 HD
ENDROOT
BRANCH   1   5
ATOM      5  C   UNL d   1      25.823 -13.994  -3.578  0.00  0.00     0.170 C 
ATOM      6  C   UNL d   1      25.237 -13.059  -4.645  0.00  0.00     0.042 C 
BRANCH   5   7
ATOM      7  N   UNL d   1      24.837 -14.818  -2.839  0.00  0.00    -0.377 N 
ATOM      8  H   UNL d   1      23.862 -14.589  -3.001  0.00  0.00     0.160 HD
BRANCH   7   9
ATOM      9  C   UNL d   1      25.076 -15.857  -1.953  0.00  0.00     0.029 A 
ATOM     10  C   UNL d   1      26.323 -16.149  -1.398  0.00  0.00     0.029 A 
ATOM     11  C   UNL d   1      26.551 -17.111  -0.424  0.00  0.00     0.003 A 
ATOM     12  C   UNL d   1      25.511 -17.907  -0.018  0.00  0.00     0.007 A 
ATOM     13  C   UNL d   1      24.247 -17.713  -0.577  0.00  0.00    -0.060 A 
ATOM     14  C   UNL d   1      23.130 -18.607  -0.145  0.00  0.00     0.048 C 
ATOM     15  C   UNL d   1      24.030 -16.684  -1.526  0.00  0.00     0.036 A 
ENDBRANCH   7   9
ENDBRANCH   5   7
ENDBRANCH   1   5
BRANCH   3  16
ATOM     16  C   UNL d   1      29.092 -15.556  -4.809  0.00  0.00     0.046 A 
ATOM     17  C   UNL d   1      29.854 -16.610  -4.249  0.00  0.00    -0.035 A 
ATOM     18  C   UNL d   1      29.651 -17.134  -2.850  0.00  0.00     0.050 C 
ATOM     19  C   UNL d   1      30.844 -17.236  -5.025  0.00  0.00     0.009 A 
ATOM     20  C   UNL d   1      31.074 -16.846  -6.339  0.00  0.00     0.001 A 
ATOM     21  C   UNL d   1      30.305 -15.830  -6.901  0.00  0.00     0.009 A 
ATOM     22  C   UNL d   1      29.297 -15.187  -6.156  0.00  0.00    -0.035 A 
ATOM     23  C   UNL d   1      28.530 -14.070  -6.803  0.00  0.00     0.050 C 
ENDBRANCH   3  16
TORSDOF 4
ENDMDL
MODEL 5
REMARK VINA RESULT:    -6.589      4.384      6.847
REMARK INTER + INTRA:          -9.009
REMARK INTER:                  -7.782
REMARK INTRA:                  -1.227
REMARK CONF_INDEPENDENT:        1.193
REMARK UNBOUND:                -1.227
REMARK  4 active torsions:
REMARK  status: ('A' for Active; 'I' for Inactive)
REMARK    1  A    between atoms: C_6  and  N_7 
REMARK    2  A    between atoms: C_8  and  N_7 
REMARK    3  A    between atoms: C_8  and  C_10 
REMARK       I    between atoms: C_10  and  N_12 
REMARK    4  A    between atoms: N_12  and  C_13 
ROOT
ATOM      1  C   UNL d   1      26.608 -14.519  -4.618  0.00  0.00     0.244 C 
ATOM      2  O   UNL d   1      26.513 -15.351  -5.515  0.00  0.00    -0.271 OA
ATOM      3  N   UNL d   1      27.296 -13.317  -4.779  0.00  0.00    -0.324 N 
ATOM      4  H   UNL d   1      27.698 -12.886  -3.960  0.00  0.00     0.169 HD
ENDROOT
BRANCH   1   5
ATOM      5  C   UNL d   1      25.929 -14.749  -3.244  0.00  0.00     0.170 C 
ATOM      6  C   UNL d   1      24.775 -13.736  -3.250  0.00  0.00     0.042 C 
BRANCH   5   7
ATOM      7  N   UNL d   1      25.533 -16.169  -3.092  0.00  0.00    -0.377 N 
ATOM      8  H   UNL d   1      25.425 -16.690  -3.955  0.00  0.00     0.160 HD
BRANCH   7   9
ATOM      9  C   UNL d   1      25.288 -16.874  -1.924  0.00  0.00     0.029 A 
ATOM     10  C   UNL d   1      26.246 -17.128  -0.940  0.00  0.00     0.029 A 
ATOM     11  C   UNL d   1      25.985 -17.731   0.283  0.00  0.00     0.003 A 
ATOM     12  C   UNL d   1      24.722 -18.200   0.537  0.00  0.00     0.007 A 
ATOM     13  C   UNL d   1      23.727 -18.036  -0.428  0.00  0.00    -0.060 A 
ATOM     14  C   UNL d   1      22.363 -18.578  -0.147  0.00  0.00     0.048 C 
ATOM     15  C   UNL d   1      24.007 -17.364  -1.643  0.00  0.00     0.036 A 
ENDBRANCH   7   9
ENDBRANCH   5   7
ENDBRANCH   1   5
BRANCH   3  16
ATOM     16  C   UNL d   1      27.824 -12.975  -6.056  0.00  0.00     0.046 A 
ATOM     17  C   UNL d   1      28.904 -13.707  -6.605  0.00  0.00    -0.035 A 
ATOM     18  C   UNL d   1      29.504 -14.926  -5.953  0.00  0.00     0.050 C 
ATOM     19  C   UNL d   1      29.452 -13.311  -7.837  0.00  0.00     0.009 A 
ATOM     20  C   UNL d   1      28.936 -12.222  -8.531  0.00  0.00     0.001 A 
ATOM     21  C   UNL d   1      27.855 -11.520  -8.006  0.00  0.00     0.009 A 
ATOM     22  C   UNL d   1      27.274 -11.894  -6.778  0.00  0.00    -0.035 A 
ATOM     23  C   UNL d   1      26.137 -11.073  -6.244  0.00  0.00     0.050 C 
ENDBRANCH   3  16
TORSDOF 4
ENDMDL
MODEL 6
REMARK VINA RESULT:    -6.307      3.896      8.324
REMARK INTER + INTRA:          -8.603
REMARK INTER:                  -7.500
REMARK INTRA:                  -1.102
REMARK CONF_INDEPENDENT:        1.193
REMARK UNBOUND:                -1.102
REMARK  4 active torsions:
REMARK  status: ('A' for Active; 'I' for Inactive)
REMARK    1  A    between atoms: C_6  and  N_7 
REMARK    2  A    between atoms: C_8  and  N_7 
REMARK    3  A    between atoms: C_8  and  C_10 
REMARK       I    between atoms: C_10  and  N_12 
REMARK    4  A    between atoms: N_12  and  C_13 
ROOT
ATOM      1  C   UNL d   1      25.414 -14.413  -2.698  0.00  0.00     0.244 C 
ATOM      2  O   UNL d   1      25.156 -15.324  -3.480  0.00  0.00    -0.271 OA
ATOM      3  N   UNL d   1      25.739 -14.639  -1.363  0.00  0.00    -0.324 N 
ATOM      4  H   UNL d   1      25.534 -13.912  -0.693  0.00  0.00     0.169 HD
ENDROOT
BRANCH   1   5
ATOM      5  C   UNL d   1      25.425 -12.937  -3.173  0.00  0.00     0.170 C 
ATOM      6  C   UNL d   1      26.552 -12.310  -2.343  0.00  0.00     0.042 C 
BRANCH   5   7
ATOM      7  N   UNL d   1      25.597 -12.867  -4.644  0.00  0.00    -0.377 N 
ATOM      8  H   UNL d   1      24.780 -12.575  -5.169  0.00  0.00     0.160 HD
BRANCH   7   9
ATOM      9  C   UNL d   1      26.728 -13.151  -5.393  0.00  0.00     0.029 A 
ATOM     10  C   UNL d   1      27.295 -12.282  -6.327  0.00  0.00     0.029 A 
ATOM     11  C   UNL d   1      28.490 -12.507  -6.997  0.00  0.00     0.003 A 
ATOM     12  C   UNL d   1      29.140 -13.700  -6.813  0.00  0.00     0.007 A 
ATOM     13  C   UNL d   1      28.598 -14.644  -5.939  0.00  0.00    -0.060 A 
ATOM     14  C   UNL d   1      29.305 -15.950  -5.772  0.00  0.00     0.048 C 
ATOM     15  C   UNL d   1      27.409 -14.363  -5.224  0.00  0.00     0.036 A 
ENDBRANCH   7   9
ENDBRANCH   5   7
ENDBRANCH   1   5
BRANCH   3  16
ATOM     16  C   UNL d   1      25.887 -15.975  -0.892  0.00  0.00     0.046 A 
ATOM     17  C   UNL d   1      24.748 -16.772  -0.624  0.00  0.00    -0.035 A 
ATOM     18  C   UNL d   1      23.334 -16.325  -0.896  0.00  0.00     0.050 C 
ATOM     19  C   UNL d   1      24.917 -18.064  -0.098  0.00  0.00     0.009 A 
ATOM     20  C   UNL d   1      26.186 -18.575   0.147  0.00  0.00     0.001 A 
ATOM     21  C   UNL d   1      27.308 -17.804  -0.144  0.00  0.00     0.009 A 
ATOM     22  C   UNL d   1      27.177 -16.508  -0.681  0.00  0.00    -0.035 A 
ATOM     23  C   UNL d   1      28.423 -15.709  -0.935  0.00  0.00     0.050 C 
ENDBRANCH   3  16
TORSDOF 4
ENDMDL
MODEL 7
REMARK VINA RESULT:    -6.009      4.040      6.488
REMARK INTER + INTRA:          -8.482
REMARK INTER:                  -7.202
REMARK INTRA:                  -1.280
REMARK CONF_INDEPENDENT:        1.193
REMARK UNBOUND:                -1.280
REMARK  4 active torsions:
REMARK  status: ('A' for Active; 'I' for Inactive)
REMARK    1  A    between atoms: C_6  and  N_7 
REMARK    2  A    between atoms: C_8  and  N_7 
REMARK    3  A    between atoms: C_8  and  C_10 
REMARK       I    between atoms: C_10  and  N_12 
REMARK    4  A    between atoms: N_12  and  C_13 
ROOT
ATOM      1  C   UNL d   1      26.171 -14.057  -4.075  0.00  0.00     0.244 C 
ATOM      2  O   UNL d   1      25.175 -14.114  -4.790  0.00  0.00    -0.271 OA
ATOM      3  N   UNL d   1      27.353 -13.443  -4.483  0.00  0.00    -0.324 N 
ATOM      4  H   UNL d   1      28.221 -13.767  -4.082  0.00  0.00     0.169 HD
ENDROOT
BRANCH   1   5
ATOM      5  C   UNL d   1      26.155 -14.646  -2.641  0.00  0.00     0.170 C 
ATOM      6  C   UNL d   1      26.327 -13.407  -1.751  0.00  0.00     0.042 C 
BRANCH   5   7
ATOM      7  N   UNL d   1      24.918 -15.429  -2.415  0.00  0.00    -0.377 N 
ATOM      8  H   UNL d   1      24.141 -15.212  -3.030  0.00  0.00     0.160 HD
BRANCH   7   9
ATOM      9  C   UNL d   1      24.684 -16.416  -1.470  0.00  0.00     0.029 A 
ATOM     10  C   UNL d   1      23.431 -16.977  -1.209  0.00  0.00     0.029 A 
ATOM     11  C   UNL d   1      23.205 -18.043  -0.350  0.00  0.00     0.003 A 
ATOM     12  C   UNL d   1      24.253 -18.549   0.375  0.00  0.00     0.007 A 
ATOM     13  C   UNL d   1      25.524 -17.995   0.211  0.00  0.00    -0.060 A 
ATOM     14  C   UNL d   1      26.650 -18.538   1.028  0.00  0.00     0.048 C 
ATOM     15  C   UNL d   1      25.738 -16.947  -0.717  0.00  0.00     0.036 A 
ENDBRANCH   7   9
ENDBRANCH   5   7
ENDBRANCH   1   5
BRANCH   3  16
ATOM     16  C   UNL d   1      27.395 -12.756  -5.730  0.00  0.00     0.046 A 
ATOM     17  C   UNL d   1      26.671 -11.554  -5.911  0.00  0.00    -0.035 A 
ATOM     18  C   UNL d   1      25.899 -10.870  -4.811  0.00  0.00     0.050 C 
ATOM     19  C   UNL d   1      26.674 -10.928  -7.170  0.00  0.00     0.009 A 
ATOM     20  C   UNL d   1      27.391 -11.465  -8.232  0.00  0.00     0.001 A 
ATOM     21  C   UNL d   1      28.128 -12.632  -8.047  0.00  0.00     0.009 A 
ATOM     22  C   UNL d   1      28.156 -13.281  -6.796  0.00  0.00    -0.035 A 
ATOM     23  C   UNL d   1      28.935 -14.558  -6.670  0.00  0.00     0.050 C 
ENDBRANCH   3  16
TORSDOF 4
ENDMDL
MODEL 8
REMARK VINA RESULT:    -5.968      3.773      8.156
REMARK INTER + INTRA:          -8.470
REMARK INTER:                  -7.161
REMARK INTRA:                  -1.309
REMARK CONF_INDEPENDENT:        1.193
REMARK UNBOUND:                -1.309
REMARK  4 active torsions:
REMARK  status: ('A' for Active; 'I' for Inactive)
REMARK    1  A    between atoms: C_6  and  N_7 
REMARK    2  A    between atoms: C_8  and  N_7 
REMARK    3  A    between atoms: C_8  and  C_10 
REMARK       I    between atoms: C_10  and  N_12 
REMARK    4  A    between atoms: N_12  and  C_13 
ROOT
ATOM      1  C   UNL d   1      25.722 -14.207  -2.331  0.00  0.00     0.244 C 
ATOM      2  O   UNL d   1      26.275 -13.753  -1.334  0.00  0.00    -0.271 OA
ATOM      3  N   UNL d   1      25.470 -15.567  -2.496  0.00  0.00    -0.324 N 
ATOM      4  H   UNL d   1      25.416 -15.931  -3.436  0.00  0.00     0.169 HD
ENDROOT
BRANCH   1   5
ATOM      5  C   UNL d   1      25.235 -13.270  -3.466  0.00  0.00     0.170 C 
ATOM      6  C   UNL d   1      25.875 -11.923  -3.108  0.00  0.00     0.042 C 
BRANCH   5   7
ATOM      7  N   UNL d   1      25.605 -13.823  -4.791  0.00  0.00    -0.377 N 
ATOM      8  H   UNL d   1      24.830 -14.079  -5.393  0.00  0.00     0.160 HD
BRANCH   7   9
ATOM      9  C   UNL d   1      26.872 -14.040  -5.310  0.00  0.00     0.029 A 
ATOM     10  C   UNL d   1      27.544 -13.147  -6.147  0.00  0.00     0.029 A 
ATOM     11  C   UNL d   1      28.854 -13.299  -6.579  0.00  0.00     0.003 A 
ATOM     12  C   UNL d   1      29.537 -14.440  -6.244  0.00  0.00     0.007 A 
ATOM     13  C   UNL d   1      28.905 -15.407  -5.460  0.00  0.00    -0.060 A 
ATOM     14  C   UNL d   1      29.652 -16.657  -5.128  0.00  0.00     0.048 C 
ATOM     15  C   UNL d   1      27.587 -15.198  -4.984  0.00  0.00     0.036 A 
ENDBRANCH   7   9
ENDBRANCH   5   7
ENDBRANCH   1   5
BRANCH   3  16
ATOM     16  C   UNL d   1      25.761 -16.470  -1.434  0.00  0.00     0.046 A 
ATOM     17  C   UNL d   1      27.099 -16.831  -1.145  0.00  0.00    -0.035 A 
ATOM     18  C   UNL d   1      28.294 -16.239  -1.850  0.00  0.00     0.050 C 
ATOM     19  C   UNL d   1      27.359 -17.773  -0.136  0.00  0.00     0.009 A 
ATOM     20  C   UNL d   1      26.322 -18.342   0.594  0.00  0.00     0.001 A 
ATOM     21  C   UNL d   1      25.007 -17.965   0.332  0.00  0.00     0.009 A 
ATOM     22  C   UNL d   1      24.710 -17.016  -0.666  0.00  0.00    -0.035 A 
ATOM     23  C   UNL d   1      23.271 -16.682  -0.931  0.00  0.00     0.050 C 
ENDBRANCH   3  16
TORSDOF 4
ENDMDL
MODEL 9
REMARK VINA RESULT:    -5.921      4.338      6.795
REMARK INTER + INTRA:          -8.479
REMARK INTER:                  -7.114
REMARK INTRA:                  -1.365
REMARK CONF_INDEPENDENT:        1.193
REMARK UNBOUND:                -1.365
REMARK  4 active torsions:
REMARK  status: ('A' for Active; 'I' for Inactive)
REMARK    1  A    between atoms: C_6  and  N_7 
REMARK    2  A    between atoms: C_8  and  N_7 
REMARK    3  A    between atoms: C_8  and  C_10 
REMARK       I    between atoms: C_10  and  N_12 
REMARK    4  A    between atoms: N_12  and  C_13 
ROOT
ATOM      1  C   UNL d   1      26.045 -12.922  -3.605  0.00  0.00     0.244 C 
ATOM      2  O   UNL d   1      26.951 -12.514  -2.884  0.00  0.00    -0.271 OA
ATOM      3  N   UNL d   1      25.676 -12.277  -4.784  0.00  0.00    -0.324 N 
ATOM      4  H   UNL d   1      24.723 -12.375  -5.102  0.00  0.00     0.169 HD
ENDROOT
BRANCH   1   5
ATOM      5  C   UNL d   1      25.272 -14.218  -3.253  0.00  0.00     0.170 C 
ATOM      6  C   UNL d   1      25.541 -15.125  -4.462  0.00  0.00     0.042 C 
BRANCH   5   7
ATOM      7  N   UNL d   1      25.717 -14.749  -1.943  0.00  0.00    -0.377 N 
ATOM      8  H   UNL d   1      26.374 -14.168  -1.433  0.00  0.00     0.160 HD
BRANCH   7   9
ATOM      9  C   UNL d   1      25.356 -15.938  -1.328  0.00  0.00     0.029 A 
ATOM     10  C   UNL d   1      26.243 -16.772  -0.644  0.00  0.00     0.029 A 
ATOM     11  C   UNL d   1      25.874 -17.902   0.073  0.00  0.00     0.003 A 
ATOM     12  C   UNL d   1      24.562 -18.302   0.056  0.00  0.00     0.007 A 
ATOM     13  C   UNL d   1      23.630 -17.549  -0.660  0.00  0.00    -0.060 A 
ATOM     14  C   UNL d   1      22.210 -18.014  -0.692  0.00  0.00     0.048 C 
ATOM     15  C   UNL d   1      24.024 -16.367  -1.333  0.00  0.00     0.036 A 
ENDBRANCH   7   9
ENDBRANCH   5   7
ENDBRANCH   1   5
BRANCH   3  16
ATOM     16  C   UNL d   1      26.434 -11.162  -5.243  0.00  0.00     0.046 A 
ATOM     17  C   UNL d   1      26.165  -9.862  -4.754  0.00  0.00    -0.035 A 
ATOM     18  C   UNL d   1      25.155  -9.568  -3.674  0.00  0.00     0.050 C 
ATOM     19  C   UNL d   1      26.882  -8.768  -5.268  0.00  0.00     0.009 A 
ATOM     20  C   UNL d   1      27.861  -8.948  -6.238  0.00  0.00     0.001 A 
ATOM     21  C   UNL d   1      28.147 -10.230  -6.699  0.00  0.00     0.009 A 
ATOM     22  C   UNL d   1      27.456 -11.352  -6.198  0.00  0.00    -0.035 A 
ATOM     23  C   UNL d   1      27.780 -12.704  -6.763  0.00  0.00     0.050 C 
ENDBRANCH   3  16
TORSDOF 4
ENDMDL
