MODEL 1
REMARK VINA RESULT:    -8.036      0.000      0.000
REMARK INTER + INTRA:         -12.466
REMARK INTER:                 -10.423
REMARK INTRA:                  -2.043
REMARK CONF_INDEPENDENT:        2.386
REMARK UNBOUND:                -2.043
REMARK  8 active torsions:
REMARK  status: ('A' for Active; 'I' for Inactive)
REMARK    1  A    between atoms: C_2  and  C_3 
REMARK       I    between atoms: C_3  and  N_5 
REMARK    2  A    between atoms: N_5  and  C_6 
REMARK    3  A    between atoms: C_9  and  N_10 
REMARK       I    between atoms: N_10  and  C_11 
REMARK       I    between atoms: C_11  and  N_13 
REMARK    4  A    between atoms: N_13  and  C_14 
REMARK    5  A    between atoms: C_15  and  C_14 
REMARK    6  A    between atoms: C_15  and  O_17 
REMARK    7  A    between atoms: C_15  and  C_18 
REMARK    8  A    between atoms: C_18  and  O_19 
ROOT
ATOM      1  N   UNL d   1      25.717 -16.100  -1.456  0.00  0.00    -0.309 N 
ATOM      2  C   UNL d   1      25.770 -15.334  -2.609  0.00  0.00     0.320 C 
ATOM      3  O   UNL d   1      24.850 -15.183  -3.419  0.00  0.00    -0.247 OA
ATOM      4  N   UNL d   1      26.951 -14.686  -2.855  0.00  0.00    -0.340 N 
ATOM      5  H   UNL d   1      26.562 -16.178  -0.906  0.00  0.00     0.170 HD
ATOM      6  H   UNL d   1      27.788 -14.782  -2.298  0.00  0.00     0.164 HD
ENDROOT
BRANCH   1   7
ATOM      7  C   UNL d   1      24.581 -16.877  -1.054  0.00  0.00     0.036 A 
ATOM      8  C   UNL d   1      23.282 -16.341  -1.022  0.00  0.00     0.032 A 
ATOM      9  C   UNL d   1      22.188 -17.105  -0.520  0.00  0.00     0.032 A 
ATOM     10  C   UNL d   1      22.379 -18.414  -0.067  0.00  0.00     0.034 A 
ATOM     11  C   UNL d   1      23.655 -18.949  -0.145  0.00  0.00     0.032 A 
ATOM     12  C   UNL d   1      24.719 -18.203  -0.642  0.00  0.00     0.032 A 
BRANCH  10  13
ATOM     13  N   UNL d   1      21.313 -19.215   0.416  0.00  0.00    -0.327 N 
ATOM     14  C   UNL d   1      20.319 -19.701  -0.431  0.00  0.00     0.221 C 
ATOM     15  O   UNL d   1      20.329 -19.560  -1.654  0.00  0.00    -0.273 OA
ATOM     16  H   UNL d   1      21.351 -19.531   1.375  0.00  0.00     0.169 HD
BRANCH  14  17
ATOM     17  C   UNL d   1      19.205 -20.488   0.243  0.00  0.00     0.098 C 
ATOM     18  C   UNL d   1      19.125 -20.109   1.723  0.00  0.00     0.014 C 
ENDBRANCH  14  17
ENDBRANCH  10  13
ENDBRANCH   1   7
BRANCH   4  19
ATOM     19  C   UNL d   1      27.051 -13.871  -4.068  0.00  0.00     0.164 C 
BRANCH  19  20
ATOM     20  C   UNL d   1      27.665 -14.588  -5.290  0.00  0.00     0.091 C 
ATOM     21  C   UNL d   1      27.916 -13.599  -6.437  0.00  0.00     0.050 C 
BRANCH  20  22
ATOM     22  O   UNL d   1      26.729 -15.574  -5.770  0.00  0.00    -0.386 OA
ATOM     23  H   UNL d   1      26.098 -15.753  -5.053  0.00  0.00     0.210 HD
ENDBRANCH  20  22
BRANCH  20  24
ATOM     24  C   UNL d   1      29.011 -15.243  -4.916  0.00  0.00     0.206 C 
BRANCH  24  25
ATOM     25  O   UNL d   1      28.866 -16.046  -3.745  0.00  0.00    -0.393 OA
ATOM     26  C   UNL d   1      30.062 -16.064  -2.983  0.00  0.00     0.201 C 
ENDBRANCH  24  25
ENDBRANCH  20  24
ENDBRANCH  19  20
ENDBRANCH   4  19
TORSDOF 8
ENDMDL
MODEL 2
REMARK VINA RESULT:    -7.871      0.620      1.187
REMARK INTER + INTRA:         -12.367
REMARK INTER:                 -10.258
REMARK INTRA:                  -2.109
REMARK CONF_INDEPENDENT:        2.386
REMARK UNBOUND:                -2.109
REMARK  8 active torsions:
REMARK  status: ('A' for Active; 'I' for Inactive)
REMARK    1  A    between atoms: C_2  and  C_3 
REMARK       I    between atoms: C_3  and  N_5 
REMARK    2  A    between atoms: N_5  and  C_6 
REMARK    3  A    between atoms: C_9  and  N_10 
REMARK       I    between atoms: N_10  and  C_11 
REMARK       I    between atoms: C_11  and  N_13 
REMARK    4  A    between atoms: N_13  and  C_14 
REMARK    5  A    between atoms: C_15  and  C_14 
REMARK    6  A    between atoms: C_15  and  O_17 
REMARK    7  A    between atoms: C_15  and  C_18 
REMARK    8  A    between atoms: C_18  and  O_19 
ROOT
ATOM      1  N   UNL d   1      25.912 -15.474  -1.472  0.00  0.00    -0.309 N 
ATOM      2  C   UNL d   1      25.993 -14.971  -2.760  0.00  0.00     0.320 C 
ATOM      3  O   UNL d   1      25.221 -15.231  -3.688  0.00  0.00    -0.247 OA
ATOM      4  N   UNL d   1      27.022 -14.103  -3.010  0.00  0.00    -0.340 N 
ATOM      5  H   UNL d   1      26.642 -15.217  -0.822  0.00  0.00     0.170 HD
ATOM      6  H   UNL d   1      27.748 -13.863  -2.349  0.00  0.00     0.164 HD
ENDROOT
BRANCH   1   7
ATOM      7  C   UNL d   1      24.927 -16.421  -1.036  0.00  0.00     0.036 A 
ATOM      8  C   UNL d   1      25.265 -17.733  -0.664  0.00  0.00     0.032 A 
ATOM      9  C   UNL d   1      24.255 -18.683  -0.334  0.00  0.00     0.032 A 
ATOM     10  C   UNL d   1      22.903 -18.324  -0.352  0.00  0.00     0.034 A 
ATOM     11  C   UNL d   1      22.583 -17.015  -0.675  0.00  0.00     0.032 A 
ATOM     12  C   UNL d   1      23.573 -16.088  -0.990  0.00  0.00     0.032 A 
BRANCH  10  13
ATOM     13  N   UNL d   1      21.870 -19.232  -0.006  0.00  0.00    -0.327 N 
ATOM     14  C   UNL d   1      20.565 -19.067  -0.465  0.00  0.00     0.221 C 
ATOM     15  O   UNL d   1      20.223 -18.195  -1.264  0.00  0.00    -0.273 OA
ATOM     16  H   UNL d   1      22.124 -20.077   0.487  0.00  0.00     0.169 HD
BRANCH  14  17
ATOM     17  C   UNL d   1      19.554 -20.083   0.045  0.00  0.00     0.098 C 
ATOM     18  C   UNL d   1      19.550 -20.088   1.575  0.00  0.00     0.014 C 
ENDBRANCH  14  17
ENDBRANCH  10  13
ENDBRANCH   1   7
BRANCH   4  19
ATOM     19  C   UNL d   1      27.149 -13.553  -4.362  0.00  0.00     0.164 C 
BRANCH  19  20
ATOM     20  C   UNL d   1      27.766 -14.512  -5.404  0.00  0.00     0.091 C 
ATOM     21  C   UNL d   1      28.155 -13.755  -6.682  0.00  0.00     0.050 C 
BRANCH  20  22
ATOM     22  O   UNL d   1      26.779 -15.497  -5.771  0.00  0.00    -0.386 OA
ATOM     23  H   UNL d   1      26.681 -16.107  -5.022  0.00  0.00     0.210 HD
ENDBRANCH  20  22
BRANCH  20  24
ATOM     24  C   UNL d   1      29.033 -15.186  -4.838  0.00  0.00     0.206 C 
BRANCH  24  25
ATOM     25  O   UNL d   1      28.683 -16.324  -4.052  0.00  0.00    -0.393 OA
ATOM     26  C   UNL d   1      29.836 -16.958  -3.523  0.00  0.00     0.201 C 
ENDBRANCH  24  25
ENDBRANCH  20  24
ENDBRANCH  19  20
ENDBRANCH   4  19
TORSDOF 8
ENDMDL
MODEL 3
REMARK VINA RESULT:    -7.865      1.733      2.947
REMARK INTER + INTRA:         -11.829
REMARK INTER:                 -10.252
REMARK INTRA:                  -1.578
REMARK CONF_INDEPENDENT:        2.386
REMARK UNBOUND:                -1.578
REMARK  8 active torsions:
REMARK  status: ('A' for Active; 'I' for Inactive)
REMARK    1  A    between atoms: C_2  and  C_3 
REMARK       I    between atoms: C_3  and  N_5 
REMARK    2  A    between atoms: N_5  and  C_6 
REMARK    3  A    between atoms: C_9  and  N_10 
REMARK       I    between atoms: N_10  and  C_11 
REMARK       I    between atoms: C_11  and  N_13 
REMARK    4  A    between atoms: N_13  and  C_14 
REMARK    5  A    between atoms: C_15  and  C_14 
REMARK    6  A    between atoms: C_15  and  O_17 
REMARK    7  A    between atoms: C_15  and  C_18 
REMARK    8  A    between atoms: C_18  and  O_19 
ROOT
ATOM      1  N   UNL d   1      25.946 -16.066  -1.658  0.00  0.00    -0.309 N 
ATOM      2  C   UNL d   1      25.850 -15.332  -2.829  0.00  0.00     0.320 C 
ATOM      3  O   UNL d   1      24.834 -15.200  -3.518  0.00  0.00    -0.247 OA
ATOM      4  N   UNL d   1      26.989 -14.694  -3.242  0.00  0.00    -0.340 N 
ATOM      5  H   UNL d   1      26.855 -16.131  -1.220  0.00  0.00     0.170 HD
ATOM      6  H   UNL d   1      27.891 -14.777  -2.794  0.00  0.00     0.164 HD
ENDROOT
BRANCH   1   7
ATOM      7  C   UNL d   1      24.872 -16.829  -1.093  0.00  0.00     0.036 A 
ATOM      8  C   UNL d   1      25.056 -18.134  -0.605  0.00  0.00     0.032 A 
ATOM      9  C   UNL d   1      23.951 -18.907  -0.145  0.00  0.00     0.032 A 
ATOM     10  C   UNL d   1      22.657 -18.375  -0.147  0.00  0.00     0.034 A 
ATOM     11  C   UNL d   1      22.492 -17.071  -0.588  0.00  0.00     0.032 A 
ATOM     12  C   UNL d   1      23.575 -16.318  -1.030  0.00  0.00     0.032 A 
BRANCH  10  13
ATOM     13  N   UNL d   1      21.535 -19.102   0.326  0.00  0.00    -0.327 N 
ATOM     14  C   UNL d   1      20.535 -19.549  -0.535  0.00  0.00     0.221 C 
ATOM     15  O   UNL d   1      20.582 -19.435  -1.760  0.00  0.00    -0.273 OA
ATOM     16  H   UNL d   1      21.533 -19.398   1.292  0.00  0.00     0.169 HD
BRANCH  14  17
ATOM     17  C   UNL d   1      19.362 -20.255   0.128  0.00  0.00     0.098 C 
ATOM     18  C   UNL d   1      19.357 -19.956   1.628  0.00  0.00     0.014 C 
ENDBRANCH  14  17
ENDBRANCH  10  13
ENDBRANCH   1   7
BRANCH   4  19
ATOM     19  C   UNL d   1      26.932 -13.912  -4.479  0.00  0.00     0.164 C 
BRANCH  19  20
ATOM     20  C   UNL d   1      26.535 -12.431  -4.301  0.00  0.00     0.091 C 
ATOM     21  C   UNL d   1      27.368 -11.770  -3.193  0.00  0.00     0.050 C 
BRANCH  20  22
ATOM     22  O   UNL d   1      25.153 -12.365  -3.896  0.00  0.00    -0.386 OA
ATOM     23  H   UNL d   1      24.652 -11.964  -4.626  0.00  0.00     0.210 HD
ENDBRANCH  20  22
BRANCH  20  24
ATOM     24  C   UNL d   1      26.764 -11.646  -5.609  0.00  0.00     0.206 C 
BRANCH  24  25
ATOM     25  O   UNL d   1      25.532 -11.113  -6.092  0.00  0.00    -0.393 OA
ATOM     26  C   UNL d   1      25.477  -9.705  -5.919  0.00  0.00     0.201 C 
ENDBRANCH  24  25
ENDBRANCH  20  24
ENDBRANCH  19  20
ENDBRANCH   4  19
TORSDOF 8
ENDMDL
MODEL 4
REMARK VINA RESULT:    -6.972      2.435      3.319
REMARK INTER + INTRA:         -11.374
REMARK INTER:                  -9.358
REMARK INTRA:                  -2.016
REMARK CONF_INDEPENDENT:        2.386
REMARK UNBOUND:                -2.016
REMARK  8 active torsions:
REMARK  status: ('A' for Active; 'I' for Inactive)
REMARK    1  A    between atoms: C_2  and  C_3 
REMARK       I    between atoms: C_3  and  N_5 
REMARK    2  A    between atoms: N_5  and  C_6 
REMARK    3  A    between atoms: C_9  and  N_10 
REMARK       I    between atoms: N_10  and  C_11 
REMARK       I    between atoms: C_11  and  N_13 
REMARK    4  A    between atoms: N_13  and  C_14 
REMARK    5  A    between atoms: C_15  and  C_14 
REMARK    6  A    between atoms: C_15  and  O_17 
REMARK    7  A    between atoms: C_15  and  C_18 
REMARK    8  A    between atoms: C_18  and  O_19 
ROOT
ATOM      1  N   UNL d   1      25.445 -15.233  -1.795  0.00  0.00    -0.309 N 
ATOM      2  C   UNL d   1      25.096 -14.427  -2.866  0.00  0.00     0.320 C 
ATOM      3  O   UNL d   1      24.017 -14.450  -3.467  0.00  0.00    -0.247 OA
ATOM      4  N   UNL d   1      26.037 -13.523  -3.279  0.00  0.00    -0.340 N 
ATOM      5  H   UNL d   1      26.382 -15.145  -1.428  0.00  0.00     0.170 HD
ATOM      6  H   UNL d   1      26.973 -13.453  -2.904  0.00  0.00     0.164 HD
ENDROOT
BRANCH   1   7
ATOM      7  C   UNL d   1      24.605 -16.260  -1.250  0.00  0.00     0.036 A 
ATOM      8  C   UNL d   1      25.087 -17.549  -0.966  0.00  0.00     0.032 A 
ATOM      9  C   UNL d   1      24.208 -18.579  -0.523  0.00  0.00     0.032 A 
ATOM     10  C   UNL d   1      22.845 -18.324  -0.339  0.00  0.00     0.034 A 
ATOM     11  C   UNL d   1      22.386 -17.038  -0.579  0.00  0.00     0.032 A 
ATOM     12  C   UNL d   1      23.250 -16.034  -1.005  0.00  0.00     0.032 A 
BRANCH  10  13
ATOM     13  N   UNL d   1      21.941 -19.314   0.123  0.00  0.00    -0.327 N 
ATOM     14  C   UNL d   1      20.579 -19.256  -0.163  0.00  0.00     0.221 C 
ATOM     15  O   UNL d   1      20.068 -18.413  -0.901  0.00  0.00    -0.273 OA
ATOM     16  H   UNL d   1      22.324 -20.137   0.569  0.00  0.00     0.169 HD
BRANCH  14  17
ATOM     17  C   UNL d   1      19.727 -20.352   0.459  0.00  0.00     0.098 C 
ATOM     18  C   UNL d   1      19.528 -20.072   1.949  0.00  0.00     0.014 C 
ENDBRANCH  14  17
ENDBRANCH  10  13
ENDBRANCH   1   7
BRANCH   4  19
ATOM     19  C   UNL d   1      25.711 -12.655  -4.413  0.00  0.00     0.164 C 
BRANCH  19  20
ATOM     20  C   UNL d   1      26.567 -11.375  -4.526  0.00  0.00     0.091 C 
ATOM     21  C   UNL d   1      27.156 -11.232  -5.936  0.00  0.00     0.050 C 
BRANCH  20  22
ATOM     22  O   UNL d   1      27.673 -11.473  -3.606  0.00  0.00    -0.386 OA
ATOM     23  H   UNL d   1      27.748 -10.620  -3.146  0.00  0.00     0.210 HD
ENDBRANCH  20  22
BRANCH  20  24
ATOM     24  C   UNL d   1      25.715 -10.124  -4.231  0.00  0.00     0.206 C 
BRANCH  24  25
ATOM     25  O   UNL d   1      25.871  -9.723  -2.871  0.00  0.00    -0.393 OA
ATOM     26  C   UNL d   1      25.905  -8.310  -2.751  0.00  0.00     0.201 C 
ENDBRANCH  24  25
ENDBRANCH  20  24
ENDBRANCH  19  20
ENDBRANCH   4  19
TORSDOF 8
ENDMDL
MODEL 5
REMARK VINA RESULT:    -6.846      1.302      2.254
REMARK INTER + INTRA:         -10.917
REMARK INTER:                  -9.233
REMARK INTRA:                  -1.685
REMARK CONF_INDEPENDENT:        2.386
REMARK UNBOUND:                -1.685
REMARK  8 active torsions:
REMARK  status: ('A' for Active; 'I' for Inactive)
REMARK    1  A    between atoms: C_2  and  C_3 
REMARK       I    between atoms: C_3  and  N_5 
REMARK    2  A    between atoms: N_5  and  C_6 
REMARK    3  A    between atoms: C_9  and  N_10 
REMARK       I    between atoms: N_10  and  C_11 
REMARK       I    between atoms: C_11  and  N_13 
REMARK    4  A    between atoms: N_13  and  C_14 
REMARK    5  A    between atoms: C_15  and  C_14 
REMARK    6  A    between atoms: C_15  and  O_17 
REMARK    7  A    between atoms: C_15  and  C_18 
REMARK    8  A    between atoms: C_18  and  O_19 
ROOT
ATOM      1  N   UNL d   1      25.410 -15.898  -1.756  0.00  0.00    -0.309 N 
ATOM      2  C   UNL d   1      26.760 -16.196  -1.855  0.00  0.00     0.320 C 
ATOM      3  O   UNL d   1      27.297 -17.246  -1.489  0.00  0.00    -0.247 OA
ATOM      4  N   UNL d   1      27.555 -15.234  -2.417  0.00  0.00    -0.340 N 
ATOM      5  H   UNL d   1      25.111 -14.978  -2.049  0.00  0.00     0.170 HD
ATOM      6  H   UNL d   1      27.239 -14.316  -2.698  0.00  0.00     0.164 HD
ENDROOT
BRANCH   1   7
ATOM      7  C   UNL d   1      24.433 -16.765  -1.163  0.00  0.00     0.036 A 
ATOM      8  C   UNL d   1      24.743 -18.073  -0.755  0.00  0.00     0.032 A 
ATOM      9  C   UNL d   1      23.730 -18.946  -0.265  0.00  0.00     0.032 A 
ATOM     10  C   UNL d   1      22.404 -18.513  -0.157  0.00  0.00     0.034 A 
ATOM     11  C   UNL d   1      22.116 -17.207  -0.519  0.00  0.00     0.032 A 
ATOM     12  C   UNL d   1      23.111 -16.355  -0.991  0.00  0.00     0.032 A 
BRANCH  10  13
ATOM     13  N   UNL d   1      21.371 -19.343   0.349  0.00  0.00    -0.327 N 
ATOM     14  C   UNL d   1      20.355 -19.830  -0.469  0.00  0.00     0.221 C 
ATOM     15  O   UNL d   1      20.316 -19.664  -1.689  0.00  0.00    -0.273 OA
ATOM     16  H   UNL d   1      21.452 -19.677   1.300  0.00  0.00     0.169 HD
BRANCH  14  17
ATOM     17  C   UNL d   1      19.282 -20.651   0.231  0.00  0.00     0.098 C 
ATOM     18  C   UNL d   1      19.196 -20.245   1.703  0.00  0.00     0.014 C 
ENDBRANCH  14  17
ENDBRANCH  10  13
ENDBRANCH   1   7
BRANCH   4  19
ATOM     19  C   UNL d   1      28.990 -15.506  -2.534  0.00  0.00     0.164 C 
BRANCH  19  20
ATOM     20  C   UNL d   1      29.608 -15.180  -3.911  0.00  0.00     0.091 C 
ATOM     21  C   UNL d   1      31.113 -15.482  -3.922  0.00  0.00     0.050 C 
BRANCH  20  22
ATOM     22  O   UNL d   1      29.451 -13.770  -4.169  0.00  0.00    -0.386 OA
ATOM     23  H   UNL d   1      29.422 -13.650  -5.133  0.00  0.00     0.210 HD
ENDBRANCH  20  22
BRANCH  20  24
ATOM     24  C   UNL d   1      28.940 -16.020  -5.019  0.00  0.00     0.206 C 
BRANCH  24  25
ATOM     25  O   UNL d   1      28.098 -15.200  -5.827  0.00  0.00    -0.393 OA
ATOM     26  C   UNL d   1      26.764 -15.200  -5.344  0.00  0.00     0.201 C 
ENDBRANCH  24  25
ENDBRANCH  20  24
ENDBRANCH  19  20
ENDBRANCH   4  19
TORSDOF 8
ENDMDL
MODEL 6
REMARK VINA RESULT:    -6.810      1.332      1.844
REMARK INTER + INTRA:         -11.272
REMARK INTER:                  -9.196
REMARK INTRA:                  -2.076
REMARK CONF_INDEPENDENT:        2.386
REMARK UNBOUND:                -2.076
REMARK  8 active torsions:
REMARK  status: ('A' for Active; 'I' for Inactive)
REMARK    1  A    between atoms: C_2  and  C_3 
REMARK       I    between atoms: C_3  and  N_5 
REMARK    2  A    between atoms: N_5  and  C_6 
REMARK    3  A    between atoms: C_9  and  N_10 
REMARK       I    between atoms: N_10  and  C_11 
REMARK       I    between atoms: C_11  and  N_13 
REMARK    4  A    between atoms: N_13  and  C_14 
REMARK    5  A    between atoms: C_15  and  C_14 
REMARK    6  A    between atoms: C_15  and  O_17 
REMARK    7  A    between atoms: C_15  and  C_18 
REMARK    8  A    between atoms: C_18  and  O_19 
ROOT
ATOM      1  N   UNL d   1      25.742 -16.131  -1.627  0.00  0.00    -0.309 N 
ATOM      2  C   UNL d   1      25.745 -15.316  -2.747  0.00  0.00     0.320 C 
ATOM      3  O   UNL d   1      24.780 -15.104  -3.489  0.00  0.00    -0.247 OA
ATOM      4  N   UNL d   1      26.926 -14.691  -3.042  0.00  0.00    -0.340 N 
ATOM      5  H   UNL d   1      26.618 -16.257  -1.138  0.00  0.00     0.170 HD
ATOM      6  H   UNL d   1      27.794 -14.834  -2.545  0.00  0.00     0.164 HD
ENDROOT
BRANCH   1   7
ATOM      7  C   UNL d   1      24.611 -16.895  -1.186  0.00  0.00     0.036 A 
ATOM      8  C   UNL d   1      23.310 -16.363  -1.170  0.00  0.00     0.032 A 
ATOM      9  C   UNL d   1      22.222 -17.108  -0.631  0.00  0.00     0.032 A 
ATOM     10  C   UNL d   1      22.419 -18.396  -0.123  0.00  0.00     0.034 A 
ATOM     11  C   UNL d   1      23.697 -18.930  -0.185  0.00  0.00     0.032 A 
ATOM     12  C   UNL d   1      24.756 -18.202  -0.719  0.00  0.00     0.032 A 
BRANCH  10  13
ATOM     13  N   UNL d   1      21.359 -19.179   0.399  0.00  0.00    -0.327 N 
ATOM     14  C   UNL d   1      20.362 -19.703  -0.421  0.00  0.00     0.221 C 
ATOM     15  O   UNL d   1      20.364 -19.612  -1.649  0.00  0.00    -0.273 OA
ATOM     16  H   UNL d   1      21.404 -19.455   1.370  0.00  0.00     0.169 HD
BRANCH  14  17
ATOM     17  C   UNL d   1      19.254 -20.464   0.293  0.00  0.00     0.098 C 
ATOM     18  C   UNL d   1      19.323 -20.192   1.797  0.00  0.00     0.014 C 
ENDBRANCH  14  17
ENDBRANCH  10  13
ENDBRANCH   1   7
BRANCH   4  19
ATOM     19  C   UNL d   1      26.974 -13.825  -4.222  0.00  0.00     0.164 C 
BRANCH  19  20
ATOM     20  C   UNL d   1      28.317 -13.828  -4.983  0.00  0.00     0.091 C 
ATOM     21  C   UNL d   1      28.283 -14.819  -6.154  0.00  0.00     0.050 C 
BRANCH  20  22
ATOM     22  O   UNL d   1      29.359 -14.260  -4.085  0.00  0.00    -0.386 OA
ATOM     23  H   UNL d   1      29.930 -13.494  -3.907  0.00  0.00     0.210 HD
ENDBRANCH  20  22
BRANCH  20  24
ATOM     24  C   UNL d   1      28.624 -12.425  -5.547  0.00  0.00     0.206 C 
BRANCH  24  25
ATOM     25  O   UNL d   1      30.003 -12.106  -5.366  0.00  0.00    -0.393 OA
ATOM     26  C   UNL d   1      30.604 -11.705  -6.587  0.00  0.00     0.201 C 
ENDBRANCH  24  25
ENDBRANCH  20  24
ENDBRANCH  19  20
ENDBRANCH   4  19
TORSDOF 8
ENDMDL
MODEL 7
REMARK VINA RESULT:    -6.456      2.740      3.324
REMARK INTER + INTRA:         -10.591
REMARK INTER:                  -8.842
REMARK INTRA:                  -1.749
REMARK CONF_INDEPENDENT:        2.386
REMARK UNBOUND:                -1.749
REMARK  8 active torsions:
REMARK  status: ('A' for Active; 'I' for Inactive)
REMARK    1  A    between atoms: C_2  and  C_3 
REMARK       I    between atoms: C_3  and  N_5 
REMARK    2  A    between atoms: N_5  and  C_6 
REMARK    3  A    between atoms: C_9  and  N_10 
REMARK       I    between atoms: N_10  and  C_11 
REMARK       I    between atoms: C_11  and  N_13 
REMARK    4  A    between atoms: N_13  and  C_14 
REMARK    5  A    between atoms: C_15  and  C_14 
REMARK    6  A    between atoms: C_15  and  O_17 
REMARK    7  A    between atoms: C_15  and  C_18 
REMARK    8  A    between atoms: C_18  and  O_19 
ROOT
ATOM      1  N   UNL d   1      25.809 -16.294  -1.431  0.00  0.00    -0.309 N 
ATOM      2  C   UNL d   1      27.051 -16.440  -0.834  0.00  0.00     0.320 C 
ATOM      3  O   UNL d   1      27.327 -17.225   0.078  0.00  0.00    -0.247 OA
ATOM      4  N   UNL d   1      28.053 -15.640  -1.314  0.00  0.00    -0.340 N 
ATOM      5  H   UNL d   1      25.709 -15.576  -2.135  0.00  0.00     0.170 HD
ATOM      6  H   UNL d   1      27.933 -14.921  -2.013  0.00  0.00     0.164 HD
ENDROOT
BRANCH   1   7
ATOM      7  C   UNL d   1      24.634 -17.017  -1.037  0.00  0.00     0.036 A 
ATOM      8  C   UNL d   1      23.364 -16.418  -1.006  0.00  0.00     0.032 A 
ATOM      9  C   UNL d   1      22.232 -17.129  -0.512  0.00  0.00     0.032 A 
ATOM     10  C   UNL d   1      22.356 -18.449  -0.066  0.00  0.00     0.034 A 
ATOM     11  C   UNL d   1      23.604 -19.046  -0.144  0.00  0.00     0.032 A 
ATOM     12  C   UNL d   1      24.706 -18.350  -0.633  0.00  0.00     0.032 A 
BRANCH  10  13
ATOM     13  N   UNL d   1      21.250 -19.199   0.409  0.00  0.00    -0.327 N 
ATOM     14  C   UNL d   1      20.288 -19.716  -0.457  0.00  0.00     0.221 C 
ATOM     15  O   UNL d   1      20.361 -19.648  -1.684  0.00  0.00    -0.273 OA
ATOM     16  H   UNL d   1      21.234 -19.458   1.386  0.00  0.00     0.169 HD
BRANCH  14  17
ATOM     17  C   UNL d   1      19.125 -20.439   0.206  0.00  0.00     0.098 C 
ATOM     18  C   UNL d   1      19.309 -20.434   1.725  0.00  0.00     0.014 C 
ENDBRANCH  14  17
ENDBRANCH  10  13
ENDBRANCH   1   7
BRANCH   4  19
ATOM     19  C   UNL d   1      29.380 -15.757  -0.705  0.00  0.00     0.164 C 
BRANCH  19  20
ATOM     20  C   UNL d   1      30.191 -16.999  -1.134  0.00  0.00     0.091 C 
ATOM     21  C   UNL d   1      30.359 -17.045  -2.660  0.00  0.00     0.050 C 
BRANCH  20  22
ATOM     22  O   UNL d   1      29.466 -18.184  -0.747  0.00  0.00    -0.386 OA
ATOM     23  H   UNL d   1      29.322 -18.139   0.213  0.00  0.00     0.210 HD
ENDBRANCH  20  22
BRANCH  20  24
ATOM     24  C   UNL d   1      31.595 -16.979  -0.496  0.00  0.00     0.206 C 
BRANCH  24  25
ATOM     25  O   UNL d   1      31.537 -17.448   0.850  0.00  0.00    -0.393 OA
ATOM     26  C   UNL d   1      32.725 -18.136   1.208  0.00  0.00     0.201 C 
ENDBRANCH  24  25
ENDBRANCH  20  24
ENDBRANCH  19  20
ENDBRANCH   4  19
TORSDOF 8
ENDMDL
MODEL 8
REMARK VINA RESULT:    -6.322      2.510      3.623
REMARK INTER + INTRA:         -10.742
REMARK INTER:                  -8.709
REMARK INTRA:                  -2.034
REMARK CONF_INDEPENDENT:        2.386
REMARK UNBOUND:                -2.034
REMARK  8 active torsions:
REMARK  status: ('A' for Active; 'I' for Inactive)
REMARK    1  A    between atoms: C_2  and  C_3 
REMARK       I    between atoms: C_3  and  N_5 
REMARK    2  A    between atoms: N_5  and  C_6 
REMARK    3  A    between atoms: C_9  and  N_10 
REMARK       I    between atoms: N_10  and  C_11 
REMARK       I    between atoms: C_11  and  N_13 
REMARK    4  A    between atoms: N_13  and  C_14 
REMARK    5  A    between atoms: C_15  and  C_14 
REMARK    6  A    between atoms: C_15  and  O_17 
REMARK    7  A    between atoms: C_15  and  C_18 
REMARK    8  A    between atoms: C_18  and  O_19 
ROOT
ATOM      1  N   UNL d   1      25.616 -16.053  -1.600  0.00  0.00    -0.309 N 
ATOM      2  C   UNL d   1      26.963 -16.228  -1.326  0.00  0.00     0.320 C 
ATOM      3  O   UNL d   1      27.446 -17.114  -0.614  0.00  0.00    -0.247 OA
ATOM      4  N   UNL d   1      27.822 -15.338  -1.911  0.00  0.00    -0.340 N 
ATOM      5  H   UNL d   1      25.352 -15.255  -2.160  0.00  0.00     0.170 HD
ATOM      6  H   UNL d   1      27.539 -14.540  -2.462  0.00  0.00     0.164 HD
ENDROOT
BRANCH   1   7
ATOM      7  C   UNL d   1      24.568 -16.863  -1.049  0.00  0.00     0.036 A 
ATOM      8  C   UNL d   1      24.799 -18.167  -0.580  0.00  0.00     0.032 A 
ATOM      9  C   UNL d   1      23.721 -18.986  -0.133  0.00  0.00     0.032 A 
ATOM     10  C   UNL d   1      22.409 -18.501  -0.131  0.00  0.00     0.034 A 
ATOM     11  C   UNL d   1      22.197 -17.198  -0.553  0.00  0.00     0.032 A 
ATOM     12  C   UNL d   1      23.254 -16.400  -0.981  0.00  0.00     0.032 A 
BRANCH  10  13
ATOM     13  N   UNL d   1      21.313 -19.275   0.328  0.00  0.00    -0.327 N 
ATOM     14  C   UNL d   1      20.314 -19.717  -0.536  0.00  0.00     0.221 C 
ATOM     15  O   UNL d   1      20.342 -19.558  -1.757  0.00  0.00    -0.273 OA
ATOM     16  H   UNL d   1      21.331 -19.606   1.283  0.00  0.00     0.169 HD
BRANCH  14  17
ATOM     17  C   UNL d   1      19.169 -20.479   0.115  0.00  0.00     0.098 C 
ATOM     18  C   UNL d   1      18.972 -19.991   1.551  0.00  0.00     0.014 C 
ENDBRANCH  14  17
ENDBRANCH  10  13
ENDBRANCH   1   7
BRANCH   4  19
ATOM     19  C   UNL d   1      29.255 -15.483  -1.642  0.00  0.00     0.164 C 
BRANCH  19  20
ATOM     20  C   UNL d   1      29.694 -15.106  -0.210  0.00  0.00     0.091 C 
ATOM     21  C   UNL d   1      31.001 -14.301  -0.232  0.00  0.00     0.050 C 
BRANCH  20  22
ATOM     22  O   UNL d   1      29.946 -16.315   0.533  0.00  0.00    -0.386 OA
ATOM     23  H   UNL d   1      29.106 -16.592   0.936  0.00  0.00     0.210 HD
ENDBRANCH  20  22
BRANCH  20  24
ATOM     24  C   UNL d   1      28.613 -14.249   0.481  0.00  0.00     0.206 C 
BRANCH  24  25
ATOM     25  O   UNL d   1      27.876 -15.037   1.416  0.00  0.00    -0.393 OA
ATOM     26  C   UNL d   1      27.808 -14.401   2.683  0.00  0.00     0.201 C 
ENDBRANCH  24  25
ENDBRANCH  20  24
ENDBRANCH  19  20
ENDBRANCH   4  19
TORSDOF 8
ENDMDL
MODEL 9
REMARK VINA RESULT:    -6.147      4.973      5.921
REMARK INTER + INTRA:         -10.645
REMARK INTER:                  -8.534
REMARK INTRA:                  -2.111
REMARK CONF_INDEPENDENT:        2.386
REMARK UNBOUND:                -2.111
REMARK  8 active torsions:
REMARK  status: ('A' for Active; 'I' for Inactive)
REMARK    1  A    between atoms: C_2  and  C_3 
REMARK       I    between atoms: C_3  and  N_5 
REMARK    2  A    between atoms: N_5  and  C_6 
REMARK    3  A    between atoms: C_9  and  N_10 
REMARK       I    between atoms: N_10  and  C_11 
REMARK       I    between atoms: C_11  and  N_13 
REMARK    4  A    between atoms: N_13  and  C_14 
REMARK    5  A    between atoms: C_15  and  C_14 
REMARK    6  A    between atoms: C_15  and  O_17 
REMARK    7  A    between atoms: C_15  and  C_18 
REMARK    8  A    between atoms: C_18  and  O_19 
ROOT
ATOM      1  N   UNL d   1      27.719 -16.383   0.872  0.00  0.00    -0.309 N 
ATOM      2  C   UNL d   1      27.872 -15.127   1.437  0.00  0.00     0.320 C 
ATOM      3  O   UNL d   1      26.999 -14.256   1.510  0.00  0.00    -0.247 OA
ATOM      4  N   UNL d   1      29.103 -14.843   1.964  0.00  0.00    -0.340 N 
ATOM      5  H   UNL d   1      28.533 -16.981   0.833  0.00  0.00     0.170 HD
ATOM      6  H   UNL d   1      29.908 -15.452   1.910  0.00  0.00     0.164 HD
ENDROOT
BRANCH   1   7
ATOM      7  C   UNL d   1      26.517 -16.843   0.240  0.00  0.00     0.036 A 
ATOM      8  C   UNL d   1      25.696 -15.989  -0.516  0.00  0.00     0.032 A 
ATOM      9  C   UNL d   1      24.455 -16.448  -1.046  0.00  0.00     0.032 A 
ATOM     10  C   UNL d   1      24.035 -17.767  -0.844  0.00  0.00     0.034 A 
ATOM     11  C   UNL d   1      24.873 -18.614  -0.136  0.00  0.00     0.032 A 
ATOM     12  C   UNL d   1      26.088 -18.164   0.374  0.00  0.00     0.032 A 
BRANCH  10  13
ATOM     13  N   UNL d   1      22.820 -18.269  -1.375  0.00  0.00    -0.327 N 
ATOM     14  C   UNL d   1      21.778 -18.688  -0.552  0.00  0.00     0.221 C 
ATOM     15  O   UNL d   1      21.784 -18.578   0.674  0.00  0.00    -0.273 OA
ATOM     16  H   UNL d   1      22.674 -18.204  -2.373  0.00  0.00     0.169 HD
BRANCH  14  17
ATOM     17  C   UNL d   1      20.565 -19.265  -1.267  0.00  0.00     0.098 C 
ATOM     18  C   UNL d   1      19.452 -19.546  -0.256  0.00  0.00     0.014 C 
ENDBRANCH  14  17
ENDBRANCH  10  13
ENDBRANCH   1   7
BRANCH   4  19
ATOM     19  C   UNL d   1      29.309 -13.523   2.565  0.00  0.00     0.164 C 
BRANCH  19  20
ATOM     20  C   UNL d   1      30.374 -13.471   3.682  0.00  0.00     0.091 C 
ATOM     21  C   UNL d   1      31.380 -12.340   3.429  0.00  0.00     0.050 C 
BRANCH  20  22
ATOM     22  O   UNL d   1      31.111 -14.710   3.680  0.00  0.00    -0.386 OA
ATOM     23  H   UNL d   1      30.533 -15.396   4.055  0.00  0.00     0.210 HD
ENDBRANCH  20  22
BRANCH  20  24
ATOM     24  C   UNL d   1      29.710 -13.228   5.053  0.00  0.00     0.206 C 
BRANCH  24  25
ATOM     25  O   UNL d   1      29.447 -14.469   5.707  0.00  0.00    -0.393 OA
ATOM     26  C   UNL d   1      28.150 -14.951   5.392  0.00  0.00     0.201 C 
ENDBRANCH  24  25
ENDBRANCH  20  24
ENDBRANCH  19  20
ENDBRANCH   4  19
TORSDOF 8
ENDMDL
