MODEL 1
REMARK VINA RESULT:    -7.579      0.000      0.000
REMARK INTER + INTRA:         -13.244
REMARK INTER:                 -10.264
REMARK INTRA:                  -2.980
REMARK CONF_INDEPENDENT:        2.685
REMARK UNBOUND:                -2.980
REMARK  9 active torsions:
REMARK  status: ('A' for Active; 'I' for Inactive)
REMARK    1  A    between atoms: C_2  and  O_3 
REMARK    2  A    between atoms: O_3  and  C_4 
REMARK    3  A    between atoms: C_10  and  C_11 
REMARK       I    between atoms: C_11  and  N_13 
REMARK    4  A    between atoms: N_13  and  C_14 
REMARK    5  A    between atoms: C_14  and  N_16 
REMARK    6  A    between atoms: N_16  and  N_17 
REMARK       I    between atoms: N_17  and  C_18 
REMARK    7  A    between atoms: C_18  and  C_20 
REMARK    8  A    between atoms: C_20  and  O_21 
REMARK    9  A    between atoms: O_21  and  C_22 
ROOT
ATOM      1  C   UNL d   1      25.608 -13.039  -3.529  0.00  0.00     0.193 C 
ATOM      2  S   UNL d   1      25.873 -11.414  -3.146  0.00  0.00    -0.039 SA
ENDROOT
BRANCH   1   3
ATOM      3  N   UNL d   1      25.390 -14.071  -2.587  0.00  0.00    -0.298 N 
ATOM      4  C   UNL d   1      25.360 -15.465  -2.834  0.00  0.00     0.260 C 
ATOM      5  O   UNL d   1      25.530 -15.958  -3.953  0.00  0.00    -0.267 OA
ATOM      6  H   UNL d   1      25.214 -13.805  -1.624  0.00  0.00     0.171 HD
BRANCH   4   7
ATOM      7  C   UNL d   1      25.131 -16.467  -1.730  0.00  0.00     0.067 A 
ATOM      8  C   UNL d   1      23.836 -17.044  -1.645  0.00  0.00     0.039 A 
ATOM      9  C   UNL d   1      23.522 -17.994  -0.671  0.00  0.00     0.012 A 
ATOM     10  C   UNL d   1      24.487 -18.397   0.239  0.00  0.00     0.022 A 
ATOM     11 BR   UNL d   1      21.782 -18.731  -0.573  0.00  0.00    -0.051 Br
ATOM     12  C   UNL d   1      25.768 -17.837   0.174  0.00  0.00     0.039 A 
ATOM     13  C   UNL d   1      26.100 -16.882  -0.808  0.00  0.00     0.084 A 
BRANCH  13  14
ATOM     14  O   UNL d   1      27.319 -16.263  -0.835  0.00  0.00    -0.350 OA
BRANCH  14  15
ATOM     15  C   UNL d   1      28.011 -16.242   0.416  0.00  0.00     0.171 C 
ATOM     16  C   UNL d   1      27.939 -14.816   0.928  0.00  0.00     0.034 C 
ENDBRANCH  14  15
ENDBRANCH  13  14
ENDBRANCH   4   7
ENDBRANCH   1   3
BRANCH   1  17
ATOM     17  N   UNL d   1      25.588 -13.434  -4.879  0.00  0.00    -0.273 N 
ATOM     18  H   UNL d   1      24.813 -13.306  -5.530  0.00  0.00     0.189 HD
BRANCH  17  19
ATOM     19  N   UNL d   1      26.760 -14.078  -5.447  0.00  0.00    -0.266 N 
ATOM     20  C   UNL d   1      27.778 -13.341  -6.047  0.00  0.00     0.260 C 
ATOM     21  O   UNL d   1      27.707 -12.116  -6.139  0.00  0.00    -0.269 OA
ATOM     22  H   UNL d   1      26.758 -15.098  -5.403  0.00  0.00     0.190 HD
BRANCH  20  23
ATOM     23  C   UNL d   1      28.969 -14.188  -6.602  0.00  0.00     0.280 C 
BRANCH  23  24
ATOM     24  O   UNL d   1      28.823 -15.582  -6.282  0.00  0.00    -0.341 OA
BRANCH  24  25
ATOM     25  C   UNL d   1      29.659 -16.153  -5.344  0.00  0.00     0.081 A 
ATOM     26  C   UNL d   1      29.511 -15.983  -3.955  0.00  0.00    -0.028 A 
ATOM     27  C   UNL d   1      28.448 -15.154  -3.300  0.00  0.00     0.051 C 
ATOM     28  C   UNL d   1      30.383 -16.661  -3.071  0.00  0.00     0.009 A 
ATOM     29  C   UNL d   1      31.348 -17.545  -3.536  0.00  0.00     0.001 A 
ATOM     30  C   UNL d   1      31.453 -17.773  -4.899  0.00  0.00     0.009 A 
ATOM     31  C   UNL d   1      30.615 -17.096  -5.811  0.00  0.00    -0.028 A 
ATOM     32  C   UNL d   1      30.780 -17.430  -7.270  0.00  0.00     0.051 C 
ENDBRANCH  24  25
ENDBRANCH  23  24
ENDBRANCH  20  23
ENDBRANCH  17  19
ENDBRANCH   1  17
TORSDOF 9
ENDMDL
MODEL 2
REMARK VINA RESULT:    -7.429      1.068      1.913
REMARK INTER + INTRA:         -13.243
REMARK INTER:                 -10.114
REMARK INTRA:                  -3.129
REMARK CONF_INDEPENDENT:        2.685
REMARK UNBOUND:                -3.129
REMARK  9 active torsions:
REMARK  status: ('A' for Active; 'I' for Inactive)
REMARK    1  A    between atoms: C_2  and  O_3 
REMARK    2  A    between atoms: O_3  and  C_4 
REMARK    3  A    between atoms: C_10  and  C_11 
REMARK       I    between atoms: C_11  and  N_13 
REMARK    4  A    between atoms: N_13  and  C_14 
REMARK    5  A    between atoms: C_14  and  N_16 
REMARK    6  A    between atoms: N_16  and  N_17 
REMARK       I    between atoms: N_17  and  C_18 
REMARK    7  A    between atoms: C_18  and  C_20 
REMARK    8  A    between atoms: C_20  and  O_21 
REMARK    9  A    between atoms: O_21  and  C_22 
ROOT
ATOM      1  C   UNL d   1      26.328 -12.495  -3.286  0.00  0.00     0.193 C 
ATOM      2  S   UNL d   1      26.667 -10.949  -2.693  0.00  0.00    -0.039 SA
ENDROOT
BRANCH   1   3
ATOM      3  N   UNL d   1      26.216 -13.663  -2.497  0.00  0.00    -0.298 N 
ATOM      4  C   UNL d   1      25.275 -14.710  -2.644  0.00  0.00     0.260 C 
ATOM      5  O   UNL d   1      24.405 -14.721  -3.520  0.00  0.00    -0.267 OA
ATOM      6  H   UNL d   1      26.861 -13.774  -1.721  0.00  0.00     0.171 HD
BRANCH   4   7
ATOM      7  C   UNL d   1      25.275 -15.917  -1.739  0.00  0.00     0.067 A 
ATOM      8  C   UNL d   1      24.034 -16.584  -1.559  0.00  0.00     0.039 A 
ATOM      9  C   UNL d   1      23.925 -17.720  -0.755  0.00  0.00     0.012 A 
ATOM     10  C   UNL d   1      25.046 -18.223  -0.113  0.00  0.00     0.022 A 
ATOM     11 BR   UNL d   1      22.254 -18.576  -0.522  0.00  0.00    -0.051 Br
ATOM     12  C   UNL d   1      26.277 -17.577  -0.275  0.00  0.00     0.039 A 
ATOM     13  C   UNL d   1      26.402 -16.433  -1.088  0.00  0.00     0.084 A 
BRANCH  13  14
ATOM     14  O   UNL d   1      27.577 -15.741  -1.191  0.00  0.00    -0.350 OA
BRANCH  14  15
ATOM     15  C   UNL d   1      28.094 -15.247   0.047  0.00  0.00     0.171 C 
ATOM     16  C   UNL d   1      27.006 -14.386   0.660  0.00  0.00     0.034 C 
ENDBRANCH  14  15
ENDBRANCH  13  14
ENDBRANCH   4   7
ENDBRANCH   1   3
BRANCH   1  17
ATOM     17  N   UNL d   1      26.125 -12.672  -4.667  0.00  0.00    -0.273 N 
ATOM     18  H   UNL d   1      25.236 -12.588  -5.159  0.00  0.00     0.189 HD
BRANCH  17  19
ATOM     19  N   UNL d   1      27.261 -12.996  -5.514  0.00  0.00    -0.266 N 
ATOM     20  C   UNL d   1      27.467 -14.287  -5.994  0.00  0.00     0.260 C 
ATOM     21  O   UNL d   1      26.705 -15.206  -5.696  0.00  0.00    -0.269 OA
ATOM     22  H   UNL d   1      27.901 -12.222  -5.694  0.00  0.00     0.190 HD
BRANCH  20  23
ATOM     23  C   UNL d   1      28.731 -14.462  -6.895  0.00  0.00     0.280 C 
BRANCH  23  24
ATOM     24  O   UNL d   1      29.922 -14.650  -6.110  0.00  0.00    -0.341 OA
BRANCH  24  25
ATOM     25  C   UNL d   1      30.010 -15.737  -5.265  0.00  0.00     0.081 A 
ATOM     26  C   UNL d   1      30.412 -17.021  -5.678  0.00  0.00    -0.028 A 
ATOM     27  C   UNL d   1      30.780 -17.396  -7.081  0.00  0.00     0.051 C 
ATOM     28  C   UNL d   1      30.532 -18.056  -4.722  0.00  0.00     0.009 A 
ATOM     29  C   UNL d   1      30.324 -17.825  -3.368  0.00  0.00     0.001 A 
ATOM     30  C   UNL d   1      29.999 -16.546  -2.944  0.00  0.00     0.009 A 
ATOM     31  C   UNL d   1      29.848 -15.495  -3.874  0.00  0.00    -0.028 A 
ATOM     32  C   UNL d   1      29.523 -14.133  -3.319  0.00  0.00     0.051 C 
ENDBRANCH  24  25
ENDBRANCH  23  24
ENDBRANCH  20  23
ENDBRANCH  17  19
ENDBRANCH   1  17
TORSDOF 9
ENDMDL
MODEL 3
REMARK VINA RESULT:    -7.357      3.360      6.904
REMARK INTER + INTRA:         -12.758
REMARK INTER:                 -10.042
REMARK INTRA:                  -2.716
REMARK CONF_INDEPENDENT:        2.685
REMARK UNBOUND:                -2.716
REMARK  9 active torsions:
REMARK  status: ('A' for Active; 'I' for Inactive)
REMARK    1  A    between atoms: C_2  and  O_3 
REMARK    2  A    between atoms: O_3  and  C_4 
REMARK    3  A    between atoms: C_10  and  C_11 
REMARK       I    between atoms: C_11  and  N_13 
REMARK    4  A    between atoms: N_13  and  C_14 
REMARK    5  A    between atoms: C_14  and  N_16 
REMARK    6  A    between atoms: N_16  and  N_17 
REMARK       I    between atoms: N_17  and  C_18 
REMARK    7  A    between atoms: C_18  and  C_20 
REMARK    8  A    between atoms: C_20  and  O_21 
REMARK    9  A    between atoms: O_21  and  C_22 
ROOT
ATOM      1  C   UNL d   1      26.623 -12.922  -2.223  0.00  0.00     0.193 C 
ATOM      2  S   UNL d   1      26.393 -12.635  -3.873  0.00  0.00    -0.039 SA
ENDROOT
BRANCH   1   3
ATOM      3  N   UNL d   1      26.211 -14.088  -1.536  0.00  0.00    -0.298 N 
ATOM      4  C   UNL d   1      25.290 -15.064  -1.982  0.00  0.00     0.260 C 
ATOM      5  O   UNL d   1      24.715 -15.006  -3.073  0.00  0.00    -0.267 OA
ATOM      6  H   UNL d   1      26.593 -14.252  -0.610  0.00  0.00     0.171 HD
BRANCH   4   7
ATOM      7  C   UNL d   1      24.946 -16.277  -1.153  0.00  0.00     0.067 A 
ATOM      8  C   UNL d   1      23.655 -16.839  -1.340  0.00  0.00     0.039 A 
ATOM      9  C   UNL d   1      23.243 -17.972  -0.636  0.00  0.00     0.012 A 
ATOM     10  C   UNL d   1      24.102 -18.575   0.270  0.00  0.00     0.022 A 
ATOM     11 BR   UNL d   1      21.510 -18.685  -0.895  0.00  0.00    -0.051 Br
ATOM     12  C   UNL d   1      25.377 -18.034   0.471  0.00  0.00     0.039 A 
ATOM     13  C   UNL d   1      25.808 -16.895  -0.239  0.00  0.00     0.084 A 
BRANCH  13  14
ATOM     14  O   UNL d   1      27.017 -16.303   0.006  0.00  0.00    -0.350 OA
BRANCH  14  15
ATOM     15  C   UNL d   1      28.154 -17.065  -0.408  0.00  0.00     0.171 C 
ATOM     16  C   UNL d   1      29.002 -16.147  -1.268  0.00  0.00     0.034 C 
ENDBRANCH  14  15
ENDBRANCH  13  14
ENDBRANCH   4   7
ENDBRANCH   1   3
BRANCH   1  17
ATOM     17  N   UNL d   1      27.280 -11.955  -1.441  0.00  0.00    -0.273 N 
ATOM     18  H   UNL d   1      27.297 -10.951  -1.618  0.00  0.00     0.189 HD
BRANCH  17  19
ATOM     19  N   UNL d   1      28.009 -12.377  -0.256  0.00  0.00    -0.266 N 
ATOM     20  C   UNL d   1      27.347 -12.808   0.891  0.00  0.00     0.260 C 
ATOM     21  O   UNL d   1      26.118 -12.823   0.949  0.00  0.00    -0.269 OA
ATOM     22  H   UNL d   1      29.024 -12.297  -0.321  0.00  0.00     0.190 HD
BRANCH  20  23
ATOM     23  C   UNL d   1      28.279 -13.230   2.072  0.00  0.00     0.280 C 
BRANCH  23  24
ATOM     24  O   UNL d   1      27.532 -13.481   3.275  0.00  0.00    -0.341 OA
BRANCH  24  25
ATOM     25  C   UNL d   1      27.910 -12.861   4.448  0.00  0.00     0.081 A 
ATOM     26  C   UNL d   1      27.856 -11.470   4.653  0.00  0.00    -0.028 A 
ATOM     27  C   UNL d   1      27.401 -10.469   3.635  0.00  0.00     0.051 C 
ATOM     28  C   UNL d   1      28.207 -10.936   5.915  0.00  0.00     0.009 A 
ATOM     29  C   UNL d   1      28.546 -11.755   6.984  0.00  0.00     0.001 A 
ATOM     30  C   UNL d   1      28.532 -13.130   6.810  0.00  0.00     0.009 A 
ATOM     31  C   UNL d   1      28.210 -13.697   5.559  0.00  0.00    -0.028 A 
ATOM     32  C   UNL d   1      28.191 -15.200   5.472  0.00  0.00     0.051 C 
ENDBRANCH  24  25
ENDBRANCH  23  24
ENDBRANCH  20  23
ENDBRANCH  17  19
ENDBRANCH   1  17
TORSDOF 9
ENDMDL
MODEL 4
REMARK VINA RESULT:    -7.187      5.510      8.260
REMARK INTER + INTRA:         -12.931
REMARK INTER:                  -9.871
REMARK INTRA:                  -3.060
REMARK CONF_INDEPENDENT:        2.685
REMARK UNBOUND:                -3.060
REMARK  9 active torsions:
REMARK  status: ('A' for Active; 'I' for Inactive)
REMARK    1  A    between atoms: C_2  and  O_3 
REMARK    2  A    between atoms: O_3  and  C_4 
REMARK    3  A    between atoms: C_10  and  C_11 
REMARK       I    between atoms: C_11  and  N_13 
REMARK    4  A    between atoms: N_13  and  C_14 
REMARK    5  A    between atoms: C_14  and  N_16 
REMARK    6  A    between atoms: N_16  and  N_17 
REMARK       I    between atoms: N_17  and  C_18 
REMARK    7  A    between atoms: C_18  and  C_20 
REMARK    8  A    between atoms: C_20  and  O_21 
REMARK    9  A    between atoms: O_21  and  C_22 
ROOT
ATOM      1  C   UNL d   1      27.416 -13.740   2.784  0.00  0.00     0.193 C 
ATOM      2  S   UNL d   1      26.310 -13.070   1.696  0.00  0.00    -0.039 SA
ENDROOT
BRANCH   1   3
ATOM      3  N   UNL d   1      27.681 -13.247   4.083  0.00  0.00    -0.298 N 
ATOM      4  C   UNL d   1      28.195 -13.970   5.185  0.00  0.00     0.260 C 
ATOM      5  O   UNL d   1      28.484 -15.169   5.134  0.00  0.00    -0.267 OA
ATOM      6  H   UNL d   1      27.468 -12.273   4.272  0.00  0.00     0.171 HD
BRANCH   4   7
ATOM      7  C   UNL d   1      28.448 -13.316   6.521  0.00  0.00     0.067 A 
ATOM      8  C   UNL d   1      28.951 -14.147   7.558  0.00  0.00     0.039 A 
ATOM      9  C   UNL d   1      29.235 -13.640   8.827  0.00  0.00     0.012 A 
ATOM     10  C   UNL d   1      29.029 -12.296   9.098  0.00  0.00     0.022 A 
ATOM     11 BR   UNL d   1      29.887 -14.777  10.192  0.00  0.00    -0.051 Br
ATOM     12  C   UNL d   1      28.530 -11.462   8.090  0.00  0.00     0.039 A 
ATOM     13  C   UNL d   1      28.246 -11.960   6.803  0.00  0.00     0.084 A 
BRANCH  13  14
ATOM     14  O   UNL d   1      27.680 -11.180   5.832  0.00  0.00    -0.350 OA
BRANCH  14  15
ATOM     15  C   UNL d   1      28.533 -10.159   5.309  0.00  0.00     0.171 C 
ATOM     16  C   UNL d   1      28.004  -9.819   3.928  0.00  0.00     0.034 C 
ENDBRANCH  14  15
ENDBRANCH  13  14
ENDBRANCH   4   7
ENDBRANCH   1   3
BRANCH   1  17
ATOM     17  N   UNL d   1      28.143 -14.885   2.408  0.00  0.00    -0.273 N 
ATOM     18  H   UNL d   1      28.798 -15.399   2.995  0.00  0.00     0.189 HD
BRANCH  17  19
ATOM     19  N   UNL d   1      27.970 -15.427   1.070  0.00  0.00    -0.266 N 
ATOM     20  C   UNL d   1      28.424 -14.746  -0.057  0.00  0.00     0.260 C 
ATOM     21  O   UNL d   1      28.968 -13.646   0.041  0.00  0.00    -0.269 OA
ATOM     22  H   UNL d   1      27.465 -16.312   1.024  0.00  0.00     0.190 HD
BRANCH  20  23
ATOM     23  C   UNL d   1      28.163 -15.470  -1.416  0.00  0.00     0.280 C 
BRANCH  23  24
ATOM     24  O   UNL d   1      27.537 -16.750  -1.225  0.00  0.00    -0.341 OA
BRANCH  24  25
ATOM     25  C   UNL d   1      26.179 -16.812  -0.992  0.00  0.00     0.081 A 
ATOM     26  C   UNL d   1      25.217 -16.147  -1.776  0.00  0.00    -0.028 A 
ATOM     27  C   UNL d   1      25.526 -15.272  -2.953  0.00  0.00     0.051 C 
ATOM     28  C   UNL d   1      23.843 -16.325  -1.495  0.00  0.00     0.009 A 
ATOM     29  C   UNL d   1      23.409 -17.191  -0.500  0.00  0.00     0.001 A 
ATOM     30  C   UNL d   1      24.347 -17.905   0.229  0.00  0.00     0.009 A 
ATOM     31  C   UNL d   1      25.728 -17.735  -0.009  0.00  0.00    -0.028 A 
ATOM     32  C   UNL d   1      26.672 -18.575   0.810  0.00  0.00     0.051 C 
ENDBRANCH  24  25
ENDBRANCH  23  24
ENDBRANCH  20  23
ENDBRANCH  17  19
ENDBRANCH   1  17
TORSDOF 9
ENDMDL
MODEL 5
REMARK VINA RESULT:    -7.168      1.708      2.795
REMARK INTER + INTRA:         -13.143
REMARK INTER:                  -9.853
REMARK INTRA:                  -3.290
REMARK CONF_INDEPENDENT:        2.685
REMARK UNBOUND:                -3.290
REMARK  9 active torsions:
REMARK  status: ('A' for Active; 'I' for Inactive)
REMARK    1  A    between atoms: C_2  and  O_3 
REMARK    2  A    between atoms: O_3  and  C_4 
REMARK    3  A    between atoms: C_10  and  C_11 
REMARK       I    between atoms: C_11  and  N_13 
REMARK    4  A    between atoms: N_13  and  C_14 
REMARK    5  A    between atoms: C_14  and  N_16 
REMARK    6  A    between atoms: N_16  and  N_17 
REMARK       I    between atoms: N_17  and  C_18 
REMARK    7  A    between atoms: C_18  and  C_20 
REMARK    8  A    between atoms: C_20  and  O_21 
REMARK    9  A    between atoms: O_21  and  C_22 
ROOT
ATOM      1  C   UNL d   1      26.932 -13.813  -4.459  0.00  0.00     0.193 C 
ATOM      2  S   UNL d   1      25.991 -12.433  -4.713  0.00  0.00    -0.039 SA
ENDROOT
BRANCH   1   3
ATOM      3  N   UNL d   1      26.704 -14.779  -3.452  0.00  0.00    -0.298 N 
ATOM      4  C   UNL d   1      25.460 -15.145  -2.883  0.00  0.00     0.260 C 
ATOM      5  O   UNL d   1      24.386 -14.638  -3.218  0.00  0.00    -0.267 OA
ATOM      6  H   UNL d   1      27.508 -15.263  -3.067  0.00  0.00     0.171 HD
BRANCH   4   7
ATOM      7  C   UNL d   1      25.351 -16.210  -1.819  0.00  0.00     0.067 A 
ATOM      8  C   UNL d   1      24.075 -16.807  -1.636  0.00  0.00     0.039 A 
ATOM      9  C   UNL d   1      23.869 -17.813  -0.691  0.00  0.00     0.012 A 
ATOM     10  C   UNL d   1      24.924 -18.253   0.094  0.00  0.00     0.022 A 
ATOM     11 BR   UNL d   1      22.153 -18.576  -0.460  0.00  0.00    -0.051 Br
ATOM     12  C   UNL d   1      26.188 -17.674  -0.069  0.00  0.00     0.039 A 
ATOM     13  C   UNL d   1      26.411 -16.662  -1.024  0.00  0.00     0.084 A 
BRANCH  13  14
ATOM     14  O   UNL d   1      27.617 -16.027  -1.139  0.00  0.00    -0.350 OA
BRANCH  14  15
ATOM     15  C   UNL d   1      28.599 -16.422  -0.177  0.00  0.00     0.171 C 
ATOM     16  C   UNL d   1      29.522 -17.402  -0.876  0.00  0.00     0.034 C 
ENDBRANCH  14  15
ENDBRANCH  13  14
ENDBRANCH   4   7
ENDBRANCH   1   3
BRANCH   1  17
ATOM     17  N   UNL d   1      28.032 -14.060  -5.300  0.00  0.00    -0.273 N 
ATOM     18  H   UNL d   1      28.411 -13.419  -5.997  0.00  0.00     0.189 HD
BRANCH  17  19
ATOM     19  N   UNL d   1      28.732 -15.330  -5.198  0.00  0.00    -0.266 N 
ATOM     20  C   UNL d   1      29.513 -15.644  -4.088  0.00  0.00     0.260 C 
ATOM     21  O   UNL d   1      29.657 -14.844  -3.164  0.00  0.00    -0.269 OA
ATOM     22  H   UNL d   1      28.636 -15.944  -6.007  0.00  0.00     0.190 HD
BRANCH  20  23
ATOM     23  C   UNL d   1      30.192 -17.051  -4.134  0.00  0.00     0.280 C 
BRANCH  23  24
ATOM     24  O   UNL d   1      29.655 -17.865  -5.191  0.00  0.00    -0.341 OA
BRANCH  24  25
ATOM     25  C   UNL d   1      30.497 -18.335  -6.178  0.00  0.00     0.081 A 
ATOM     26  C   UNL d   1      31.096 -17.516  -7.153  0.00  0.00    -0.028 A 
ATOM     27  C   UNL d   1      30.898 -16.035  -7.270  0.00  0.00     0.051 C 
ATOM     28  C   UNL d   1      31.996 -18.083  -8.085  0.00  0.00     0.009 A 
ATOM     29  C   UNL d   1      32.355 -19.424  -8.027  0.00  0.00     0.001 A 
ATOM     30  C   UNL d   1      31.824 -20.221  -7.026  0.00  0.00     0.009 A 
ATOM     31  C   UNL d   1      30.906 -19.694  -6.093  0.00  0.00    -0.028 A 
ATOM     32  C   UNL d   1      30.405 -20.627  -5.022  0.00  0.00     0.051 C 
ENDBRANCH  24  25
ENDBRANCH  23  24
ENDBRANCH  20  23
ENDBRANCH  17  19
ENDBRANCH   1  17
TORSDOF 9
ENDMDL
MODEL 6
REMARK VINA RESULT:    -7.151      0.857      1.870
REMARK INTER + INTRA:         -13.436
REMARK INTER:                  -9.836
REMARK INTRA:                  -3.600
REMARK CONF_INDEPENDENT:        2.685
REMARK UNBOUND:                -3.600
REMARK  9 active torsions:
REMARK  status: ('A' for Active; 'I' for Inactive)
REMARK    1  A    between atoms: C_2  and  O_3 
REMARK    2  A    between atoms: O_3  and  C_4 
REMARK    3  A    between atoms: C_10  and  C_11 
REMARK       I    between atoms: C_11  and  N_13 
REMARK    4  A    between atoms: N_13  and  C_14 
REMARK    5  A    between atoms: C_14  and  N_16 
REMARK    6  A    between atoms: N_16  and  N_17 
REMARK       I    between atoms: N_17  and  C_18 
REMARK    7  A    between atoms: C_18  and  C_20 
REMARK    8  A    between atoms: C_20  and  O_21 
REMARK    9  A    between atoms: O_21  and  C_22 
ROOT
ATOM      1  C   UNL d   1      25.949 -12.148  -3.333  0.00  0.00     0.193 C 
ATOM      2  S   UNL d   1      26.145 -10.534  -2.870  0.00  0.00    -0.039 SA
ENDROOT
BRANCH   1   3
ATOM      3  N   UNL d   1      25.903 -13.249  -2.446  0.00  0.00    -0.298 N 
ATOM      4  C   UNL d   1      25.330 -14.520  -2.688  0.00  0.00     0.260 C 
ATOM      5  O   UNL d   1      24.780 -14.825  -3.750  0.00  0.00    -0.267 OA
ATOM      6  H   UNL d   1      26.304 -13.129  -1.521  0.00  0.00     0.171 HD
BRANCH   4   7
ATOM      7  C   UNL d   1      25.363 -15.620  -1.655  0.00  0.00     0.067 A 
ATOM      8  C   UNL d   1      24.318 -16.582  -1.708  0.00  0.00     0.039 A 
ATOM      9  C   UNL d   1      24.263 -17.649  -0.811  0.00  0.00     0.012 A 
ATOM     10  C   UNL d   1      25.244 -17.790   0.159  0.00  0.00     0.022 A 
ATOM     11 BR   UNL d   1      22.849 -18.904  -0.897  0.00  0.00    -0.051 Br
ATOM     12  C   UNL d   1      26.278 -16.850   0.230  0.00  0.00     0.039 A 
ATOM     13  C   UNL d   1      26.350 -15.771  -0.674  0.00  0.00     0.084 A 
BRANCH  13  14
ATOM     14  O   UNL d   1      27.305 -14.799  -0.568  0.00  0.00    -0.350 OA
BRANCH  14  15
ATOM     15  C   UNL d   1      27.612 -14.401   0.771  0.00  0.00     0.171 C 
ATOM     16  C   UNL d   1      26.825 -13.132   1.038  0.00  0.00     0.034 C 
ENDBRANCH  14  15
ENDBRANCH  13  14
ENDBRANCH   4   7
ENDBRANCH   1   3
BRANCH   1  17
ATOM     17  N   UNL d   1      25.809 -12.460  -4.697  0.00  0.00    -0.273 N 
ATOM     18  H   UNL d   1      25.136 -12.047  -5.342  0.00  0.00     0.189 HD
BRANCH  17  19
ATOM     19  N   UNL d   1      26.690 -13.452  -5.292  0.00  0.00    -0.266 N 
ATOM     20  C   UNL d   1      27.754 -13.083  -6.112  0.00  0.00     0.260 C 
ATOM     21  O   UNL d   1      27.969 -11.902  -6.383  0.00  0.00    -0.269 OA
ATOM     22  H   UNL d   1      26.447 -14.422  -5.092  0.00  0.00     0.190 HD
BRANCH  20  23
ATOM     23  C   UNL d   1      28.605 -14.271  -6.665  0.00  0.00     0.280 C 
BRANCH  23  24
ATOM     24  O   UNL d   1      28.302 -15.503  -5.987  0.00  0.00    -0.341 OA
BRANCH  24  25
ATOM     25  C   UNL d   1      29.281 -16.122  -5.239  0.00  0.00     0.081 A 
ATOM     26  C   UNL d   1      30.301 -16.921  -5.789  0.00  0.00    -0.028 A 
ATOM     27  C   UNL d   1      30.460 -17.226  -7.248  0.00  0.00     0.051 C 
ATOM     28  C   UNL d   1      31.297 -17.462  -4.943  0.00  0.00     0.009 A 
ATOM     29  C   UNL d   1      31.334 -17.175  -3.585  0.00  0.00     0.001 A 
ATOM     30  C   UNL d   1      30.375 -16.331  -3.048  0.00  0.00     0.009 A 
ATOM     31  C   UNL d   1      29.353 -15.792  -3.858  0.00  0.00    -0.028 A 
ATOM     32  C   UNL d   1      28.373 -14.861  -3.194  0.00  0.00     0.051 C 
ENDBRANCH  24  25
ENDBRANCH  23  24
ENDBRANCH  20  23
ENDBRANCH  17  19
ENDBRANCH   1  17
TORSDOF 9
ENDMDL
MODEL 7
REMARK VINA RESULT:    -7.115      2.120      3.195
REMARK INTER + INTRA:         -13.062
REMARK INTER:                  -9.799
REMARK INTRA:                  -3.262
REMARK CONF_INDEPENDENT:        2.685
REMARK UNBOUND:                -3.262
REMARK  9 active torsions:
REMARK  status: ('A' for Active; 'I' for Inactive)
REMARK    1  A    between atoms: C_2  and  O_3 
REMARK    2  A    between atoms: O_3  and  C_4 
REMARK    3  A    between atoms: C_10  and  C_11 
REMARK       I    between atoms: C_11  and  N_13 
REMARK    4  A    between atoms: N_13  and  C_14 
REMARK    5  A    between atoms: C_14  and  N_16 
REMARK    6  A    between atoms: N_16  and  N_17 
REMARK       I    between atoms: N_17  and  C_18 
REMARK    7  A    between atoms: C_18  and  C_20 
REMARK    8  A    between atoms: C_20  and  O_21 
REMARK    9  A    between atoms: O_21  and  C_22 
ROOT
ATOM      1  C   UNL d   1      27.437 -14.327  -4.753  0.00  0.00     0.193 C 
ATOM      2  S   UNL d   1      26.770 -12.797  -5.020  0.00  0.00    -0.039 SA
ENDROOT
BRANCH   1   3
ATOM      3  N   UNL d   1      27.140 -15.163  -3.653  0.00  0.00    -0.298 N 
ATOM      4  C   UNL d   1      25.867 -15.410  -3.084  0.00  0.00     0.260 C 
ATOM      5  O   UNL d   1      24.826 -14.897  -3.505  0.00  0.00    -0.267 OA
ATOM      6  H   UNL d   1      27.911 -15.635  -3.193  0.00  0.00     0.171 HD
BRANCH   4   7
ATOM      7  C   UNL d   1      25.683 -16.343  -1.913  0.00  0.00     0.067 A 
ATOM      8  C   UNL d   1      24.399 -16.930  -1.755  0.00  0.00     0.039 A 
ATOM      9  C   UNL d   1      24.126 -17.821  -0.715  0.00  0.00     0.012 A 
ATOM     10  C   UNL d   1      25.121 -18.152   0.192  0.00  0.00     0.022 A 
ATOM     11 BR   UNL d   1      22.401 -18.573  -0.523  0.00  0.00    -0.051 Br
ATOM     12  C   UNL d   1      26.392 -17.580   0.055  0.00  0.00     0.039 A 
ATOM     13  C   UNL d   1      26.682 -16.685  -0.994  0.00  0.00     0.084 A 
BRANCH  13  14
ATOM     14  O   UNL d   1      27.891 -16.053  -1.094  0.00  0.00    -0.350 OA
BRANCH  14  15
ATOM     15  C   UNL d   1      28.890 -16.519  -0.184  0.00  0.00     0.171 C 
ATOM     16  C   UNL d   1      29.641 -17.629  -0.895  0.00  0.00     0.034 C 
ENDBRANCH  14  15
ENDBRANCH  13  14
ENDBRANCH   4   7
ENDBRANCH   1   3
BRANCH   1  17
ATOM     17  N   UNL d   1      28.358 -14.846  -5.681  0.00  0.00    -0.273 N 
ATOM     18  H   UNL d   1      28.614 -14.425  -6.574  0.00  0.00     0.189 HD
BRANCH  17  19
ATOM     19  N   UNL d   1      29.041 -16.094  -5.380  0.00  0.00    -0.266 N 
ATOM     20  C   UNL d   1      29.854 -16.227  -4.257  0.00  0.00     0.260 C 
ATOM     21  O   UNL d   1      30.042 -15.281  -3.492  0.00  0.00    -0.269 OA
ATOM     22  H   UNL d   1      28.906 -16.837  -6.066  0.00  0.00     0.190 HD
BRANCH  20  23
ATOM     23  C   UNL d   1      30.508 -17.634  -4.078  0.00  0.00     0.280 C 
BRANCH  23  24
ATOM     24  O   UNL d   1      29.935 -18.604  -4.972  0.00  0.00    -0.341 OA
BRANCH  24  25
ATOM     25  C   UNL d   1      30.769 -19.401  -5.730  0.00  0.00     0.081 A 
ATOM     26  C   UNL d   1      31.041 -20.751  -5.440  0.00  0.00    -0.028 A 
ATOM     27  C   UNL d   1      30.487 -21.506  -4.270  0.00  0.00     0.051 C 
ATOM     28  C   UNL d   1      31.860 -21.502  -6.315  0.00  0.00     0.009 A 
ATOM     29  C   UNL d   1      32.356 -20.960  -7.493  0.00  0.00     0.001 A 
ATOM     30  C   UNL d   1      32.033 -19.653  -7.823  0.00  0.00     0.009 A 
ATOM     31  C   UNL d   1      31.237 -18.867  -6.962  0.00  0.00    -0.028 A 
ATOM     32  C   UNL d   1      30.912 -17.469  -7.416  0.00  0.00     0.051 C 
ENDBRANCH  24  25
ENDBRANCH  23  24
ENDBRANCH  20  23
ENDBRANCH  17  19
ENDBRANCH   1  17
TORSDOF 9
ENDMDL
MODEL 8
REMARK VINA RESULT:    -6.670      3.016      5.474
REMARK INTER + INTRA:         -13.183
REMARK INTER:                  -9.355
REMARK INTRA:                  -3.828
REMARK CONF_INDEPENDENT:        2.685
REMARK UNBOUND:                -3.828
REMARK  9 active torsions:
REMARK  status: ('A' for Active; 'I' for Inactive)
REMARK    1  A    between atoms: C_2  and  O_3 
REMARK    2  A    between atoms: O_3  and  C_4 
REMARK    3  A    between atoms: C_10  and  C_11 
REMARK       I    between atoms: C_11  and  N_13 
REMARK    4  A    between atoms: N_13  and  C_14 
REMARK    5  A    between atoms: C_14  and  N_16 
REMARK    6  A    between atoms: N_16  and  N_17 
REMARK       I    between atoms: N_17  and  C_18 
REMARK    7  A    between atoms: C_18  and  C_20 
REMARK    8  A    between atoms: C_20  and  O_21 
REMARK    9  A    between atoms: O_21  and  C_22 
ROOT
ATOM      1  C   UNL d   1      26.510 -13.101  -2.929  0.00  0.00     0.193 C 
ATOM      2  S   UNL d   1      25.830 -12.751  -4.436  0.00  0.00    -0.039 SA
ENDROOT
BRANCH   1   3
ATOM      3  N   UNL d   1      26.235 -14.256  -2.161  0.00  0.00    -0.298 N 
ATOM      4  C   UNL d   1      25.035 -15.005  -2.141  0.00  0.00     0.260 C 
ATOM      5  O   UNL d   1      24.046 -14.721  -2.824  0.00  0.00    -0.267 OA
ATOM      6  H   UNL d   1      26.959 -14.592  -1.534  0.00  0.00     0.171 HD
BRANCH   4   7
ATOM      7  C   UNL d   1      24.875 -16.236  -1.283  0.00  0.00     0.067 A 
ATOM      8  C   UNL d   1      23.595 -16.851  -1.273  0.00  0.00     0.039 A 
ATOM      9  C   UNL d   1      23.344 -18.003  -0.526  0.00  0.00     0.012 A 
ATOM     10  C   UNL d   1      24.358 -18.575   0.227  0.00  0.00     0.022 A 
ATOM     11 BR   UNL d   1      21.622 -18.788  -0.520  0.00  0.00    -0.051 Br
ATOM     12  C   UNL d   1      25.625 -17.981   0.233  0.00  0.00     0.039 A 
ATOM     13  C   UNL d   1      25.894 -16.822  -0.522  0.00  0.00     0.084 A 
BRANCH  13  14
ATOM     14  O   UNL d   1      27.101 -16.181  -0.462  0.00  0.00    -0.350 OA
BRANCH  14  15
ATOM     15  C   UNL d   1      28.127 -16.896   0.230  0.00  0.00     0.171 C 
ATOM     16  C   UNL d   1      29.105 -17.381  -0.824  0.00  0.00     0.034 C 
ENDBRANCH  14  15
ENDBRANCH  13  14
ENDBRANCH   4   7
ENDBRANCH   1   3
BRANCH   1  17
ATOM     17  N   UNL d   1      27.434 -12.201  -2.366  0.00  0.00    -0.273 N 
ATOM     18  H   UNL d   1      27.620 -11.252  -2.688  0.00  0.00     0.189 HD
BRANCH  17  19
ATOM     19  N   UNL d   1      28.212 -12.615  -1.209  0.00  0.00    -0.266 N 
ATOM     20  C   UNL d   1      28.989 -13.771  -1.230  0.00  0.00     0.260 C 
ATOM     21  O   UNL d   1      29.025 -14.496  -2.223  0.00  0.00    -0.269 OA
ATOM     22  H   UNL d   1      28.113 -12.020  -0.387  0.00  0.00     0.190 HD
BRANCH  20  23
ATOM     23  C   UNL d   1      29.766 -14.068   0.093  0.00  0.00     0.280 C 
BRANCH  23  24
ATOM     24  O   UNL d   1      29.415 -13.141   1.135  0.00  0.00    -0.341 OA
BRANCH  24  25
ATOM     25  C   UNL d   1      29.009 -13.624   2.362  0.00  0.00     0.081 A 
ATOM     26  C   UNL d   1      29.894 -14.074   3.360  0.00  0.00    -0.028 A 
ATOM     27  C   UNL d   1      31.386 -14.112   3.230  0.00  0.00     0.051 C 
ATOM     28  C   UNL d   1      29.382 -14.492   4.610  0.00  0.00     0.009 A 
ATOM     29  C   UNL d   1      28.028 -14.412   4.907  0.00  0.00     0.001 A 
ATOM     30  C   UNL d   1      27.159 -13.901   3.956  0.00  0.00     0.009 A 
ATOM     31  C   UNL d   1      27.631 -13.496   2.689  0.00  0.00    -0.028 A 
ATOM     32  C   UNL d   1      26.619 -12.926   1.731  0.00  0.00     0.051 C 
ENDBRANCH  24  25
ENDBRANCH  23  24
ENDBRANCH  20  23
ENDBRANCH  17  19
ENDBRANCH   1  17
TORSDOF 9
ENDMDL
MODEL 9
REMARK VINA RESULT:    -6.633      3.012      5.420
REMARK INTER + INTRA:         -13.176
REMARK INTER:                  -9.318
REMARK INTRA:                  -3.858
REMARK CONF_INDEPENDENT:        2.685
REMARK UNBOUND:                -3.858
REMARK  9 active torsions:
REMARK  status: ('A' for Active; 'I' for Inactive)
REMARK    1  A    between atoms: C_2  and  O_3 
REMARK    2  A    between atoms: O_3  and  C_4 
REMARK    3  A    between atoms: C_10  and  C_11 
REMARK       I    between atoms: C_11  and  N_13 
REMARK    4  A    between atoms: N_13  and  C_14 
REMARK    5  A    between atoms: C_14  and  N_16 
REMARK    6  A    between atoms: N_16  and  N_17 
REMARK       I    between atoms: N_17  and  C_18 
REMARK    7  A    between atoms: C_18  and  C_20 
REMARK    8  A    between atoms: C_20  and  O_21 
REMARK    9  A    between atoms: O_21  and  C_22 
ROOT
ATOM      1  C   UNL d   1      26.550 -13.074  -2.887  0.00  0.00     0.193 C 
ATOM      2  S   UNL d   1      25.852 -12.713  -4.384  0.00  0.00    -0.039 SA
ENDROOT
BRANCH   1   3
ATOM      3  N   UNL d   1      26.278 -14.232  -2.121  0.00  0.00    -0.298 N 
ATOM      4  C   UNL d   1      25.094 -15.007  -2.132  0.00  0.00     0.260 C 
ATOM      5  O   UNL d   1      24.120 -14.747  -2.844  0.00  0.00    -0.267 OA
ATOM      6  H   UNL d   1      26.991 -14.549  -1.472  0.00  0.00     0.171 HD
BRANCH   4   7
ATOM      7  C   UNL d   1      24.937 -16.237  -1.272  0.00  0.00     0.067 A 
ATOM      8  C   UNL d   1      23.661 -16.862  -1.271  0.00  0.00     0.039 A 
ATOM      9  C   UNL d   1      23.413 -18.014  -0.524  0.00  0.00     0.012 A 
ATOM     10  C   UNL d   1      24.425 -18.576   0.239  0.00  0.00     0.022 A 
ATOM     11 BR   UNL d   1      21.698 -18.813  -0.531  0.00  0.00    -0.051 Br
ATOM     12  C   UNL d   1      25.688 -17.972   0.255  0.00  0.00     0.039 A 
ATOM     13  C   UNL d   1      25.954 -16.812  -0.500  0.00  0.00     0.084 A 
BRANCH  13  14
ATOM     14  O   UNL d   1      27.155 -16.162  -0.432  0.00  0.00    -0.350 OA
BRANCH  14  15
ATOM     15  C   UNL d   1      28.194 -16.887   0.230  0.00  0.00     0.171 C 
ATOM     16  C   UNL d   1      29.173 -17.322  -0.845  0.00  0.00     0.034 C 
ENDBRANCH  14  15
ENDBRANCH  13  14
ENDBRANCH   4   7
ENDBRANCH   1   3
BRANCH   1  17
ATOM     17  N   UNL d   1      27.485 -12.182  -2.332  0.00  0.00    -0.273 N 
ATOM     18  H   UNL d   1      27.696 -11.245  -2.672  0.00  0.00     0.189 HD
BRANCH  17  19
ATOM     19  N   UNL d   1      28.238 -12.587  -1.156  0.00  0.00    -0.266 N 
ATOM     20  C   UNL d   1      29.008 -13.747  -1.147  0.00  0.00     0.260 C 
ATOM     21  O   UNL d   1      29.057 -14.486  -2.130  0.00  0.00    -0.269 OA
ATOM     22  H   UNL d   1      28.128 -11.981  -0.342  0.00  0.00     0.190 HD
BRANCH  20  23
ATOM     23  C   UNL d   1      29.757 -14.033   0.194  0.00  0.00     0.280 C 
BRANCH  23  24
ATOM     24  O   UNL d   1      29.483 -13.024   1.181  0.00  0.00    -0.341 OA
BRANCH  24  25
ATOM     25  C   UNL d   1      28.916 -13.390   2.384  0.00  0.00     0.081 A 
ATOM     26  C   UNL d   1      27.531 -13.377   2.635  0.00  0.00    -0.028 A 
ATOM     27  C   UNL d   1      26.485 -12.953   1.650  0.00  0.00     0.051 C 
ATOM     28  C   UNL d   1      27.043 -13.832   3.882  0.00  0.00     0.009 A 
ATOM     29  C   UNL d   1      27.892 -14.353   4.850  0.00  0.00     0.001 A 
ATOM     30  C   UNL d   1      29.249 -14.436   4.584  0.00  0.00     0.009 A 
ATOM     31  C   UNL d   1      29.774 -13.970   3.359  0.00  0.00    -0.028 A 
ATOM     32  C   UNL d   1      31.256 -14.129   3.145  0.00  0.00     0.051 C 
ENDBRANCH  24  25
ENDBRANCH  23  24
ENDBRANCH  20  23
ENDBRANCH  17  19
ENDBRANCH   1  17
TORSDOF 9
ENDMDL
