MODEL 1
REMARK VINA RESULT:   -34.109      0.000      0.000
REMARK INTER + INTRA:         -38.458
REMARK INTER:                 -37.092
REMARK INTRA:                  -1.366
REMARK CONF_INDEPENDENT:        2.983
REMARK UNBOUND:                -1.366
REMARK  10 active torsions:
REMARK  status: ('A' for Active; 'I' for Inactive)
REMARK    1  A    between atoms: N_2  and  C_3 
REMARK    2  A    between atoms: N_2  and  C_8 
REMARK    3  A    between atoms: C_3  and  C_4 
REMARK    4  A    between atoms: C_4  and  N_5 
REMARK    5  A    between atoms: C_8  and  C_9 
REMARK    6  A    between atoms: C_12  and  C_13 
REMARK    7  A    between atoms: C_17  and  N_18 
REMARK    8  A    between atoms: N_18  and  C_19 
REMARK    9  A    between atoms: C_22  and  O_23 
REMARK   10  A    between atoms: O_23  and  C_24 
ROOT
ATOM      1  C   UNL d   1      28.059 -12.558   3.422  0.00  0.00    -0.000 C 
ATOM      2  C   UNL d   1      27.683 -13.879   3.560  0.00  0.00     0.015 C 
ATOM      3  C   UNL d   1      27.579 -14.680   2.441  0.00  0.00     0.017 C 
ATOM      4  C   UNL d   1      27.638 -14.200   1.118  0.00  0.00     0.017 A 
ATOM      5  C   UNL d   1      27.386 -14.986  -0.054  0.00  0.00     0.046 A 
ATOM      6  C   UNL d   1      27.583 -14.378  -1.300  0.00  0.00     0.047 A 
ATOM      7  C   UNL d   1      27.997 -13.055  -1.365  0.00  0.00     0.090 A 
ATOM      8  N   UNL d   1      28.189 -12.341  -0.246  0.00  0.00    -0.365 N 
ATOM      9  C   UNL d   1      28.007 -12.845   0.995  0.00  0.00     0.045 A 
ATOM     10  C   UNL d   1      28.238 -12.037   2.133  0.00  0.00     0.044 C 
ATOM     11  H   UNL d   1      28.492 -11.375  -0.337  0.00  0.00     0.165 HD
ENDROOT
BRANCH   5  12
ATOM     12  N   UNL d   1      26.971 -16.344  -0.027  0.00  0.00    -0.355 N 
ATOM     13  H   UNL d   1      27.680 -17.069  -0.078  0.00  0.00     0.166 HD
BRANCH  12  14
ATOM     14  C   UNL d   1      25.661 -16.857  -0.149  0.00  0.00     0.032 C 
ATOM     15  C   UNL d   1      24.669 -16.127  -0.820  0.00  0.00     0.032 C 
ATOM     16  C   UNL d   1      23.463 -16.749  -1.194  0.00  0.00     0.039 C 
ATOM     17  C   UNL d   1      23.267 -18.118  -0.962  0.00  0.00     0.078 C 
ATOM     18  C   UNL d   1      24.250 -18.822  -0.264  0.00  0.00     0.039 C 
ATOM     19  C   UNL d   1      25.395 -18.182   0.212  0.00  0.00     0.032 C 
BRANCH  17  20
ATOM     20  O   UNL d   1      22.132 -18.685  -1.515  0.00  0.00    -0.292 OA
BRANCH  20  21
ATOM     21  C   UNL d   1      21.091 -19.047  -0.675  0.00  0.00     0.169 A 
ATOM     22  C   UNL d   1      21.282 -19.128   0.701  0.00  0.00     0.058 A 
ATOM     23  C   UNL d   1      20.240 -19.594   1.496  0.00  0.00     0.006 A 
ATOM     24  C   UNL d   1      19.014 -19.872   0.908  0.00  0.00     0.019 A 
ATOM     25  C   UNL d   1      18.887 -19.685  -0.461  0.00  0.00     0.119 A 
ATOM     26  N   UNL d   1      19.905 -19.303  -1.271  0.00  0.00    -0.237 NA
ENDBRANCH  20  21
ENDBRANCH  17  20
ENDBRANCH  12  14
ENDBRANCH   5  12
BRANCH   1  27
ATOM     27  C   UNL d   1      28.463 -11.885   4.636  0.00  0.00     0.086 A 
ATOM     28  C   UNL d   1      29.374 -10.865   4.815  0.00  0.00     0.040 A 
ATOM     29  C   UNL d   1      29.467 -10.659   6.197  0.00  0.00     0.037 A 
ATOM     30  C   UNL d   1      28.612 -11.569   6.788  0.00  0.00     0.082 A 
ATOM     31  O   UNL d   1      27.971 -12.315   5.831  0.00  0.00    -0.312 OA
BRANCH  30  32
ATOM     32  C   UNL d   1      28.260 -11.760   8.228  0.00  0.00     0.336 C 
BRANCH  32  33
ATOM     33  N   UNL d   1      29.385 -12.317   9.021  0.00  0.00     0.091 N 
ATOM     34  C   UNL d   1      28.982 -12.395  10.431  0.00  0.00     0.310 C 
BRANCH  33  35
ATOM     35  C   UNL d   1      29.780 -13.638   8.519  0.00  0.00     0.300 C 
BRANCH  35  36
ATOM     36  C   UNL d   1      31.121 -13.617   7.775  0.00  0.00     0.264 C 
BRANCH  36  37
ATOM     37  N   UNL d   1      32.275 -13.947   8.693  0.00  0.00    -0.077 N 
ATOM     38  C   UNL d   1      32.619 -12.841   9.649  0.00  0.00     0.269 C 
ATOM     39  C   UNL d   1      31.975 -15.226   9.427  0.00  0.00     0.269 C 
ATOM     40  H   UNL d   1      33.100 -14.126   8.103  0.00  0.00     0.279 HD
ENDBRANCH  36  37
ENDBRANCH  35  36
ENDBRANCH  33  35
ENDBRANCH  32  33
ENDBRANCH  30  32
ENDBRANCH   1  27
TORSDOF 10
ENDMDL
MODEL 2
REMARK VINA RESULT:   -33.613      1.675      2.241
REMARK INTER + INTRA:         -37.852
REMARK INTER:                 -36.596
REMARK INTRA:                  -1.256
REMARK CONF_INDEPENDENT:        2.983
REMARK UNBOUND:                -1.256
REMARK  10 active torsions:
REMARK  status: ('A' for Active; 'I' for Inactive)
REMARK    1  A    between atoms: N_2  and  C_3 
REMARK    2  A    between atoms: N_2  and  C_8 
REMARK    3  A    between atoms: C_3  and  C_4 
REMARK    4  A    between atoms: C_4  and  N_5 
REMARK    5  A    between atoms: C_8  and  C_9 
REMARK    6  A    between atoms: C_12  and  C_13 
REMARK    7  A    between atoms: C_17  and  N_18 
REMARK    8  A    between atoms: N_18  and  C_19 
REMARK    9  A    between atoms: C_22  and  O_23 
REMARK   10  A    between atoms: O_23  and  C_24 
ROOT
ATOM      1  C   UNL d   1      28.291 -12.896   3.698  0.00  0.00    -0.000 C 
ATOM      2  C   UNL d   1      27.921 -14.225   3.709  0.00  0.00     0.015 C 
ATOM      3  C   UNL d   1      27.723 -14.889   2.515  0.00  0.00     0.017 C 
ATOM      4  C   UNL d   1      27.678 -14.255   1.257  0.00  0.00     0.017 A 
ATOM      5  C   UNL d   1      27.330 -14.898   0.024  0.00  0.00     0.046 A 
ATOM      6  C   UNL d   1      27.429 -14.146  -1.153  0.00  0.00     0.047 A 
ATOM      7  C   UNL d   1      27.843 -12.823  -1.093  0.00  0.00     0.090 A 
ATOM      8  N   UNL d   1      28.127 -12.245   0.083  0.00  0.00    -0.365 N 
ATOM      9  C   UNL d   1      28.042 -12.894   1.266  0.00  0.00     0.045 A 
ATOM     10  C   UNL d   1      28.368 -12.225   2.470  0.00  0.00     0.044 C 
ATOM     11  H   UNL d   1      28.427 -11.274   0.084  0.00  0.00     0.165 HD
ENDROOT
BRANCH   5  12
ATOM     12  N   UNL d   1      26.911 -16.251  -0.077  0.00  0.00    -0.355 N 
ATOM     13  H   UNL d   1      27.615 -16.966  -0.235  0.00  0.00     0.166 HD
BRANCH  12  14
ATOM     14  C   UNL d   1      25.595 -16.751  -0.196  0.00  0.00     0.032 C 
ATOM     15  C   UNL d   1      24.621 -16.029  -0.900  0.00  0.00     0.032 C 
ATOM     16  C   UNL d   1      23.410 -16.645  -1.267  0.00  0.00     0.039 C 
ATOM     17  C   UNL d   1      23.192 -18.003  -0.994  0.00  0.00     0.078 C 
ATOM     18  C   UNL d   1      24.158 -18.699  -0.264  0.00  0.00     0.039 C 
ATOM     19  C   UNL d   1      25.307 -18.059   0.203  0.00  0.00     0.032 C 
BRANCH  17  20
ATOM     20  O   UNL d   1      22.055 -18.572  -1.540  0.00  0.00    -0.292 OA
BRANCH  20  21
ATOM     21  C   UNL d   1      21.053 -19.009  -0.689  0.00  0.00     0.169 A 
ATOM     22  C   UNL d   1      21.275 -19.103   0.682  0.00  0.00     0.058 A 
ATOM     23  C   UNL d   1      20.278 -19.644   1.487  0.00  0.00     0.006 A 
ATOM     24  C   UNL d   1      19.059 -19.984   0.916  0.00  0.00     0.019 A 
ATOM     25  C   UNL d   1      18.896 -19.781  -0.446  0.00  0.00     0.119 A 
ATOM     26  N   UNL d   1      19.873 -19.325  -1.268  0.00  0.00    -0.237 NA
ENDBRANCH  20  21
ENDBRANCH  17  20
ENDBRANCH  12  14
ENDBRANCH   5  12
BRANCH   1  27
ATOM     27  C   UNL d   1      28.794 -12.370   4.947  0.00  0.00     0.086 A 
ATOM     28  C   UNL d   1      28.104 -11.875   6.034  0.00  0.00     0.040 A 
ATOM     29  C   UNL d   1      29.070 -11.397   6.929  0.00  0.00     0.037 A 
ATOM     30  C   UNL d   1      30.298 -11.622   6.336  0.00  0.00     0.082 A 
ATOM     31  O   UNL d   1      30.138 -12.242   5.123  0.00  0.00    -0.312 OA
BRANCH  30  32
ATOM     32  C   UNL d   1      31.676 -11.372   6.860  0.00  0.00     0.336 C 
BRANCH  32  33
ATOM     33  N   UNL d   1      32.691 -11.294   5.780  0.00  0.00     0.091 N 
ATOM     34  C   UNL d   1      32.816  -9.896   5.344  0.00  0.00     0.310 C 
BRANCH  33  35
ATOM     35  C   UNL d   1      33.985 -11.815   6.234  0.00  0.00     0.300 C 
BRANCH  35  36
ATOM     36  C   UNL d   1      33.932 -12.387   7.656  0.00  0.00     0.264 C 
BRANCH  36  37
ATOM     37  N   UNL d   1      35.240 -13.035   8.046  0.00  0.00    -0.077 N 
ATOM     38  C   UNL d   1      36.323 -12.873   7.018  0.00  0.00     0.269 C 
ATOM     39  C   UNL d   1      35.678 -12.504   9.384  0.00  0.00     0.269 C 
ATOM     40  H   UNL d   1      35.064 -14.043   8.166  0.00  0.00     0.279 HD
ENDBRANCH  36  37
ENDBRANCH  35  36
ENDBRANCH  33  35
ENDBRANCH  32  33
ENDBRANCH  30  32
ENDBRANCH   1  27
TORSDOF 10
ENDMDL
MODEL 3
REMARK VINA RESULT:   -33.590      1.387      1.838
REMARK INTER + INTRA:         -37.735
REMARK INTER:                 -36.573
REMARK INTRA:                  -1.161
REMARK CONF_INDEPENDENT:        2.983
REMARK UNBOUND:                -1.161
REMARK  10 active torsions:
REMARK  status: ('A' for Active; 'I' for Inactive)
REMARK    1  A    between atoms: N_2  and  C_3 
REMARK    2  A    between atoms: N_2  and  C_8 
REMARK    3  A    between atoms: C_3  and  C_4 
REMARK    4  A    between atoms: C_4  and  N_5 
REMARK    5  A    between atoms: C_8  and  C_9 
REMARK    6  A    between atoms: C_12  and  C_13 
REMARK    7  A    between atoms: C_17  and  N_18 
REMARK    8  A    between atoms: N_18  and  C_19 
REMARK    9  A    between atoms: C_22  and  O_23 
REMARK   10  A    between atoms: O_23  and  C_24 
ROOT
ATOM      1  C   UNL d   1      28.748 -13.122   2.057  0.00  0.00    -0.000 C 
ATOM      2  C   UNL d   1      28.020 -14.225   2.454  0.00  0.00     0.015 C 
ATOM      3  C   UNL d   1      27.776 -15.243   1.555  0.00  0.00     0.017 C 
ATOM      4  C   UNL d   1      28.050 -15.159   0.175  0.00  0.00     0.017 A 
ATOM      5  C   UNL d   1      27.673 -16.141  -0.799  0.00  0.00     0.046 A 
ATOM      6  C   UNL d   1      28.108 -15.952  -2.117  0.00  0.00     0.047 A 
ATOM      7  C   UNL d   1      28.868 -14.836  -2.438  0.00  0.00     0.090 A 
ATOM      8  N   UNL d   1      29.172 -13.921  -1.506  0.00  0.00    -0.365 N 
ATOM      9  C   UNL d   1      28.779 -14.018  -0.217  0.00  0.00     0.045 A 
ATOM     10  C   UNL d   1      29.145 -13.020   0.717  0.00  0.00     0.044 C 
ATOM     11  H   UNL d   1      29.731 -13.118  -1.783  0.00  0.00     0.165 HD
ENDROOT
BRANCH   5  12
ATOM     12  N   UNL d   1      26.905 -17.299  -0.506  0.00  0.00    -0.355 N 
ATOM     13  H   UNL d   1      27.371 -18.202  -0.499  0.00  0.00     0.166 HD
BRANCH  12  14
ATOM     14  C   UNL d   1      25.500 -17.414  -0.416  0.00  0.00     0.032 C 
ATOM     15  C   UNL d   1      24.673 -16.339  -0.776  0.00  0.00     0.032 C 
ATOM     16  C   UNL d   1      23.293 -16.541  -0.966  0.00  0.00     0.039 C 
ATOM     17  C   UNL d   1      22.741 -17.825  -0.864  0.00  0.00     0.078 C 
ATOM     18  C   UNL d   1      23.572 -18.877  -0.472  0.00  0.00     0.039 C 
ATOM     19  C   UNL d   1      24.916 -18.660  -0.169  0.00  0.00     0.032 C 
BRANCH  17  20
ATOM     20  O   UNL d   1      21.415 -17.963  -1.235  0.00  0.00    -0.292 OA
BRANCH  20  21
ATOM     21  C   UNL d   1      20.615 -18.850  -0.532  0.00  0.00     0.169 A 
ATOM     22  C   UNL d   1      20.928 -19.209   0.775  0.00  0.00     0.058 A 
ATOM     23  C   UNL d   1      20.158 -20.179   1.407  0.00  0.00     0.006 A 
ATOM     24  C   UNL d   1      19.045 -20.689   0.753  0.00  0.00     0.019 A 
ATOM     25  C   UNL d   1      18.759 -20.215  -0.519  0.00  0.00     0.119 A 
ATOM     26  N   UNL d   1      19.532 -19.325  -1.188  0.00  0.00    -0.237 NA
ENDBRANCH  20  21
ENDBRANCH  17  20
ENDBRANCH  12  14
ENDBRANCH   5  12
BRANCH   1  27
ATOM     27  C   UNL d   1      29.237 -12.272   3.119  0.00  0.00     0.086 A 
ATOM     28  C   UNL d   1      29.854 -11.040   3.045  0.00  0.00     0.040 A 
ATOM     29  C   UNL d   1      30.221 -10.706   4.355  0.00  0.00     0.037 A 
ATOM     30  C   UNL d   1      29.814 -11.755   5.156  0.00  0.00     0.082 A 
ATOM     31  O   UNL d   1      29.186 -12.716   4.405  0.00  0.00    -0.312 OA
BRANCH  30  32
ATOM     32  C   UNL d   1      29.888 -11.913   6.641  0.00  0.00     0.336 C 
BRANCH  32  33
ATOM     33  N   UNL d   1      29.314 -13.201   7.107  0.00  0.00     0.091 N 
ATOM     34  C   UNL d   1      30.109 -14.305   6.551  0.00  0.00     0.310 C 
BRANCH  33  35
ATOM     35  C   UNL d   1      29.287 -13.266   8.573  0.00  0.00     0.300 C 
BRANCH  35  36
ATOM     36  C   UNL d   1      30.370 -14.185   9.149  0.00  0.00     0.264 C 
BRANCH  36  37
ATOM     37  N   UNL d   1      29.773 -15.317   9.954  0.00  0.00    -0.077 N 
ATOM     38  C   UNL d   1      30.789 -16.313  10.437  0.00  0.00     0.269 C 
ATOM     39  C   UNL d   1      28.982 -14.747  11.101  0.00  0.00     0.269 C 
ATOM     40  H   UNL d   1      29.106 -15.812   9.346  0.00  0.00     0.279 HD
ENDBRANCH  36  37
ENDBRANCH  35  36
ENDBRANCH  33  35
ENDBRANCH  32  33
ENDBRANCH  30  32
ENDBRANCH   1  27
TORSDOF 10
ENDMDL
MODEL 4
REMARK VINA RESULT:   -33.391      1.854      2.406
REMARK INTER + INTRA:         -37.857
REMARK INTER:                 -36.374
REMARK INTRA:                  -1.483
REMARK CONF_INDEPENDENT:        2.983
REMARK UNBOUND:                -1.483
REMARK  10 active torsions:
REMARK  status: ('A' for Active; 'I' for Inactive)
REMARK    1  A    between atoms: N_2  and  C_3 
REMARK    2  A    between atoms: N_2  and  C_8 
REMARK    3  A    between atoms: C_3  and  C_4 
REMARK    4  A    between atoms: C_4  and  N_5 
REMARK    5  A    between atoms: C_8  and  C_9 
REMARK    6  A    between atoms: C_12  and  C_13 
REMARK    7  A    between atoms: C_17  and  N_18 
REMARK    8  A    between atoms: N_18  and  C_19 
REMARK    9  A    between atoms: C_22  and  O_23 
REMARK   10  A    between atoms: O_23  and  C_24 
ROOT
ATOM      1  C   UNL d   1      28.336 -13.127   3.754  0.00  0.00    -0.000 C 
ATOM      2  C   UNL d   1      27.965 -14.456   3.744  0.00  0.00     0.015 C 
ATOM      3  C   UNL d   1      27.770 -15.101   2.539  0.00  0.00     0.017 C 
ATOM      4  C   UNL d   1      27.728 -14.448   1.291  0.00  0.00     0.017 A 
ATOM      5  C   UNL d   1      27.382 -15.072   0.047  0.00  0.00     0.046 A 
ATOM      6  C   UNL d   1      27.484 -14.302  -1.118  0.00  0.00     0.047 A 
ATOM      7  C   UNL d   1      27.898 -12.980  -1.037  0.00  0.00     0.090 A 
ATOM      8  N   UNL d   1      28.180 -12.421   0.149  0.00  0.00    -0.365 N 
ATOM      9  C   UNL d   1      28.093 -13.087   1.322  0.00  0.00     0.045 A 
ATOM     10  C   UNL d   1      28.416 -12.437   2.536  0.00  0.00     0.044 C 
ATOM     11  H   UNL d   1      28.481 -11.450   0.164  0.00  0.00     0.165 HD
ENDROOT
BRANCH   5  12
ATOM     12  N   UNL d   1      26.963 -16.423  -0.075  0.00  0.00    -0.355 N 
ATOM     13  H   UNL d   1      27.664 -17.133  -0.266  0.00  0.00     0.166 HD
BRANCH  12  14
ATOM     14  C   UNL d   1      25.645 -16.922  -0.175  0.00  0.00     0.032 C 
ATOM     15  C   UNL d   1      24.600 -16.093  -0.608  0.00  0.00     0.032 C 
ATOM     16  C   UNL d   1      23.364 -16.650  -0.984  0.00  0.00     0.039 C 
ATOM     17  C   UNL d   1      23.183 -18.039  -0.995  0.00  0.00     0.078 C 
ATOM     18  C   UNL d   1      24.222 -18.849  -0.530  0.00  0.00     0.039 C 
ATOM     19  C   UNL d   1      25.407 -18.294  -0.046  0.00  0.00     0.032 C 
BRANCH  17  20
ATOM     20  O   UNL d   1      22.002 -18.509  -1.542  0.00  0.00    -0.292 OA
BRANCH  20  21
ATOM     21  C   UNL d   1      21.017 -18.986  -0.692  0.00  0.00     0.169 A 
ATOM     22  C   UNL d   1      21.250 -19.097   0.675  0.00  0.00     0.058 A 
ATOM     23  C   UNL d   1      20.273 -19.677   1.477  0.00  0.00     0.006 A 
ATOM     24  C   UNL d   1      19.060 -20.040   0.907  0.00  0.00     0.019 A 
ATOM     25  C   UNL d   1      18.883 -19.819  -0.450  0.00  0.00     0.119 A 
ATOM     26  N   UNL d   1      19.842 -19.324  -1.270  0.00  0.00    -0.237 NA
ENDBRANCH  20  21
ENDBRANCH  17  20
ENDBRANCH  12  14
ENDBRANCH   5  12
BRANCH   1  27
ATOM     27  C   UNL d   1      28.836 -12.620   5.012  0.00  0.00     0.086 A 
ATOM     28  C   UNL d   1      28.298 -11.668   5.853  0.00  0.00     0.040 A 
ATOM     29  C   UNL d   1      29.235 -11.473   6.876  0.00  0.00     0.037 A 
ATOM     30  C   UNL d   1      30.297 -12.312   6.600  0.00  0.00     0.082 A 
ATOM     31  O   UNL d   1      30.050 -13.040   5.463  0.00  0.00    -0.312 OA
BRANCH  30  32
ATOM     32  C   UNL d   1      31.545 -12.568   7.382  0.00  0.00     0.336 C 
BRANCH  32  33
ATOM     33  N   UNL d   1      32.347 -11.337   7.595  0.00  0.00     0.091 N 
ATOM     34  C   UNL d   1      33.410 -11.624   8.568  0.00  0.00     0.310 C 
BRANCH  33  35
ATOM     35  C   UNL d   1      32.915 -10.854   6.331  0.00  0.00     0.300 C 
BRANCH  35  36
ATOM     36  C   UNL d   1      34.089 -11.708   5.839  0.00  0.00     0.264 C 
BRANCH  36  37
ATOM     37  N   UNL d   1      33.870 -12.199   4.427  0.00  0.00    -0.077 N 
ATOM     38  C   UNL d   1      33.220 -11.183   3.531  0.00  0.00     0.269 C 
ATOM     39  C   UNL d   1      35.181 -12.668   3.855  0.00  0.00     0.269 C 
ATOM     40  H   UNL d   1      33.252 -13.022   4.476  0.00  0.00     0.279 HD
ENDBRANCH  36  37
ENDBRANCH  35  36
ENDBRANCH  33  35
ENDBRANCH  32  33
ENDBRANCH  30  32
ENDBRANCH   1  27
TORSDOF 10
ENDMDL
MODEL 5
REMARK VINA RESULT:   -33.381      4.850      9.347
REMARK INTER + INTRA:         -37.801
REMARK INTER:                 -36.364
REMARK INTRA:                  -1.437
REMARK CONF_INDEPENDENT:        2.983
REMARK UNBOUND:                -1.437
REMARK  10 active torsions:
REMARK  status: ('A' for Active; 'I' for Inactive)
REMARK    1  A    between atoms: N_2  and  C_3 
REMARK    2  A    between atoms: N_2  and  C_8 
REMARK    3  A    between atoms: C_3  and  C_4 
REMARK    4  A    between atoms: C_4  and  N_5 
REMARK    5  A    between atoms: C_8  and  C_9 
REMARK    6  A    between atoms: C_12  and  C_13 
REMARK    7  A    between atoms: C_17  and  N_18 
REMARK    8  A    between atoms: N_18  and  C_19 
REMARK    9  A    between atoms: C_22  and  O_23 
REMARK   10  A    between atoms: O_23  and  C_24 
ROOT
ATOM      1  C   UNL d   1      26.778 -11.946  -2.969  0.00  0.00    -0.000 C 
ATOM      2  C   UNL d   1      26.449 -13.267  -3.199  0.00  0.00     0.015 C 
ATOM      3  C   UNL d   1      26.419 -14.156  -2.144  0.00  0.00     0.017 C 
ATOM      4  C   UNL d   1      26.897 -13.865  -0.851  0.00  0.00     0.017 A 
ATOM      5  C   UNL d   1      27.011 -14.815   0.217  0.00  0.00     0.046 A 
ATOM      6  C   UNL d   1      27.414 -14.338   1.471  0.00  0.00     0.047 A 
ATOM      7  C   UNL d   1      27.695 -12.990   1.639  0.00  0.00     0.090 A 
ATOM      8  N   UNL d   1      27.610 -12.138   0.607  0.00  0.00    -0.365 N 
ATOM      9  C   UNL d   1      27.245 -12.516  -0.638  0.00  0.00     0.045 A 
ATOM     10  C   UNL d   1      27.165 -11.560  -1.679  0.00  0.00     0.044 C 
ATOM     11  H   UNL d   1      27.824 -11.158   0.772  0.00  0.00     0.165 HD
ENDROOT
BRANCH   5  12
ATOM     12  N   UNL d   1      26.724 -16.199   0.085  0.00  0.00    -0.355 N 
ATOM     13  H   UNL d   1      27.492 -16.839  -0.090  0.00  0.00     0.166 HD
BRANCH  12  14
ATOM     14  C   UNL d   1      25.462 -16.818  -0.046  0.00  0.00     0.032 C 
ATOM     15  C   UNL d   1      24.387 -16.131  -0.630  0.00  0.00     0.032 C 
ATOM     16  C   UNL d   1      23.230 -16.828  -1.023  0.00  0.00     0.039 C 
ATOM     17  C   UNL d   1      23.164 -18.223  -0.901  0.00  0.00     0.078 C 
ATOM     18  C   UNL d   1      24.228 -18.888  -0.287  0.00  0.00     0.039 C 
ATOM     19  C   UNL d   1      25.326 -18.186   0.211  0.00  0.00     0.032 C 
BRANCH  17  20
ATOM     20  O   UNL d   1      22.067 -18.846  -1.469  0.00  0.00    -0.292 OA
BRANCH  20  21
ATOM     21  C   UNL d   1      21.002 -19.196  -0.655  0.00  0.00     0.169 A 
ATOM     22  C   UNL d   1      21.184 -19.390   0.711  0.00  0.00     0.058 A 
ATOM     23  C   UNL d   1      20.112 -19.841   1.473  0.00  0.00     0.006 A 
ATOM     24  C   UNL d   1      18.870 -19.990   0.870  0.00  0.00     0.019 A 
ATOM     25  C   UNL d   1      18.759 -19.695  -0.481  0.00  0.00     0.119 A 
ATOM     26  N   UNL d   1      19.802 -19.325  -1.264  0.00  0.00    -0.237 NA
ENDBRANCH  20  21
ENDBRANCH  17  20
ENDBRANCH  12  14
ENDBRANCH   5  12
BRANCH   1  27
ATOM     27  C   UNL d   1      26.471 -11.023  -4.038  0.00  0.00     0.086 A 
ATOM     28  C   UNL d   1      26.404 -11.243  -5.398  0.00  0.00     0.040 A 
ATOM     29  C   UNL d   1      26.176  -9.993  -5.988  0.00  0.00     0.037 A 
ATOM     30  C   UNL d   1      26.122  -9.077  -4.955  0.00  0.00     0.082 A 
ATOM     31  O   UNL d   1      26.280  -9.707  -3.746  0.00  0.00    -0.312 OA
BRANCH  30  32
ATOM     32  C   UNL d   1      25.840  -7.609  -4.989  0.00  0.00     0.336 C 
BRANCH  32  33
ATOM     33  N   UNL d   1      24.799  -7.205  -4.010  0.00  0.00     0.091 N 
ATOM     34  C   UNL d   1      25.400  -6.299  -3.022  0.00  0.00     0.310 C 
BRANCH  33  35
ATOM     35  C   UNL d   1      23.664  -6.562  -4.684  0.00  0.00     0.300 C 
BRANCH  35  36
ATOM     36  C   UNL d   1      23.003  -7.464  -5.732  0.00  0.00     0.264 C 
BRANCH  36  37
ATOM     37  N   UNL d   1      22.221  -6.662  -6.746  0.00  0.00    -0.077 N 
ATOM     38  C   UNL d   1      21.787  -5.315  -6.242  0.00  0.00     0.269 C 
ATOM     39  C   UNL d   1      23.028  -6.536  -8.010  0.00  0.00     0.269 C 
ATOM     40  H   UNL d   1      21.375  -7.200  -6.983  0.00  0.00     0.279 HD
ENDBRANCH  36  37
ENDBRANCH  35  36
ENDBRANCH  33  35
ENDBRANCH  32  33
ENDBRANCH  30  32
ENDBRANCH   1  27
TORSDOF 10
ENDMDL
MODEL 6
REMARK VINA RESULT:   -33.286      1.517      2.125
REMARK INTER + INTRA:         -38.910
REMARK INTER:                 -36.269
REMARK INTRA:                  -2.641
REMARK CONF_INDEPENDENT:        2.983
REMARK UNBOUND:                -2.641
REMARK  10 active torsions:
REMARK  status: ('A' for Active; 'I' for Inactive)
REMARK    1  A    between atoms: N_2  and  C_3 
REMARK    2  A    between atoms: N_2  and  C_8 
REMARK    3  A    between atoms: C_3  and  C_4 
REMARK    4  A    between atoms: C_4  and  N_5 
REMARK    5  A    between atoms: C_8  and  C_9 
REMARK    6  A    between atoms: C_12  and  C_13 
REMARK    7  A    between atoms: C_17  and  N_18 
REMARK    8  A    between atoms: N_18  and  C_19 
REMARK    9  A    between atoms: C_22  and  O_23 
REMARK   10  A    between atoms: O_23  and  C_24 
ROOT
ATOM      1  C   UNL d   1      28.102 -12.529   2.262  0.00  0.00    -0.000 C 
ATOM      2  C   UNL d   1      27.447 -13.679   2.654  0.00  0.00     0.015 C 
ATOM      3  C   UNL d   1      27.405 -14.765   1.802  0.00  0.00     0.017 C 
ATOM      4  C   UNL d   1      27.819 -14.729   0.456  0.00  0.00     0.017 A 
ATOM      5  C   UNL d   1      27.650 -15.797  -0.486  0.00  0.00     0.046 A 
ATOM      6  C   UNL d   1      28.207 -15.635  -1.761  0.00  0.00     0.047 A 
ATOM      7  C   UNL d   1      28.884 -14.465  -2.074  0.00  0.00     0.090 A 
ATOM      8  N   UNL d   1      28.992 -13.474  -1.178  0.00  0.00    -0.365 N 
ATOM      9  C   UNL d   1      28.471 -13.541   0.068  0.00  0.00     0.045 A 
ATOM     10  C   UNL d   1      28.633 -12.460   0.967  0.00  0.00     0.044 C 
ATOM     11  H   UNL d   1      29.496 -12.633  -1.447  0.00  0.00     0.165 HD
ENDROOT
BRANCH   5  12
ATOM     12  N   UNL d   1      26.972 -17.010  -0.198  0.00  0.00    -0.355 N 
ATOM     13  H   UNL d   1      27.516 -17.866  -0.129  0.00  0.00     0.166 HD
BRANCH  12  14
ATOM     14  C   UNL d   1      25.581 -17.252  -0.192  0.00  0.00     0.032 C 
ATOM     15  C   UNL d   1      24.677 -16.218  -0.480  0.00  0.00     0.032 C 
ATOM     16  C   UNL d   1      23.330 -16.513  -0.759  0.00  0.00     0.039 C 
ATOM     17  C   UNL d   1      22.890 -17.843  -0.819  0.00  0.00     0.078 C 
ATOM     18  C   UNL d   1      23.794 -18.858  -0.497  0.00  0.00     0.039 C 
ATOM     19  C   UNL d   1      25.100 -18.562  -0.106  0.00  0.00     0.032 C 
BRANCH  17  20
ATOM     20  O   UNL d   1      21.598 -18.051  -1.269  0.00  0.00    -0.292 OA
BRANCH  20  21
ATOM     21  C   UNL d   1      20.753 -18.856  -0.522  0.00  0.00     0.169 A 
ATOM     22  C   UNL d   1      21.039 -19.144   0.809  0.00  0.00     0.058 A 
ATOM     23  C   UNL d   1      20.221 -20.038   1.492  0.00  0.00     0.006 A 
ATOM     24  C   UNL d   1      19.093 -20.540   0.858  0.00  0.00     0.019 A 
ATOM     25  C   UNL d   1      18.839 -20.137  -0.445  0.00  0.00     0.119 A 
ATOM     26  N   UNL d   1      19.657 -19.325  -1.159  0.00  0.00    -0.237 NA
ENDBRANCH  20  21
ENDBRANCH  17  20
ENDBRANCH  12  14
ENDBRANCH   5  12
BRANCH   1  27
ATOM     27  C   UNL d   1      28.386 -11.575   3.311  0.00  0.00     0.086 A 
ATOM     28  C   UNL d   1      28.092 -10.229   3.379  0.00  0.00     0.040 A 
ATOM     29  C   UNL d   1      28.683  -9.757   4.558  0.00  0.00     0.037 A 
ATOM     30  C   UNL d   1      29.311 -10.840   5.142  0.00  0.00     0.082 A 
ATOM     31  O   UNL d   1      29.114 -11.971   4.391  0.00  0.00    -0.312 OA
BRANCH  30  32
ATOM     32  C   UNL d   1      30.044 -10.937   6.442  0.00  0.00     0.336 C 
BRANCH  32  33
ATOM     33  N   UNL d   1      31.027 -12.049   6.460  0.00  0.00     0.091 N 
ATOM     34  C   UNL d   1      32.353 -11.508   6.790  0.00  0.00     0.310 C 
BRANCH  33  35
ATOM     35  C   UNL d   1      30.634 -13.084   7.423  0.00  0.00     0.300 C 
BRANCH  35  36
ATOM     36  C   UNL d   1      30.379 -14.445   6.765  0.00  0.00     0.264 C 
BRANCH  36  37
ATOM     37  N   UNL d   1      29.626 -14.304   5.463  0.00  0.00    -0.077 N 
ATOM     38  C   UNL d   1      30.382 -14.821   4.272  0.00  0.00     0.269 C 
ATOM     39  C   UNL d   1      28.285 -14.975   5.588  0.00  0.00     0.269 C 
ATOM     40  H   UNL d   1      29.447 -13.301   5.314  0.00  0.00     0.279 HD
ENDBRANCH  36  37
ENDBRANCH  35  36
ENDBRANCH  33  35
ENDBRANCH  32  33
ENDBRANCH  30  32
ENDBRANCH   1  27
TORSDOF 10
ENDMDL
MODEL 7
REMARK VINA RESULT:   -32.361      6.235      9.281
REMARK INTER + INTRA:         -38.170
REMARK INTER:                 -35.344
REMARK INTRA:                  -2.825
REMARK CONF_INDEPENDENT:        2.983
REMARK UNBOUND:                -2.825
REMARK  10 active torsions:
REMARK  status: ('A' for Active; 'I' for Inactive)
REMARK    1  A    between atoms: N_2  and  C_3 
REMARK    2  A    between atoms: N_2  and  C_8 
REMARK    3  A    between atoms: C_3  and  C_4 
REMARK    4  A    between atoms: C_4  and  N_5 
REMARK    5  A    between atoms: C_8  and  C_9 
REMARK    6  A    between atoms: C_12  and  C_13 
REMARK    7  A    between atoms: C_17  and  N_18 
REMARK    8  A    between atoms: N_18  and  C_19 
REMARK    9  A    between atoms: C_22  and  O_23 
REMARK   10  A    between atoms: O_23  and  C_24 
ROOT
ATOM      1  C   UNL d   1      28.460 -14.729  -4.770  0.00  0.00    -0.000 C 
ATOM      2  C   UNL d   1      27.306 -14.436  -4.073  0.00  0.00     0.015 C 
ATOM      3  C   UNL d   1      27.167 -14.870  -2.770  0.00  0.00     0.017 C 
ATOM      4  C   UNL d   1      28.045 -15.775  -2.141  0.00  0.00     0.017 A 
ATOM      5  C   UNL d   1      27.842 -16.352  -0.844  0.00  0.00     0.046 A 
ATOM      6  C   UNL d   1      28.862 -17.158  -0.323  0.00  0.00     0.047 A 
ATOM      7  C   UNL d   1      30.012 -17.382  -1.066  0.00  0.00     0.090 A 
ATOM      8  N   UNL d   1      30.151 -16.853  -2.291  0.00  0.00    -0.365 N 
ATOM      9  C   UNL d   1      29.211 -16.077  -2.874  0.00  0.00     0.045 A 
ATOM     10  C   UNL d   1      29.429 -15.542  -4.166  0.00  0.00     0.044 C 
ATOM     11  H   UNL d   1      31.009 -17.041  -2.802  0.00  0.00     0.165 HD
ENDROOT
BRANCH   5  12
ATOM     12  N   UNL d   1      26.683 -16.139  -0.051  0.00  0.00    -0.355 N 
ATOM     13  H   UNL d   1      26.769 -15.582   0.794  0.00  0.00     0.166 HD
BRANCH  12  14
ATOM     14  C   UNL d   1      25.427 -16.774  -0.156  0.00  0.00     0.032 C 
ATOM     15  C   UNL d   1      24.298 -16.056  -0.580  0.00  0.00     0.032 C 
ATOM     16  C   UNL d   1      23.127 -16.737  -0.961  0.00  0.00     0.039 C 
ATOM     17  C   UNL d   1      23.096 -18.138  -0.988  0.00  0.00     0.078 C 
ATOM     18  C   UNL d   1      24.216 -18.837  -0.532  0.00  0.00     0.039 C 
ATOM     19  C   UNL d   1      25.336 -18.165  -0.042  0.00  0.00     0.032 C 
BRANCH  17  20
ATOM     20  O   UNL d   1      21.971 -18.725  -1.539  0.00  0.00    -0.292 OA
BRANCH  20  21
ATOM     21  C   UNL d   1      20.950 -19.133  -0.695  0.00  0.00     0.169 A 
ATOM     22  C   UNL d   1      21.184 -19.322   0.663  0.00  0.00     0.058 A 
ATOM     23  C   UNL d   1      20.160 -19.832   1.454  0.00  0.00     0.006 A 
ATOM     24  C   UNL d   1      18.911 -20.045   0.888  0.00  0.00     0.019 A 
ATOM     25  C   UNL d   1      18.744 -19.753  -0.458  0.00  0.00     0.119 A 
ATOM     26  N   UNL d   1      19.742 -19.325  -1.270  0.00  0.00    -0.237 NA
ENDBRANCH  20  21
ENDBRANCH  17  20
ENDBRANCH  12  14
ENDBRANCH   5  12
BRANCH   1  27
ATOM     27  C   UNL d   1      28.672 -13.976  -5.986  0.00  0.00     0.086 A 
ATOM     28  C   UNL d   1      29.820 -13.820  -6.735  0.00  0.00     0.040 A 
ATOM     29  C   UNL d   1      29.506 -12.906  -7.749  0.00  0.00     0.037 A 
ATOM     30  C   UNL d   1      28.185 -12.550  -7.561  0.00  0.00     0.082 A 
ATOM     31  O   UNL d   1      27.655 -13.223  -6.488  0.00  0.00    -0.312 OA
BRANCH  30  32
ATOM     32  C   UNL d   1      27.305 -11.659  -8.378  0.00  0.00     0.336 C 
BRANCH  32  33
ATOM     33  N   UNL d   1      27.209 -10.286  -7.821  0.00  0.00     0.091 N 
ATOM     34  C   UNL d   1      26.830  -9.361  -8.898  0.00  0.00     0.310 C 
BRANCH  33  35
ATOM     35  C   UNL d   1      26.239 -10.231  -6.722  0.00  0.00     0.300 C 
BRANCH  35  36
ATOM     36  C   UNL d   1      26.877  -9.845  -5.382  0.00  0.00     0.264 C 
BRANCH  36  37
ATOM     37  N   UNL d   1      27.122 -11.055  -4.511  0.00  0.00    -0.077 N 
ATOM     38  C   UNL d   1      28.248 -10.874  -3.532  0.00  0.00     0.269 C 
ATOM     39  C   UNL d   1      25.845 -11.427  -3.806  0.00  0.00     0.269 C 
ATOM     40  H   UNL d   1      27.363 -11.842  -5.130  0.00  0.00     0.279 HD
ENDBRANCH  36  37
ENDBRANCH  35  36
ENDBRANCH  33  35
ENDBRANCH  32  33
ENDBRANCH  30  32
ENDBRANCH   1  27
TORSDOF 10
ENDMDL
MODEL 8
REMARK VINA RESULT:   -31.946      5.042      8.972
REMARK INTER + INTRA:         -37.636
REMARK INTER:                 -34.929
REMARK INTRA:                  -2.707
REMARK CONF_INDEPENDENT:        2.983
REMARK UNBOUND:                -2.707
REMARK  10 active torsions:
REMARK  status: ('A' for Active; 'I' for Inactive)
REMARK    1  A    between atoms: N_2  and  C_3 
REMARK    2  A    between atoms: N_2  and  C_8 
REMARK    3  A    between atoms: C_3  and  C_4 
REMARK    4  A    between atoms: C_4  and  N_5 
REMARK    5  A    between atoms: C_8  and  C_9 
REMARK    6  A    between atoms: C_12  and  C_13 
REMARK    7  A    between atoms: C_17  and  N_18 
REMARK    8  A    between atoms: N_18  and  C_19 
REMARK    9  A    between atoms: C_22  and  O_23 
REMARK   10  A    between atoms: O_23  and  C_24 
ROOT
ATOM      1  C   UNL d   1      28.667 -14.251  -4.084  0.00  0.00    -0.000 C 
ATOM      2  C   UNL d   1      27.979 -15.443  -3.978  0.00  0.00     0.015 C 
ATOM      3  C   UNL d   1      27.545 -15.874  -2.741  0.00  0.00     0.017 C 
ATOM      4  C   UNL d   1      27.923 -15.280  -1.520  0.00  0.00     0.017 A 
ATOM      5  C   UNL d   1      27.606 -15.796  -0.221  0.00  0.00     0.046 A 
ATOM      6  C   UNL d   1      27.975 -15.030   0.892  0.00  0.00     0.047 A 
ATOM      7  C   UNL d   1      28.634 -13.823   0.710  0.00  0.00     0.090 A 
ATOM      8  N   UNL d   1      28.944 -13.389  -0.520  0.00  0.00    -0.365 N 
ATOM      9  C   UNL d   1      28.640 -14.073  -1.646  0.00  0.00     0.045 A 
ATOM     10  C   UNL d   1      28.989 -13.550  -2.914  0.00  0.00     0.044 C 
ATOM     11  H   UNL d   1      29.427 -12.499  -0.610  0.00  0.00     0.165 HD
ENDROOT
BRANCH   5  12
ATOM     12  N   UNL d   1      26.925 -17.022   0.003  0.00  0.00    -0.355 N 
ATOM     13  H   UNL d   1      27.472 -17.876   0.067  0.00  0.00     0.166 HD
BRANCH  12  14
ATOM     14  C   UNL d   1      25.537 -17.272  -0.053  0.00  0.00     0.032 C 
ATOM     15  C   UNL d   1      24.649 -16.270  -0.474  0.00  0.00     0.032 C 
ATOM     16  C   UNL d   1      23.321 -16.595  -0.807  0.00  0.00     0.039 C 
ATOM     17  C   UNL d   1      22.888 -17.928  -0.787  0.00  0.00     0.078 C 
ATOM     18  C   UNL d   1      23.774 -18.909  -0.334  0.00  0.00     0.039 C 
ATOM     19  C   UNL d   1      25.054 -18.574   0.108  0.00  0.00     0.032 C 
BRANCH  17  20
ATOM     20  O   UNL d   1      21.625 -18.180  -1.293  0.00  0.00    -0.292 OA
BRANCH  20  21
ATOM     21  C   UNL d   1      20.743 -18.937  -0.539  0.00  0.00     0.169 A 
ATOM     22  C   UNL d   1      21.033 -19.260   0.783  0.00  0.00     0.058 A 
ATOM     23  C   UNL d   1      20.171 -20.107   1.470  0.00  0.00     0.006 A 
ATOM     24  C   UNL d   1      19.001 -20.526   0.853  0.00  0.00     0.019 A 
ATOM     25  C   UNL d   1      18.751 -20.090  -0.440  0.00  0.00     0.119 A 
ATOM     26  N   UNL d   1      19.607 -19.325  -1.161  0.00  0.00    -0.237 NA
ENDBRANCH  20  21
ENDBRANCH  17  20
ENDBRANCH  12  14
ENDBRANCH   5  12
BRANCH   1  27
ATOM     27  C   UNL d   1      28.794 -13.711  -5.419  0.00  0.00     0.086 A 
ATOM     28  C   UNL d   1      27.818 -13.256  -6.280  0.00  0.00     0.040 A 
ATOM     29  C   UNL d   1      28.469 -12.944  -7.481  0.00  0.00     0.037 A 
ATOM     30  C   UNL d   1      29.806 -13.230  -7.288  0.00  0.00     0.082 A 
ATOM     31  O   UNL d   1      30.020 -13.683  -6.011  0.00  0.00    -0.312 OA
BRANCH  30  32
ATOM     32  C   UNL d   1      30.971 -13.033  -8.205  0.00  0.00     0.336 C 
BRANCH  32  33
ATOM     33  N   UNL d   1      32.157 -13.829  -7.798  0.00  0.00     0.091 N 
ATOM     34  C   UNL d   1      32.740 -13.230  -6.590  0.00  0.00     0.310 C 
BRANCH  33  35
ATOM     35  C   UNL d   1      31.795 -15.231  -7.560  0.00  0.00     0.300 C 
BRANCH  35  36
ATOM     36  C   UNL d   1      32.362 -15.779  -6.246  0.00  0.00     0.264 C 
BRANCH  36  37
ATOM     37  N   UNL d   1      31.271 -16.303  -5.341  0.00  0.00    -0.077 N 
ATOM     38  C   UNL d   1      30.739 -17.646  -5.756  0.00  0.00     0.269 C 
ATOM     39  C   UNL d   1      31.773 -16.332  -3.923  0.00  0.00     0.269 C 
ATOM     40  H   UNL d   1      30.492 -15.630  -5.370  0.00  0.00     0.279 HD
ENDBRANCH  36  37
ENDBRANCH  35  36
ENDBRANCH  33  35
ENDBRANCH  32  33
ENDBRANCH  30  32
ENDBRANCH   1  27
TORSDOF 10
ENDMDL
MODEL 9
REMARK VINA RESULT:   -31.645      5.680      9.433
REMARK INTER + INTRA:         -37.158
REMARK INTER:                 -34.628
REMARK INTRA:                  -2.529
REMARK CONF_INDEPENDENT:        2.983
REMARK UNBOUND:                -2.529
REMARK  10 active torsions:
REMARK  status: ('A' for Active; 'I' for Inactive)
REMARK    1  A    between atoms: N_2  and  C_3 
REMARK    2  A    between atoms: N_2  and  C_8 
REMARK    3  A    between atoms: C_3  and  C_4 
REMARK    4  A    between atoms: C_4  and  N_5 
REMARK    5  A    between atoms: C_8  and  C_9 
REMARK    6  A    between atoms: C_12  and  C_13 
REMARK    7  A    between atoms: C_17  and  N_18 
REMARK    8  A    between atoms: N_18  and  C_19 
REMARK    9  A    between atoms: C_22  and  O_23 
REMARK   10  A    between atoms: O_23  and  C_24 
ROOT
ATOM      1  C   UNL d   1      29.570 -15.612  -4.109  0.00  0.00    -0.000 C 
ATOM      2  C   UNL d   1      29.071 -16.689  -3.406  0.00  0.00     0.015 C 
ATOM      3  C   UNL d   1      28.213 -16.474  -2.346  0.00  0.00     0.017 C 
ATOM      4  C   UNL d   1      27.951 -15.208  -1.786  0.00  0.00     0.017 A 
ATOM      5  C   UNL d   1      27.182 -14.977  -0.598  0.00  0.00     0.046 A 
ATOM      6  C   UNL d   1      26.934 -13.649  -0.231  0.00  0.00     0.047 A 
ATOM      7  C   UNL d   1      27.438 -12.614  -1.006  0.00  0.00     0.090 A 
ATOM      8  N   UNL d   1      28.182 -12.869  -2.092  0.00  0.00    -0.365 N 
ATOM      9  C   UNL d   1      28.482 -14.120  -2.507  0.00  0.00     0.045 A 
ATOM     10  C   UNL d   1      29.265 -14.316  -3.670  0.00  0.00     0.044 C 
ATOM     11  H   UNL d   1      28.532 -12.082  -2.632  0.00  0.00     0.165 HD
ENDROOT
BRANCH   5  12
ATOM     12  N   UNL d   1      26.644 -16.010   0.214  0.00  0.00    -0.355 N 
ATOM     13  H   UNL d   1      27.245 -16.445   0.909  0.00  0.00     0.166 HD
BRANCH  12  14
ATOM     14  C   UNL d   1      25.415 -16.689   0.061  0.00  0.00     0.032 C 
ATOM     15  C   UNL d   1      24.269 -16.000  -0.362  0.00  0.00     0.032 C 
ATOM     16  C   UNL d   1      23.133 -16.712  -0.792  0.00  0.00     0.039 C 
ATOM     17  C   UNL d   1      23.157 -18.112  -0.867  0.00  0.00     0.078 C 
ATOM     18  C   UNL d   1      24.294 -18.783  -0.411  0.00  0.00     0.039 C 
ATOM     19  C   UNL d   1      25.377 -18.086   0.126  0.00  0.00     0.032 C 
BRANCH  17  20
ATOM     20  O   UNL d   1      22.067 -18.722  -1.462  0.00  0.00    -0.292 OA
BRANCH  20  21
ATOM     21  C   UNL d   1      21.024 -19.154  -0.658  0.00  0.00     0.169 A 
ATOM     22  C   UNL d   1      21.222 -19.387   0.699  0.00  0.00     0.058 A 
ATOM     23  C   UNL d   1      20.176 -19.920   1.446  0.00  0.00     0.006 A 
ATOM     24  C   UNL d   1      18.942 -20.112   0.841  0.00  0.00     0.019 A 
ATOM     25  C   UNL d   1      18.811 -19.776  -0.498  0.00  0.00     0.119 A 
ATOM     26  N   UNL d   1      19.831 -19.325  -1.270  0.00  0.00    -0.237 NA
ENDBRANCH  20  21
ENDBRANCH  17  20
ENDBRANCH  12  14
ENDBRANCH   5  12
BRANCH   1  27
ATOM     27  C   UNL d   1      30.181 -15.917  -5.383  0.00  0.00     0.086 A 
ATOM     28  C   UNL d   1      30.331 -15.121  -6.500  0.00  0.00     0.040 A 
ATOM     29  C   UNL d   1      30.891 -15.936  -7.491  0.00  0.00     0.037 A 
ATOM     30  C   UNL d   1      31.047 -17.188  -6.928  0.00  0.00     0.082 A 
ATOM     31  O   UNL d   1      30.632 -17.179  -5.620  0.00  0.00    -0.312 OA
BRANCH  30  32
ATOM     32  C   UNL d   1      31.653 -18.429  -7.501  0.00  0.00     0.336 C 
BRANCH  32  33
ATOM     33  N   UNL d   1      30.690 -19.558  -7.560  0.00  0.00     0.091 N 
ATOM     34  C   UNL d   1      30.951 -20.343  -8.773  0.00  0.00     0.310 C 
BRANCH  33  35
ATOM     35  C   UNL d   1      30.792 -20.400  -6.363  0.00  0.00     0.300 C 
BRANCH  35  36
ATOM     36  C   UNL d   1      32.174 -20.334  -5.702  0.00  0.00     0.264 C 
BRANCH  36  37
ATOM     37  N   UNL d   1      32.231 -19.267  -4.633  0.00  0.00    -0.077 N 
ATOM     38  C   UNL d   1      31.748 -19.736  -3.290  0.00  0.00     0.269 C 
ATOM     39  C   UNL d   1      33.632 -18.724  -4.547  0.00  0.00     0.269 C 
ATOM     40  H   UNL d   1      31.626 -18.490  -4.935  0.00  0.00     0.279 HD
ENDBRANCH  36  37
ENDBRANCH  35  36
ENDBRANCH  33  35
ENDBRANCH  32  33
ENDBRANCH  30  32
ENDBRANCH   1  27
TORSDOF 10
ENDMDL
