MODEL 1
REMARK VINA RESULT:   -26.983      0.000      0.000
REMARK INTER + INTRA:         -29.774
REMARK INTER:                 -28.474
REMARK INTRA:                  -1.300
REMARK CONF_INDEPENDENT:        1.492
REMARK UNBOUND:                -1.300
REMARK  5 active torsions:
REMARK  status: ('A' for Active; 'I' for Inactive)
REMARK    1  A    between atoms: C_2  and  N_3 
REMARK       I    between atoms: N_3  and  C_4 
REMARK       I    between atoms: C_4  and  N_6 
REMARK       I    between atoms: C_7  and  N_8 
REMARK       I    between atoms: C_7  and  N_21 
REMARK    2  A    between atoms: N_8  and  C_9 
REMARK    3  A    between atoms: C_9  and  C_10 
REMARK    4  A    between atoms: C_10  and  C_11 
REMARK    5  A    between atoms: N_21  and  C_22 
ROOT
ATOM      1  N   UNL d   1      25.136 -15.392  -2.916  0.00  0.00    -0.341 N 
ATOM      2  C   UNL d   1      24.685 -16.417  -2.117  0.00  0.00     0.357 C 
ATOM      3  O   UNL d   1      25.648 -17.014  -1.636  0.00  0.00    -0.244 OA
ATOM      4  N   UNL d   1      23.330 -16.660  -1.938  0.00  0.00    -0.006 NA
ATOM      5  C   UNL d   1      22.832 -17.641  -1.194  0.00  0.00     0.719 C 
ATOM      6  N   UNL d   1      23.487 -18.651  -0.492  0.00  0.00    -0.223 N 
ATOM      7  N   UNL d   1      21.444 -17.818  -1.117  0.00  0.00    -0.017 N 
ATOM      8  H   UNL d   1      24.494 -14.780  -3.389  0.00  0.00     0.164 HD
ATOM      9  H   UNL d   1      22.935 -19.162   0.191  0.00  0.00     0.177 HD
ATOM     10  H   UNL d   1      20.852 -17.291  -1.737  0.00  0.00     0.203 HD
ENDROOT
BRANCH   6  11
ATOM     11  C   UNL d   1      24.910 -18.719  -0.331  0.00  0.00     0.142 C 
BRANCH  11  12
ATOM     12  C   UNL d   1      25.637 -18.200   0.872  0.00  0.00     0.061 C 
BRANCH  12  13
ATOM     13  C   UNL d   1      26.961 -17.597   0.419  0.00  0.00    -0.029 A 
ATOM     14  C   UNL d   1      28.026 -18.281  -0.144  0.00  0.00     0.096 A 
ATOM     15  N   UNL d   1      29.038 -17.392  -0.395  0.00  0.00    -0.365 N 
ATOM     16  C   UNL d   1      28.651 -16.121  -0.044  0.00  0.00     0.043 A 
ATOM     17  H   UNL d   1      29.942 -17.629  -0.780  0.00  0.00     0.165 HD
ATOM     18  C   UNL d   1      29.367 -14.916  -0.092  0.00  0.00     0.033 A 
ATOM     19  C   UNL d   1      27.330 -16.208   0.408  0.00  0.00     0.001 A 
ATOM     20  C   UNL d   1      28.700 -13.755   0.306  0.00  0.00     0.044 A 
ATOM     21  C   UNL d   1      27.371 -13.812   0.708  0.00  0.00     0.117 A 
ATOM     22  F   UNL d   1      26.753 -12.679   1.071  0.00  0.00    -0.206 F 
ATOM     23  C   UNL d   1      26.669 -15.016   0.762  0.00  0.00     0.056 A 
ENDBRANCH  12  13
ENDBRANCH  11  12
ENDBRANCH   6  11
BRANCH   7  24
ATOM     24  C   UNL d   1      20.728 -18.750  -0.339  0.00  0.00     0.741 A 
ATOM     25  N   UNL d   1      19.642 -19.324  -0.895  0.00  0.00    -0.067 NA
ATOM     26  C   UNL d   1      18.897 -20.179  -0.167  0.00  0.00     0.051 A 
ATOM     27  C   UNL d   1      17.744 -20.825  -0.872  0.00  0.00     0.071 C 
ATOM     28  C   UNL d   1      19.160 -20.432   1.158  0.00  0.00     0.054 A 
ATOM     29  C   UNL d   1      20.281 -19.816   1.681  0.00  0.00     0.051 A 
ATOM     30  C   UNL d   1      20.611 -20.018   3.139  0.00  0.00     0.071 C 
ATOM     31  N   UNL d   1      21.095 -19.013   0.934  0.00  0.00    -0.067 NA
ENDBRANCH   7  24
BRANCH   1  32
ATOM     32  C   UNL d   1      26.601 -15.272  -2.990  0.00  0.00     0.120 C 
ATOM     33  C   UNL d   1      27.090 -14.213  -3.929  0.00  0.00     0.026 C 
ENDBRANCH   1  32
TORSDOF 5
ENDMDL
MODEL 2
REMARK VINA RESULT:   -26.029      1.749      2.066
REMARK INTER + INTRA:         -28.119
REMARK INTER:                 -27.520
REMARK INTRA:                  -0.599
REMARK CONF_INDEPENDENT:        1.492
REMARK UNBOUND:                -0.599
REMARK  5 active torsions:
REMARK  status: ('A' for Active; 'I' for Inactive)
REMARK    1  A    between atoms: C_2  and  N_3 
REMARK       I    between atoms: N_3  and  C_4 
REMARK       I    between atoms: C_4  and  N_6 
REMARK       I    between atoms: C_7  and  N_8 
REMARK       I    between atoms: C_7  and  N_21 
REMARK    2  A    between atoms: N_8  and  C_9 
REMARK    3  A    between atoms: C_9  and  C_10 
REMARK    4  A    between atoms: C_10  and  C_11 
REMARK    5  A    between atoms: N_21  and  C_22 
ROOT
ATOM      1  N   UNL d   1      24.675 -14.598  -2.453  0.00  0.00    -0.341 N 
ATOM      2  C   UNL d   1      24.287 -15.622  -1.620  0.00  0.00     0.357 C 
ATOM      3  O   UNL d   1      25.223 -15.925  -0.881  0.00  0.00    -0.244 OA
ATOM      4  N   UNL d   1      23.009 -16.162  -1.676  0.00  0.00    -0.006 NA
ATOM      5  C   UNL d   1      22.578 -17.159  -0.912  0.00  0.00     0.719 C 
ATOM      6  N   UNL d   1      23.259 -17.914   0.040  0.00  0.00    -0.223 N 
ATOM      7  N   UNL d   1      21.277 -17.652  -1.083  0.00  0.00    -0.017 N 
ATOM      8  H   UNL d   1      24.040 -14.203  -3.124  0.00  0.00     0.164 HD
ATOM      9  H   UNL d   1      22.691 -18.476   0.667  0.00  0.00     0.177 HD
ATOM     10  H   UNL d   1      20.740 -17.342  -1.875  0.00  0.00     0.203 HD
ENDROOT
BRANCH   6  11
ATOM     11  C   UNL d   1      24.592 -17.627   0.483  0.00  0.00     0.142 C 
BRANCH  11  12
ATOM     12  C   UNL d   1      25.821 -18.226  -0.134  0.00  0.00     0.061 C 
BRANCH  12  13
ATOM     13  C   UNL d   1      26.995 -17.286   0.108  0.00  0.00    -0.029 A 
ATOM     14  C   UNL d   1      27.390 -16.759   1.327  0.00  0.00     0.096 A 
ATOM     15  N   UNL d   1      28.473 -15.944   1.125  0.00  0.00    -0.365 N 
ATOM     16  C   UNL d   1      28.830 -15.949  -0.201  0.00  0.00     0.043 A 
ATOM     17  H   UNL d   1      28.945 -15.412   1.843  0.00  0.00     0.165 HD
ATOM     18  C   UNL d   1      29.844 -15.241  -0.863  0.00  0.00     0.033 A 
ATOM     19  C   UNL d   1      27.963 -16.832  -0.853  0.00  0.00     0.001 A 
ATOM     20  C   UNL d   1      29.998 -15.468  -2.233  0.00  0.00     0.044 A 
ATOM     21  C   UNL d   1      29.182 -16.381  -2.889  0.00  0.00     0.117 A 
ATOM     22  F   UNL d   1      29.362 -16.589  -4.201  0.00  0.00    -0.206 F 
ATOM     23  C   UNL d   1      28.169 -17.074  -2.225  0.00  0.00     0.056 A 
ENDBRANCH  12  13
ENDBRANCH  11  12
ENDBRANCH   6  11
BRANCH   7  24
ATOM     24  C   UNL d   1      20.621 -18.651  -0.337  0.00  0.00     0.741 A 
ATOM     25  N   UNL d   1      19.547 -19.244  -0.895  0.00  0.00    -0.067 NA
ATOM     26  C   UNL d   1      18.857 -20.165  -0.192  0.00  0.00     0.051 A 
ATOM     27  C   UNL d   1      17.715 -20.825  -0.902  0.00  0.00     0.071 C 
ATOM     28  C   UNL d   1      19.163 -20.470   1.112  0.00  0.00     0.054 A 
ATOM     29  C   UNL d   1      20.270 -19.832   1.638  0.00  0.00     0.051 A 
ATOM     30  C   UNL d   1      20.645 -20.090   3.077  0.00  0.00     0.071 C 
ATOM     31  N   UNL d   1      21.031 -18.960   0.913  0.00  0.00    -0.067 NA
ENDBRANCH   7  24
BRANCH   1  32
ATOM     32  C   UNL d   1      26.061 -14.141  -2.256  0.00  0.00     0.120 C 
ATOM     33  C   UNL d   1      26.764 -13.735  -3.514  0.00  0.00     0.026 C 
ENDBRANCH   1  32
TORSDOF 5
ENDMDL
