MODEL 1
REMARK VINA RESULT:   -31.077      0.000      0.000
REMARK INTER + INTRA:         -33.673
REMARK INTER:                 -32.867
REMARK INTRA:                  -0.806
REMARK CONF_INDEPENDENT:        1.790
REMARK UNBOUND:                -0.806
REMARK  6 active torsions:
REMARK  status: ('A' for Active; 'I' for Inactive)
REMARK    1  A    between atoms: C_5  and  N_6 
REMARK       I    between atoms: N_6  and  C_7 
REMARK    2  A    between atoms: C_7  and  C_9 
REMARK    3  A    between atoms: C_9  and  N_10 
REMARK    4  A    between atoms: N_10  and  C_11 
REMARK    5  A    between atoms: C_20  and  C_21 
REMARK       I    between atoms: C_21  and  N_23 
REMARK    6  A    between atoms: N_23  and  C_24 
ROOT
ATOM      1  C   UNL d   1      24.772 -17.167  -0.801  0.00  0.00     0.028 A 
ATOM      2  C   UNL d   1      24.565 -18.544  -0.735  0.00  0.00     0.030 A 
ATOM      3  C   UNL d   1      23.279 -19.092  -0.734  0.00  0.00     0.025 A 
ATOM      4  C   UNL d   1      22.159 -18.264  -0.828  0.00  0.00     0.044 A 
ATOM      5  C   UNL d   1      20.848 -18.836  -0.861  0.00  0.00     0.099 C 
ATOM      6  N   UNL d   1      19.786 -19.318  -0.896  0.00  0.00    -0.191 NA
ATOM      7  C   UNL d   1      22.344 -16.882  -0.896  0.00  0.00     0.025 A 
ATOM      8  C   UNL d   1      23.642 -16.341  -0.872  0.00  0.00     0.030 A 
ENDROOT
BRANCH   1   9
ATOM      9  N   UNL d   1      26.038 -16.635  -0.866  0.00  0.00    -0.381 N 
ATOM     10  H   UNL d   1      26.368 -16.201  -1.732  0.00  0.00     0.160 HD
BRANCH   9  11
ATOM     11  C   UNL d   1      27.027 -16.686   0.229  0.00  0.00     0.223 C 
BRANCH  11  12
ATOM     12  C   UNL d   1      27.034 -15.323   0.947  0.00  0.00     0.239 C 
ATOM     13  N   UNL d   1      27.912 -15.153   2.023  0.00  0.00    -0.326 N 
ATOM     14  H   UNL d   1      28.524 -15.918   2.286  0.00  0.00     0.169 HD
ATOM     15  O   UNL d   1      26.259 -14.463   0.522  0.00  0.00    -0.271 OA
BRANCH  13  16
ATOM     16  C   UNL d   1      28.028 -13.943   2.786  0.00  0.00     0.035 A 
ATOM     17  C   UNL d   1      27.787 -12.699   2.195  0.00  0.00     0.030 A 
ATOM     18  C   UNL d   1      27.888 -11.523   2.962  0.00  0.00     0.010 A 
ATOM     19  C   UNL d   1      28.222 -11.554   4.328  0.00  0.00    -0.046 A 
ATOM     20  C   UNL d   1      28.288 -10.257   5.065  0.00  0.00     0.049 C 
ATOM     21  C   UNL d   1      28.469 -12.790   4.943  0.00  0.00     0.040 A 
ATOM     22  C   UNL d   1      28.375 -13.949   4.145  0.00  0.00     0.047 A 
BRANCH  21  23
ATOM     23  C   UNL d   1      28.818 -13.026   6.399  0.00  0.00     0.252 C 
ATOM     24  O   UNL d   1      28.008 -12.723   7.271  0.00  0.00    -0.268 OA
ATOM     25  N   UNL d   1      30.037 -13.582   6.725  0.00  0.00    -0.353 N 
ATOM     26  H   UNL d   1      30.715 -13.824   6.043  0.00  0.00     0.163 HD
BRANCH  25  27
ATOM     27  C   UNL d   1      30.479 -13.908   8.062  0.00  0.00     0.076 C 
ATOM     28  C   UNL d   1      31.024 -12.665   8.743  0.00  0.00     0.032 C 
ATOM     29  C   UNL d   1      29.296 -14.453   8.877  0.00  0.00     0.032 C 
ENDBRANCH  25  27
ENDBRANCH  21  23
ENDBRANCH  13  16
ENDBRANCH  11  12
ENDBRANCH   9  11
ENDBRANCH   1   9
TORSDOF 6
ENDMDL
MODEL 2
REMARK VINA RESULT:   -31.006      1.898      3.434
REMARK INTER + INTRA:         -33.782
REMARK INTER:                 -32.796
REMARK INTRA:                  -0.985
REMARK CONF_INDEPENDENT:        1.790
REMARK UNBOUND:                -0.985
REMARK  6 active torsions:
REMARK  status: ('A' for Active; 'I' for Inactive)
REMARK    1  A    between atoms: C_5  and  N_6 
REMARK       I    between atoms: N_6  and  C_7 
REMARK    2  A    between atoms: C_7  and  C_9 
REMARK    3  A    between atoms: C_9  and  N_10 
REMARK    4  A    between atoms: N_10  and  C_11 
REMARK    5  A    between atoms: C_20  and  C_21 
REMARK       I    between atoms: C_21  and  N_23 
REMARK    6  A    between atoms: N_23  and  C_24 
ROOT
ATOM      1  C   UNL d   1      25.150 -17.357  -0.205  0.00  0.00     0.028 A 
ATOM      2  C   UNL d   1      24.191 -16.374  -0.447  0.00  0.00     0.030 A 
ATOM      3  C   UNL d   1      22.846 -16.696  -0.650  0.00  0.00     0.025 A 
ATOM      4  C   UNL d   1      22.422 -18.025  -0.587  0.00  0.00     0.044 A 
ATOM      5  C   UNL d   1      21.038 -18.344  -0.762  0.00  0.00     0.099 C 
ATOM      6  N   UNL d   1      19.905 -18.585  -0.897  0.00  0.00    -0.191 NA
ATOM      7  C   UNL d   1      23.366 -19.025  -0.344  0.00  0.00     0.025 A 
ATOM      8  C   UNL d   1      24.720 -18.690  -0.166  0.00  0.00     0.030 A 
ENDROOT
BRANCH   1   9
ATOM      9  N   UNL d   1      26.459 -17.030   0.057  0.00  0.00    -0.381 N 
ATOM     10  H   UNL d   1      27.053 -17.675   0.584  0.00  0.00     0.160 HD
BRANCH   9  11
ATOM     11  C   UNL d   1      27.098 -15.754  -0.321  0.00  0.00     0.223 C 
BRANCH  11  12
ATOM     12  C   UNL d   1      27.084 -14.817   0.902  0.00  0.00     0.239 C 
ATOM     13  N   UNL d   1      27.934 -15.122   1.970  0.00  0.00    -0.326 N 
ATOM     14  H   UNL d   1      28.542 -15.932   1.903  0.00  0.00     0.169 HD
ATOM     15  O   UNL d   1      26.317 -13.852   0.859  0.00  0.00    -0.271 OA
BRANCH  13  16
ATOM     16  C   UNL d   1      28.028 -14.344   3.173  0.00  0.00     0.035 A 
ATOM     17  C   UNL d   1      28.039 -14.965   4.426  0.00  0.00     0.030 A 
ATOM     18  C   UNL d   1      28.149 -14.190   5.596  0.00  0.00     0.010 A 
ATOM     19  C   UNL d   1      28.258 -12.788   5.550  0.00  0.00    -0.046 A 
ATOM     20  C   UNL d   1      28.388 -12.050   6.841  0.00  0.00     0.049 C 
ATOM     21  C   UNL d   1      28.249 -12.143   4.305  0.00  0.00     0.040 A 
ATOM     22  C   UNL d   1      28.122 -12.945   3.152  0.00  0.00     0.047 A 
BRANCH  21  23
ATOM     23  C   UNL d   1      28.377 -10.654   4.052  0.00  0.00     0.252 C 
ATOM     24  O   UNL d   1      29.326 -10.232   3.395  0.00  0.00    -0.268 OA
ATOM     25  N   UNL d   1      27.427  -9.793   4.560  0.00  0.00    -0.353 N 
ATOM     26  H   UNL d   1      26.659 -10.104   5.104  0.00  0.00     0.163 HD
BRANCH  25  27
ATOM     27  C   UNL d   1      27.397  -8.362   4.355  0.00  0.00     0.076 C 
ATOM     28  C   UNL d   1      28.728  -7.755   4.762  0.00  0.00     0.032 C 
ATOM     29  C   UNL d   1      27.136  -8.060   2.872  0.00  0.00     0.032 C 
ENDBRANCH  25  27
ENDBRANCH  21  23
ENDBRANCH  13  16
ENDBRANCH  11  12
ENDBRANCH   9  11
ENDBRANCH   1   9
TORSDOF 6
ENDMDL
MODEL 3
REMARK VINA RESULT:   -30.834      1.843      3.583
REMARK INTER + INTRA:         -33.598
REMARK INTER:                 -32.624
REMARK INTRA:                  -0.974
REMARK CONF_INDEPENDENT:        1.790
REMARK UNBOUND:                -0.974
REMARK  6 active torsions:
REMARK  status: ('A' for Active; 'I' for Inactive)
REMARK    1  A    between atoms: C_5  and  N_6 
REMARK       I    between atoms: N_6  and  C_7 
REMARK    2  A    between atoms: C_7  and  C_9 
REMARK    3  A    between atoms: C_9  and  N_10 
REMARK    4  A    between atoms: N_10  and  C_11 
REMARK    5  A    between atoms: C_20  and  C_21 
REMARK       I    between atoms: C_21  and  N_23 
REMARK    6  A    between atoms: N_23  and  C_24 
ROOT
ATOM      1  C   UNL d   1      25.096 -17.317  -0.168  0.00  0.00     0.028 A 
ATOM      2  C   UNL d   1      24.631 -18.624  -0.032  0.00  0.00     0.030 A 
ATOM      3  C   UNL d   1      23.288 -18.950  -0.246  0.00  0.00     0.025 A 
ATOM      4  C   UNL d   1      22.377 -17.966  -0.634  0.00  0.00     0.044 A 
ATOM      5  C   UNL d   1      21.012 -18.314  -0.886  0.00  0.00     0.099 C 
ATOM      6  N   UNL d   1      19.905 -18.616  -1.096  0.00  0.00    -0.191 NA
ATOM      7  C   UNL d   1      22.823 -16.650  -0.778  0.00  0.00     0.025 A 
ATOM      8  C   UNL d   1      24.170 -16.331  -0.536  0.00  0.00     0.030 A 
ENDROOT
BRANCH   1   9
ATOM      9  N   UNL d   1      26.428 -17.012  -0.018  0.00  0.00    -0.381 N 
ATOM     10  H   UNL d   1      27.066 -17.693   0.401  0.00  0.00     0.160 HD
BRANCH   9  11
ATOM     11  C   UNL d   1      27.037 -15.714  -0.370  0.00  0.00     0.223 C 
BRANCH  11  12
ATOM     12  C   UNL d   1      27.017 -14.809   0.877  0.00  0.00     0.239 C 
ATOM     13  N   UNL d   1      27.811 -15.178   1.968  0.00  0.00    -0.326 N 
ATOM     14  H   UNL d   1      28.384 -16.013   1.901  0.00  0.00     0.169 HD
ATOM     15  O   UNL d   1      26.296 -13.809   0.832  0.00  0.00    -0.271 OA
BRANCH  13  16
ATOM     16  C   UNL d   1      27.892 -14.437   3.194  0.00  0.00     0.035 A 
ATOM     17  C   UNL d   1      28.155 -15.085   4.405  0.00  0.00     0.030 A 
ATOM     18  C   UNL d   1      28.249 -14.342   5.596  0.00  0.00     0.010 A 
ATOM     19  C   UNL d   1      28.091 -12.944   5.614  0.00  0.00    -0.046 A 
ATOM     20  C   UNL d   1      28.225 -12.238   6.923  0.00  0.00     0.049 C 
ATOM     21  C   UNL d   1      27.825 -12.272   4.413  0.00  0.00     0.040 A 
ATOM     22  C   UNL d   1      27.722 -13.045   3.238  0.00  0.00     0.047 A 
BRANCH  21  23
ATOM     23  C   UNL d   1      27.648 -10.778   4.228  0.00  0.00     0.252 C 
ATOM     24  O   UNL d   1      28.215 -10.002   4.993  0.00  0.00    -0.268 OA
ATOM     25  N   UNL d   1      26.856 -10.309   3.200  0.00  0.00    -0.353 N 
ATOM     26  H   UNL d   1      26.377 -10.911   2.576  0.00  0.00     0.163 HD
BRANCH  25  27
ATOM     27  C   UNL d   1      26.640  -8.916   2.878  0.00  0.00     0.076 C 
ATOM     28  C   UNL d   1      27.966  -8.250   2.556  0.00  0.00     0.032 C 
ATOM     29  C   UNL d   1      25.711  -8.808   1.659  0.00  0.00     0.032 C 
ENDBRANCH  25  27
ENDBRANCH  21  23
ENDBRANCH  13  16
ENDBRANCH  11  12
ENDBRANCH   9  11
ENDBRANCH   1   9
TORSDOF 6
ENDMDL
MODEL 4
REMARK VINA RESULT:   -30.789      5.985      8.119
REMARK INTER + INTRA:         -33.689
REMARK INTER:                 -32.579
REMARK INTRA:                  -1.110
REMARK CONF_INDEPENDENT:        1.790
REMARK UNBOUND:                -1.110
REMARK  6 active torsions:
REMARK  status: ('A' for Active; 'I' for Inactive)
REMARK    1  A    between atoms: C_5  and  N_6 
REMARK       I    between atoms: N_6  and  C_7 
REMARK    2  A    between atoms: C_7  and  C_9 
REMARK    3  A    between atoms: C_9  and  N_10 
REMARK    4  A    between atoms: N_10  and  C_11 
REMARK    5  A    between atoms: C_20  and  C_21 
REMARK       I    between atoms: C_21  and  N_23 
REMARK    6  A    between atoms: N_23  and  C_24 
ROOT
ATOM      1  C   UNL d   1      24.653 -17.221  -0.188  0.00  0.00     0.028 A 
ATOM      2  C   UNL d   1      24.421 -18.595  -0.148  0.00  0.00     0.030 A 
ATOM      3  C   UNL d   1      23.151 -19.131  -0.378  0.00  0.00     0.025 A 
ATOM      4  C   UNL d   1      22.077 -18.293  -0.683  0.00  0.00     0.044 A 
ATOM      5  C   UNL d   1      20.787 -18.852  -0.951  0.00  0.00     0.099 C 
ATOM      6  N   UNL d   1      19.744 -19.325  -1.176  0.00  0.00    -0.191 NA
ATOM      7  C   UNL d   1      22.287 -16.913  -0.730  0.00  0.00     0.025 A 
ATOM      8  C   UNL d   1      23.565 -16.385  -0.473  0.00  0.00     0.030 A 
ENDROOT
BRANCH   1   9
ATOM      9  N   UNL d   1      25.916 -16.702  -0.024  0.00  0.00    -0.381 N 
ATOM     10  H   UNL d   1      26.066 -15.909   0.603  0.00  0.00     0.160 HD
BRANCH   9  11
ATOM     11  C   UNL d   1      27.115 -17.171  -0.745  0.00  0.00     0.223 C 
BRANCH  11  12
ATOM     12  C   UNL d   1      27.472 -16.136  -1.830  0.00  0.00     0.239 C 
ATOM     13  N   UNL d   1      26.423 -15.443  -2.444  0.00  0.00    -0.326 N 
ATOM     14  H   UNL d   1      25.470 -15.627  -2.149  0.00  0.00     0.169 HD
ATOM     15  O   UNL d   1      28.668 -15.985  -2.088  0.00  0.00    -0.271 OA
BRANCH  13  16
ATOM     16  C   UNL d   1      26.601 -14.454  -3.468  0.00  0.00     0.035 A 
ATOM     17  C   UNL d   1      27.063 -14.815  -4.738  0.00  0.00     0.030 A 
ATOM     18  C   UNL d   1      27.215 -13.836  -5.737  0.00  0.00     0.010 A 
ATOM     19  C   UNL d   1      26.909 -12.482  -5.504  0.00  0.00    -0.046 A 
ATOM     20  C   UNL d   1      27.085 -11.517  -6.630  0.00  0.00     0.049 C 
ATOM     21  C   UNL d   1      26.446 -12.096  -4.238  0.00  0.00     0.040 A 
ATOM     22  C   UNL d   1      26.317 -13.097  -3.253  0.00  0.00     0.047 A 
BRANCH  21  23
ATOM     23  C   UNL d   1      26.046 -10.700  -3.805  0.00  0.00     0.252 C 
ATOM     24  O   UNL d   1      26.504 -10.235  -2.764  0.00  0.00    -0.268 OA
ATOM     25  N   UNL d   1      25.177  -9.967  -4.587  0.00  0.00    -0.353 N 
ATOM     26  H   UNL d   1      24.782 -10.322  -5.425  0.00  0.00     0.163 HD
BRANCH  25  27
ATOM     27  C   UNL d   1      24.751  -8.611  -4.322  0.00  0.00     0.076 C 
ATOM     28  C   UNL d   1      25.949  -7.679  -4.355  0.00  0.00     0.032 C 
ATOM     29  C   UNL d   1      23.738  -8.172  -5.391  0.00  0.00     0.032 C 
ENDBRANCH  25  27
ENDBRANCH  21  23
ENDBRANCH  13  16
ENDBRANCH  11  12
ENDBRANCH   9  11
ENDBRANCH   1   9
TORSDOF 6
ENDMDL
MODEL 5
REMARK VINA RESULT:   -30.693      5.861      8.818
REMARK INTER + INTRA:         -33.609
REMARK INTER:                 -32.483
REMARK INTRA:                  -1.126
REMARK CONF_INDEPENDENT:        1.790
REMARK UNBOUND:                -1.126
REMARK  6 active torsions:
REMARK  status: ('A' for Active; 'I' for Inactive)
REMARK    1  A    between atoms: C_5  and  N_6 
REMARK       I    between atoms: N_6  and  C_7 
REMARK    2  A    between atoms: C_7  and  C_9 
REMARK    3  A    between atoms: C_9  and  N_10 
REMARK    4  A    between atoms: N_10  and  C_11 
REMARK    5  A    between atoms: C_20  and  C_21 
REMARK       I    between atoms: C_21  and  N_23 
REMARK    6  A    between atoms: N_23  and  C_24 
ROOT
ATOM      1  C   UNL d   1      24.661 -17.416  -0.160  0.00  0.00     0.028 A 
ATOM      2  C   UNL d   1      23.602 -16.567  -0.481  0.00  0.00     0.030 A 
ATOM      3  C   UNL d   1      22.332 -17.064  -0.791  0.00  0.00     0.025 A 
ATOM      4  C   UNL d   1      22.086 -18.437  -0.759  0.00  0.00     0.044 A 
ATOM      5  C   UNL d   1      20.775 -18.936  -1.043  0.00  0.00     0.099 C 
ATOM      6  N   UNL d   1      19.698 -19.325  -1.268  0.00  0.00    -0.191 NA
ATOM      7  C   UNL d   1      23.132 -19.305  -0.439  0.00  0.00     0.025 A 
ATOM      8  C   UNL d   1      24.411 -18.794  -0.153  0.00  0.00     0.030 A 
ENDROOT
BRANCH   1   9
ATOM      9  N   UNL d   1      25.890 -16.920   0.205  0.00  0.00    -0.381 N 
ATOM     10  H   UNL d   1      25.968 -16.277   0.996  0.00  0.00     0.160 HD
BRANCH   9  11
ATOM     11  C   UNL d   1      27.152 -17.200  -0.507  0.00  0.00     0.223 C 
BRANCH  11  12
ATOM     12  C   UNL d   1      27.361 -16.115  -1.581  0.00  0.00     0.239 C 
ATOM     13  N   UNL d   1      26.226 -15.488  -2.108  0.00  0.00    -0.326 N 
ATOM     14  H   UNL d   1      25.310 -15.750  -1.759  0.00  0.00     0.169 HD
ATOM     15  O   UNL d   1      28.524 -15.868  -1.909  0.00  0.00    -0.271 OA
BRANCH  13  16
ATOM     16  C   UNL d   1      26.264 -14.464  -3.112  0.00  0.00     0.035 A 
ATOM     17  C   UNL d   1      25.500 -13.300  -2.977  0.00  0.00     0.030 A 
ATOM     18  C   UNL d   1      25.561 -12.298  -3.962  0.00  0.00     0.010 A 
ATOM     19  C   UNL d   1      26.383 -12.422  -5.098  0.00  0.00    -0.046 A 
ATOM     20  C   UNL d   1      26.397 -11.299  -6.082  0.00  0.00     0.049 C 
ATOM     21  C   UNL d   1      27.158 -13.579  -5.256  0.00  0.00     0.040 A 
ATOM     22  C   UNL d   1      27.064 -14.573  -4.260  0.00  0.00     0.047 A 
BRANCH  21  23
ATOM     23  C   UNL d   1      28.115 -13.883  -6.392  0.00  0.00     0.252 C 
ATOM     24  O   UNL d   1      28.159 -15.020  -6.857  0.00  0.00    -0.268 OA
ATOM     25  N   UNL d   1      28.920 -12.881  -6.890  0.00  0.00    -0.353 N 
ATOM     26  H   UNL d   1      28.914 -11.959  -6.526  0.00  0.00     0.163 HD
BRANCH  25  27
ATOM     27  C   UNL d   1      29.838 -13.016  -7.999  0.00  0.00     0.076 C 
ATOM     28  C   UNL d   1      29.162 -12.574  -9.285  0.00  0.00     0.032 C 
ATOM     29  C   UNL d   1      31.076 -12.141  -7.752  0.00  0.00     0.032 C 
ENDBRANCH  25  27
ENDBRANCH  21  23
ENDBRANCH  13  16
ENDBRANCH  11  12
ENDBRANCH   9  11
ENDBRANCH   1   9
TORSDOF 6
ENDMDL
MODEL 6
REMARK VINA RESULT:   -30.663      5.905      8.661
REMARK INTER + INTRA:         -33.501
REMARK INTER:                 -32.453
REMARK INTRA:                  -1.048
REMARK CONF_INDEPENDENT:        1.790
REMARK UNBOUND:                -1.048
REMARK  6 active torsions:
REMARK  status: ('A' for Active; 'I' for Inactive)
REMARK    1  A    between atoms: C_5  and  N_6 
REMARK       I    between atoms: N_6  and  C_7 
REMARK    2  A    between atoms: C_7  and  C_9 
REMARK    3  A    between atoms: C_9  and  N_10 
REMARK    4  A    between atoms: N_10  and  C_11 
REMARK    5  A    between atoms: C_20  and  C_21 
REMARK       I    between atoms: C_21  and  N_23 
REMARK    6  A    between atoms: N_23  and  C_24 
ROOT
ATOM      1  C   UNL d   1      24.583 -17.518  -0.185  0.00  0.00     0.028 A 
ATOM      2  C   UNL d   1      23.515 -16.645  -0.386  0.00  0.00     0.030 A 
ATOM      3  C   UNL d   1      22.233 -17.113  -0.691  0.00  0.00     0.025 A 
ATOM      4  C   UNL d   1      21.985 -18.485  -0.774  0.00  0.00     0.044 A 
ATOM      5  C   UNL d   1      20.663 -18.957  -1.052  0.00  0.00     0.099 C 
ATOM      6  N   UNL d   1      19.577 -19.325  -1.270  0.00  0.00    -0.191 NA
ATOM      7  C   UNL d   1      23.041 -19.377  -0.575  0.00  0.00     0.025 A 
ATOM      8  C   UNL d   1      24.330 -18.892  -0.293  0.00  0.00     0.030 A 
ENDROOT
BRANCH   1   9
ATOM      9  N   UNL d   1      25.827 -17.056   0.176  0.00  0.00    -0.381 N 
ATOM     10  H   UNL d   1      25.922 -16.394   0.950  0.00  0.00     0.160 HD
BRANCH   9  11
ATOM     11  C   UNL d   1      27.084 -17.401  -0.517  0.00  0.00     0.223 C 
BRANCH  11  12
ATOM     12  C   UNL d   1      27.396 -16.296  -1.544  0.00  0.00     0.239 C 
ATOM     13  N   UNL d   1      26.386 -15.930  -2.441  0.00  0.00    -0.326 N 
ATOM     14  H   UNL d   1      25.481 -16.385  -2.378  0.00  0.00     0.169 HD
ATOM     15  O   UNL d   1      28.526 -15.803  -1.510  0.00  0.00    -0.271 OA
BRANCH  13  16
ATOM     16  C   UNL d   1      26.531 -14.922  -3.452  0.00  0.00     0.035 A 
ATOM     17  C   UNL d   1      25.754 -13.760  -3.420  0.00  0.00     0.030 A 
ATOM     18  C   UNL d   1      25.920 -12.773  -4.408  0.00  0.00     0.010 A 
ATOM     19  C   UNL d   1      26.862 -12.911  -5.445  0.00  0.00    -0.046 A 
ATOM     20  C   UNL d   1      26.981 -11.803  -6.439  0.00  0.00     0.049 C 
ATOM     21  C   UNL d   1      27.653 -14.068  -5.498  0.00  0.00     0.040 A 
ATOM     22  C   UNL d   1      27.453 -15.046  -4.502  0.00  0.00     0.047 A 
BRANCH  21  23
ATOM     23  C   UNL d   1      28.730 -14.385  -6.517  0.00  0.00     0.252 C 
ATOM     24  O   UNL d   1      28.944 -13.598  -7.436  0.00  0.00    -0.268 OA
ATOM     25  N   UNL d   1      29.458 -15.551  -6.397  0.00  0.00    -0.353 N 
ATOM     26  H   UNL d   1      29.298 -16.209  -5.674  0.00  0.00     0.163 HD
BRANCH  25  27
ATOM     27  C   UNL d   1      30.543 -15.954  -7.263  0.00  0.00     0.076 C 
ATOM     28  C   UNL d   1      31.649 -14.915  -7.221  0.00  0.00     0.032 C 
ATOM     29  C   UNL d   1      31.100 -17.306  -6.794  0.00  0.00     0.032 C 
ENDBRANCH  25  27
ENDBRANCH  21  23
ENDBRANCH  13  16
ENDBRANCH  11  12
ENDBRANCH   9  11
ENDBRANCH   1   9
TORSDOF 6
ENDMDL
MODEL 7
REMARK VINA RESULT:   -30.643      6.082      7.334
REMARK INTER + INTRA:         -33.389
REMARK INTER:                 -32.432
REMARK INTRA:                  -0.956
REMARK CONF_INDEPENDENT:        1.790
REMARK UNBOUND:                -0.956
REMARK  6 active torsions:
REMARK  status: ('A' for Active; 'I' for Inactive)
REMARK    1  A    between atoms: C_5  and  N_6 
REMARK       I    between atoms: N_6  and  C_7 
REMARK    2  A    between atoms: C_7  and  C_9 
REMARK    3  A    between atoms: C_9  and  N_10 
REMARK    4  A    between atoms: N_10  and  C_11 
REMARK    5  A    between atoms: C_20  and  C_21 
REMARK       I    between atoms: C_21  and  N_23 
REMARK    6  A    between atoms: N_23  and  C_24 
ROOT
ATOM      1  C   UNL d   1      24.576 -17.269  -0.524  0.00  0.00     0.028 A 
ATOM      2  C   UNL d   1      24.343 -18.643  -0.531  0.00  0.00     0.030 A 
ATOM      3  C   UNL d   1      23.057 -19.168  -0.698  0.00  0.00     0.025 A 
ATOM      4  C   UNL d   1      21.968 -18.316  -0.891  0.00  0.00     0.044 A 
ATOM      5  C   UNL d   1      20.661 -18.862  -1.095  0.00  0.00     0.099 C 
ATOM      6  N   UNL d   1      19.604 -19.324  -1.269  0.00  0.00    -0.191 NA
ATOM      7  C   UNL d   1      22.179 -16.936  -0.888  0.00  0.00     0.025 A 
ATOM      8  C   UNL d   1      23.473 -16.420  -0.696  0.00  0.00     0.030 A 
ENDROOT
BRANCH   1   9
ATOM      9  N   UNL d   1      25.848 -16.759  -0.423  0.00  0.00    -0.381 N 
ATOM     10  H   UNL d   1      26.168 -16.349   0.458  0.00  0.00     0.160 HD
BRANCH   9  11
ATOM     11  C   UNL d   1      26.817 -16.696  -1.535  0.00  0.00     0.223 C 
BRANCH  11  12
ATOM     12  C   UNL d   1      26.394 -15.564  -2.491  0.00  0.00     0.239 C 
ATOM     13  N   UNL d   1      26.779 -14.258  -2.171  0.00  0.00    -0.326 N 
ATOM     14  H   UNL d   1      27.335 -14.096  -1.338  0.00  0.00     0.169 HD
ATOM     15  O   UNL d   1      25.737 -15.886  -3.484  0.00  0.00    -0.271 OA
BRANCH  13  16
ATOM     16  C   UNL d   1      26.457 -13.105  -2.963  0.00  0.00     0.035 A 
ATOM     17  C   UNL d   1      25.865 -13.245  -4.222  0.00  0.00     0.030 A 
ATOM     18  C   UNL d   1      25.539 -12.104  -4.979  0.00  0.00     0.010 A 
ATOM     19  C   UNL d   1      25.786 -10.802  -4.504  0.00  0.00    -0.046 A 
ATOM     20  C   UNL d   1      25.390  -9.652  -5.369  0.00  0.00     0.049 C 
ATOM     21  C   UNL d   1      26.379 -10.637  -3.245  0.00  0.00     0.040 A 
ATOM     22  C   UNL d   1      26.708 -11.799  -2.516  0.00  0.00     0.047 A 
BRANCH  21  23
ATOM     23  C   UNL d   1      26.700  -9.324  -2.558  0.00  0.00     0.252 C 
ATOM     24  O   UNL d   1      27.842  -9.117  -2.152  0.00  0.00    -0.268 OA
ATOM     25  N   UNL d   1      25.709  -8.378  -2.400  0.00  0.00    -0.353 N 
ATOM     26  H   UNL d   1      24.778  -8.523  -2.706  0.00  0.00     0.163 HD
BRANCH  25  27
ATOM     27  C   UNL d   1      25.886  -7.069  -1.812  0.00  0.00     0.076 C 
ATOM     28  C   UNL d   1      25.353  -6.004  -2.755  0.00  0.00     0.032 C 
ATOM     29  C   UNL d   1      25.121  -6.995  -0.482  0.00  0.00     0.032 C 
ENDBRANCH  25  27
ENDBRANCH  21  23
ENDBRANCH  13  16
ENDBRANCH  11  12
ENDBRANCH   9  11
ENDBRANCH   1   9
TORSDOF 6
ENDMDL
MODEL 8
REMARK VINA RESULT:   -30.498      5.943      8.795
REMARK INTER + INTRA:         -33.360
REMARK INTER:                 -32.288
REMARK INTRA:                  -1.072
REMARK CONF_INDEPENDENT:        1.790
REMARK UNBOUND:                -1.072
REMARK  6 active torsions:
REMARK  status: ('A' for Active; 'I' for Inactive)
REMARK    1  A    between atoms: C_5  and  N_6 
REMARK       I    between atoms: N_6  and  C_7 
REMARK    2  A    between atoms: C_7  and  C_9 
REMARK    3  A    between atoms: C_9  and  N_10 
REMARK    4  A    between atoms: N_10  and  C_11 
REMARK    5  A    between atoms: C_20  and  C_21 
REMARK       I    between atoms: C_21  and  N_23 
REMARK    6  A    between atoms: N_23  and  C_24 
ROOT
ATOM      1  C   UNL d   1      24.585 -17.204  -0.194  0.00  0.00     0.028 A 
ATOM      2  C   UNL d   1      24.336 -18.570  -0.068  0.00  0.00     0.030 A 
ATOM      3  C   UNL d   1      23.068 -19.108  -0.309  0.00  0.00     0.025 A 
ATOM      4  C   UNL d   1      22.017 -18.284  -0.713  0.00  0.00     0.044 A 
ATOM      5  C   UNL d   1      20.732 -18.847  -0.992  0.00  0.00     0.099 C 
ATOM      6  N   UNL d   1      19.692 -19.325  -1.224  0.00  0.00    -0.191 NA
ATOM      7  C   UNL d   1      22.246 -16.912  -0.846  0.00  0.00     0.025 A 
ATOM      8  C   UNL d   1      23.519 -16.380  -0.577  0.00  0.00     0.030 A 
ENDROOT
BRANCH   1   9
ATOM      9  N   UNL d   1      25.847 -16.687  -0.017  0.00  0.00    -0.381 N 
ATOM     10  H   UNL d   1      25.970 -15.778   0.434  0.00  0.00     0.160 HD
BRANCH   9  11
ATOM     11  C   UNL d   1      27.090 -17.329  -0.490  0.00  0.00     0.223 C 
BRANCH  11  12
ATOM     12  C   UNL d   1      27.635 -16.521  -1.683  0.00  0.00     0.239 C 
ATOM     13  N   UNL d   1      26.712 -15.972  -2.580  0.00  0.00    -0.326 N 
ATOM     14  H   UNL d   1      25.720 -16.105  -2.411  0.00  0.00     0.169 HD
ATOM     15  O   UNL d   1      28.860 -16.410  -1.771  0.00  0.00    -0.271 OA
BRANCH  13  16
ATOM     16  C   UNL d   1      27.071 -15.200  -3.735  0.00  0.00     0.035 A 
ATOM     17  C   UNL d   1      26.351 -14.052  -4.080  0.00  0.00     0.030 A 
ATOM     18  C   UNL d   1      26.726 -13.296  -5.205  0.00  0.00     0.010 A 
ATOM     19  C   UNL d   1      27.823 -13.655  -6.010  0.00  0.00    -0.046 A 
ATOM     20  C   UNL d   1      28.158 -12.782  -7.174  0.00  0.00     0.049 C 
ATOM     21  C   UNL d   1      28.560 -14.803  -5.684  0.00  0.00     0.040 A 
ATOM     22  C   UNL d   1      28.151 -15.548  -4.559  0.00  0.00     0.047 A 
BRANCH  21  23
ATOM     23  C   UNL d   1      29.779 -15.335  -6.411  0.00  0.00     0.252 C 
ATOM     24  O   UNL d   1      30.559 -14.548  -6.942  0.00  0.00    -0.268 OA
ATOM     25  N   UNL d   1      30.001 -16.696  -6.463  0.00  0.00    -0.353 N 
ATOM     26  H   UNL d   1      29.382 -17.354  -6.055  0.00  0.00     0.163 HD
BRANCH  25  27
ATOM     27  C   UNL d   1      31.143 -17.336  -7.076  0.00  0.00     0.076 C 
ATOM     28  C   UNL d   1      32.320 -17.317  -6.117  0.00  0.00     0.032 C 
ATOM     29  C   UNL d   1      30.794 -18.792  -7.419  0.00  0.00     0.032 C 
ENDBRANCH  25  27
ENDBRANCH  21  23
ENDBRANCH  13  16
ENDBRANCH  11  12
ENDBRANCH   9  11
ENDBRANCH   1   9
TORSDOF 6
ENDMDL
