MODEL 1
REMARK VINA RESULT:    -8.584      0.000      0.000
REMARK INTER + INTRA:         -11.326
REMARK INTER:                 -10.075
REMARK INTRA:                  -1.251
REMARK CONF_INDEPENDENT:        1.492
REMARK UNBOUND:                -1.251
REMARK  5 active torsions:
REMARK  status: ('A' for Active; 'I' for Inactive)
REMARK    1  A    between atoms: S_2  and  C_3 
REMARK    2  A    between atoms: C_8  and  N_9 
REMARK       I    between atoms: N_9  and  C_10 
REMARK    3  A    between atoms: C_10  and  C_12 
REMARK    4  A    between atoms: C_12  and  N_14 
REMARK       I    between atoms: N_14  and  C_15 
REMARK    5  A    between atoms: C_15  and  C_17 
ROOT
ATOM      1  N   UNL d   1      25.793 -16.663  -2.141  0.00  0.00    -0.324 N 
ATOM      2  C   UNL d   1      24.767 -17.001  -1.251  0.00  0.00     0.244 C 
ATOM      3  O   UNL d   1      23.879 -16.256  -0.816  0.00  0.00    -0.271 OA
ATOM      4  H   UNL d   1      26.638 -17.225  -2.092  0.00  0.00     0.169 HD
ENDROOT
BRANCH   2   5
ATOM      5  C   UNL d   1      24.783 -18.333  -0.509  0.00  0.00     0.173 C 
ATOM      6  C   UNL d   1      25.741 -18.077   0.645  0.00  0.00     0.042 C 
BRANCH   5   7
ATOM      7  N   UNL d   1      23.377 -18.516  -0.027  0.00  0.00    -0.344 N 
ATOM      8  C   UNL d   1      22.354 -18.977  -0.808  0.00  0.00     0.252 C 
ATOM      9  O   UNL d   1      22.487 -19.182  -2.019  0.00  0.00    -0.268 OA
ATOM     10  H   UNL d   1      23.281 -18.530   0.991  0.00  0.00     0.163 HD
BRANCH   8  11
ATOM     11  C   UNL d   1      21.029 -19.242  -0.178  0.00  0.00     0.032 A 
ATOM     12  C   UNL d   1      20.964 -19.324   1.223  0.00  0.00     0.017 A 
ATOM     13  C   UNL d   1      19.824 -19.827   1.853  0.00  0.00     0.001 A 
ATOM     14  C   UNL d   1      18.713 -20.190   1.093  0.00  0.00     0.000 A 
ATOM     15  C   UNL d   1      18.754 -20.071  -0.299  0.00  0.00     0.001 A 
ATOM     16  C   UNL d   1      19.910 -19.600  -0.938  0.00  0.00     0.017 A 
ENDBRANCH   8  11
ENDBRANCH   5   7
ENDBRANCH   2   5
BRANCH   1  17
ATOM     17  C   UNL d   1      25.897 -15.470  -2.981  0.00  0.00     0.051 C 
ATOM     18  C   UNL d   1      24.784 -14.588  -3.012  0.00  0.00     0.031 C 
ATOM     19  C   UNL d   1      24.802 -13.409  -3.786  0.00  0.00     0.002 C 
ATOM     20  C   UNL d   1      25.915 -13.099  -4.560  0.00  0.00     0.002 C 
ATOM     21  C   UNL d   1      27.006 -13.964  -4.574  0.00  0.00     0.021 C 
ATOM     22  C   UNL d   1      27.048 -15.092  -3.741  0.00  0.00     0.026 C 
BRANCH  22  23
ATOM     23  S   UNL d   1      28.585 -15.944  -3.503  0.00  0.00    -0.132 SA
ATOM     24  C   UNL d   1      29.221 -15.901  -1.864  0.00  0.00     0.095 C 
ENDBRANCH  22  23
ENDBRANCH   1  17
TORSDOF 5
ENDMDL
MODEL 2
REMARK VINA RESULT:    -7.252      5.045      6.732
REMARK INTER + INTRA:         -10.216
REMARK INTER:                  -8.743
REMARK INTRA:                  -1.473
REMARK CONF_INDEPENDENT:        1.492
REMARK UNBOUND:                -1.473
REMARK  5 active torsions:
REMARK  status: ('A' for Active; 'I' for Inactive)
REMARK    1  A    between atoms: S_2  and  C_3 
REMARK    2  A    between atoms: C_8  and  N_9 
REMARK       I    between atoms: N_9  and  C_10 
REMARK    3  A    between atoms: C_10  and  C_12 
REMARK    4  A    between atoms: C_12  and  N_14 
REMARK       I    between atoms: N_14  and  C_15 
REMARK    5  A    between atoms: C_15  and  C_17 
ROOT
ATOM      1  N   UNL d   1      28.232 -14.497   2.640  0.00  0.00    -0.324 N 
ATOM      2  C   UNL d   1      27.348 -14.136   1.616  0.00  0.00     0.244 C 
ATOM      3  O   UNL d   1      26.304 -13.480   1.726  0.00  0.00    -0.271 OA
ATOM      4  H   UNL d   1      28.790 -15.331   2.484  0.00  0.00     0.169 HD
ENDROOT
BRANCH   2   5
ATOM      5  C   UNL d   1      27.470 -14.752   0.226  0.00  0.00     0.173 C 
ATOM      6  C   UNL d   1      28.584 -15.774   0.394  0.00  0.00     0.042 C 
BRANCH   5   7
ATOM      7  N   UNL d   1      26.148 -15.412  -0.013  0.00  0.00    -0.344 N 
ATOM      8  C   UNL d   1      25.986 -16.563  -0.733  0.00  0.00     0.252 C 
ATOM      9  O   UNL d   1      26.918 -17.100  -1.341  0.00  0.00    -0.268 OA
ATOM     10  H   UNL d   1      25.404 -15.102   0.616  0.00  0.00     0.163 HD
BRANCH   8  11
ATOM     11  C   UNL d   1      24.637 -17.195  -0.787  0.00  0.00     0.032 A 
ATOM     12  C   UNL d   1      23.516 -16.359  -0.911  0.00  0.00     0.017 A 
ATOM     13  C   UNL d   1      22.229 -16.860  -0.701  0.00  0.00     0.001 A 
ATOM     14  C   UNL d   1      22.046 -18.216  -0.433  0.00  0.00     0.000 A 
ATOM     15  C   UNL d   1      23.154 -19.064  -0.352  0.00  0.00     0.001 A 
ATOM     16  C   UNL d   1      24.450 -18.558  -0.526  0.00  0.00     0.017 A 
ENDBRANCH   8  11
ENDBRANCH   5   7
ENDBRANCH   2   5
BRANCH   1  17
ATOM     17  C   UNL d   1      28.300 -13.957   3.998  0.00  0.00     0.051 C 
ATOM     18  C   UNL d   1      28.672 -14.845   5.042  0.00  0.00     0.031 C 
ATOM     19  C   UNL d   1      28.773 -14.407   6.378  0.00  0.00     0.002 C 
ATOM     20  C   UNL d   1      28.483 -13.087   6.705  0.00  0.00     0.002 C 
ATOM     21  C   UNL d   1      28.082 -12.204   5.705  0.00  0.00     0.021 C 
ATOM     22  C   UNL d   1      28.066 -12.593   4.358  0.00  0.00     0.026 C 
BRANCH  22  23
ATOM     23  S   UNL d   1      27.925 -11.356   3.094  0.00  0.00    -0.132 SA
ATOM     24  C   UNL d   1      26.933  -9.966   3.512  0.00  0.00     0.095 C 
ENDBRANCH  22  23
ENDBRANCH   1  17
TORSDOF 5
ENDMDL
MODEL 3
REMARK VINA RESULT:    -7.182      3.134      8.014
REMARK INTER + INTRA:         -10.680
REMARK INTER:                  -8.673
REMARK INTRA:                  -2.007
REMARK CONF_INDEPENDENT:        1.492
REMARK UNBOUND:                -2.007
REMARK  5 active torsions:
REMARK  status: ('A' for Active; 'I' for Inactive)
REMARK    1  A    between atoms: S_2  and  C_3 
REMARK    2  A    between atoms: C_8  and  N_9 
REMARK       I    between atoms: N_9  and  C_10 
REMARK    3  A    between atoms: C_10  and  C_12 
REMARK    4  A    between atoms: C_12  and  N_14 
REMARK       I    between atoms: N_14  and  C_15 
REMARK    5  A    between atoms: C_15  and  C_17 
ROOT
ATOM      1  N   UNL d   1      25.752 -15.263  -2.796  0.00  0.00    -0.324 N 
ATOM      2  C   UNL d   1      24.958 -14.221  -3.289  0.00  0.00     0.244 C 
ATOM      3  O   UNL d   1      23.735 -14.084  -3.153  0.00  0.00    -0.271 OA
ATOM      4  H   UNL d   1      26.612 -15.455  -3.301  0.00  0.00     0.169 HD
ENDROOT
BRANCH   2   5
ATOM      5  C   UNL d   1      25.517 -13.223  -4.298  0.00  0.00     0.173 C 
ATOM      6  C   UNL d   1      25.534 -11.915  -3.521  0.00  0.00     0.042 C 
BRANCH   5   7
ATOM      7  N   UNL d   1      26.903 -13.710  -4.586  0.00  0.00    -0.344 N 
ATOM      8  C   UNL d   1      27.184 -14.888  -5.220  0.00  0.00     0.252 C 
ATOM      9  O   UNL d   1      26.306 -15.706  -5.516  0.00  0.00    -0.268 OA
ATOM     10  H   UNL d   1      27.624 -12.988  -4.521  0.00  0.00     0.163 HD
BRANCH   8  11
ATOM     11  C   UNL d   1      28.599 -15.200  -5.568  0.00  0.00     0.032 A 
ATOM     12  C   UNL d   1      29.186 -14.511  -6.642  0.00  0.00     0.017 A 
ATOM     13  C   UNL d   1      30.401 -14.940  -7.182  0.00  0.00     0.001 A 
ATOM     14  C   UNL d   1      31.073 -16.019  -6.610  0.00  0.00     0.000 A 
ATOM     15  C   UNL d   1      30.517 -16.683  -5.514  0.00  0.00     0.001 A 
ATOM     16  C   UNL d   1      29.280 -16.278  -4.991  0.00  0.00     0.017 A 
ENDBRANCH   8  11
ENDBRANCH   5   7
ENDBRANCH   2   5
BRANCH   1  17
ATOM     17  C   UNL d   1      25.401 -16.257  -1.782  0.00  0.00     0.051 C 
ATOM     18  C   UNL d   1      24.030 -16.601  -1.645  0.00  0.00     0.031 C 
ATOM     19  C   UNL d   1      23.603 -17.558  -0.700  0.00  0.00     0.002 C 
ATOM     20  C   UNL d   1      24.526 -18.169   0.140  0.00  0.00     0.002 C 
ATOM     21  C   UNL d   1      25.872 -17.825   0.050  0.00  0.00     0.021 C 
ATOM     22  C   UNL d   1      26.331 -16.947  -0.944  0.00  0.00     0.026 C 
BRANCH  22  23
ATOM     23  S   UNL d   1      28.071 -16.831  -1.269  0.00  0.00    -0.132 SA
ATOM     24  C   UNL d   1      28.666 -15.208  -1.592  0.00  0.00     0.095 C 
ENDBRANCH  22  23
ENDBRANCH   1  17
TORSDOF 5
ENDMDL
MODEL 4
REMARK VINA RESULT:    -7.081      3.285      8.035
REMARK INTER + INTRA:         -10.580
REMARK INTER:                  -8.572
REMARK INTRA:                  -2.007
REMARK CONF_INDEPENDENT:        1.492
REMARK UNBOUND:                -2.007
REMARK  5 active torsions:
REMARK  status: ('A' for Active; 'I' for Inactive)
REMARK    1  A    between atoms: S_2  and  C_3 
REMARK    2  A    between atoms: C_8  and  N_9 
REMARK       I    between atoms: N_9  and  C_10 
REMARK    3  A    between atoms: C_10  and  C_12 
REMARK    4  A    between atoms: C_12  and  N_14 
REMARK       I    between atoms: N_14  and  C_15 
REMARK    5  A    between atoms: C_15  and  C_17 
ROOT
ATOM      1  N   UNL d   1      25.882 -15.088  -2.911  0.00  0.00    -0.324 N 
ATOM      2  C   UNL d   1      25.030 -14.126  -3.468  0.00  0.00     0.244 C 
ATOM      3  O   UNL d   1      23.796 -14.075  -3.374  0.00  0.00    -0.271 OA
ATOM      4  H   UNL d   1      26.769 -15.234  -3.382  0.00  0.00     0.169 HD
ENDROOT
BRANCH   2   5
ATOM      5  C   UNL d   1      25.547 -13.127  -4.499  0.00  0.00     0.173 C 
ATOM      6  C   UNL d   1      25.612 -11.824  -3.718  0.00  0.00     0.042 C 
BRANCH   5   7
ATOM      7  N   UNL d   1      26.913 -13.625  -4.856  0.00  0.00    -0.344 N 
ATOM      8  C   UNL d   1      27.163 -14.856  -5.394  0.00  0.00     0.252 C 
ATOM      9  O   UNL d   1      26.281 -15.709  -5.532  0.00  0.00    -0.268 OA
ATOM     10  H   UNL d   1      27.622 -12.890  -4.924  0.00  0.00     0.163 HD
BRANCH   8  11
ATOM     11  C   UNL d   1      28.551 -15.184  -5.831  0.00  0.00     0.032 A 
ATOM     12  C   UNL d   1      29.267 -16.146  -5.101  0.00  0.00     0.017 A 
ATOM     13  C   UNL d   1      30.643 -16.302  -5.291  0.00  0.00     0.001 A 
ATOM     14  C   UNL d   1      31.301 -15.546  -6.259  0.00  0.00     0.000 A 
ATOM     15  C   UNL d   1      30.586 -14.618  -7.021  0.00  0.00     0.001 A 
ATOM     16  C   UNL d   1      29.212 -14.432  -6.809  0.00  0.00     0.017 A 
ENDBRANCH   8  11
ENDBRANCH   5   7
ENDBRANCH   2   5
BRANCH   1  17
ATOM     17  C   UNL d   1      25.571 -16.066  -1.870  0.00  0.00     0.051 C 
ATOM     18  C   UNL d   1      24.203 -16.377  -1.645  0.00  0.00     0.031 C 
ATOM     19  C   UNL d   1      23.814 -17.317  -0.668  0.00  0.00     0.002 C 
ATOM     20  C   UNL d   1      24.773 -17.945   0.118  0.00  0.00     0.002 C 
ATOM     21  C   UNL d   1      26.118 -17.633  -0.058  0.00  0.00     0.021 C 
ATOM     22  C   UNL d   1      26.535 -16.773  -1.085  0.00  0.00     0.026 C 
BRANCH  22  23
ATOM     23  S   UNL d   1      28.254 -16.700  -1.519  0.00  0.00    -0.132 SA
ATOM     24  C   UNL d   1      28.899 -15.082  -1.757  0.00  0.00     0.095 C 
ENDBRANCH  22  23
ENDBRANCH   1  17
TORSDOF 5
ENDMDL
MODEL 5
REMARK VINA RESULT:    -6.978      3.041      8.583
REMARK INTER + INTRA:         -10.336
REMARK INTER:                  -8.469
REMARK INTRA:                  -1.867
REMARK CONF_INDEPENDENT:        1.492
REMARK UNBOUND:                -1.867
REMARK  5 active torsions:
REMARK  status: ('A' for Active; 'I' for Inactive)
REMARK    1  A    between atoms: S_2  and  C_3 
REMARK    2  A    between atoms: C_8  and  N_9 
REMARK       I    between atoms: N_9  and  C_10 
REMARK    3  A    between atoms: C_10  and  C_12 
REMARK    4  A    between atoms: C_12  and  N_14 
REMARK       I    between atoms: N_14  and  C_15 
REMARK    5  A    between atoms: C_15  and  C_17 
ROOT
ATOM      1  N   UNL d   1      25.855 -15.713  -2.675  0.00  0.00    -0.324 N 
ATOM      2  C   UNL d   1      25.851 -14.313  -2.643  0.00  0.00     0.244 C 
ATOM      3  O   UNL d   1      25.784 -13.588  -1.642  0.00  0.00    -0.271 OA
ATOM      4  H   UNL d   1      25.517 -16.147  -3.528  0.00  0.00     0.169 HD
ENDROOT
BRANCH   2   5
ATOM      5  C   UNL d   1      25.681 -13.503  -3.925  0.00  0.00     0.173 C 
ATOM      6  C   UNL d   1      25.529 -12.077  -3.417  0.00  0.00     0.042 C 
BRANCH   5   7
ATOM      7  N   UNL d   1      26.969 -13.690  -4.664  0.00  0.00    -0.344 N 
ATOM      8  C   UNL d   1      27.283 -14.808  -5.385  0.00  0.00     0.252 C 
ATOM      9  O   UNL d   1      26.562 -15.811  -5.397  0.00  0.00    -0.268 OA
ATOM     10  H   UNL d   1      27.492 -12.825  -4.822  0.00  0.00     0.163 HD
BRANCH   8  11
ATOM     11  C   UNL d   1      28.540 -14.820  -6.187  0.00  0.00     0.032 A 
ATOM     12  C   UNL d   1      29.455 -15.863  -5.972  0.00  0.00     0.017 A 
ATOM     13  C   UNL d   1      30.751 -15.788  -6.489  0.00  0.00     0.001 A 
ATOM     14  C   UNL d   1      31.122 -14.703  -7.280  0.00  0.00     0.000 A 
ATOM     15  C   UNL d   1      30.203 -13.682  -7.535  0.00  0.00     0.001 A 
ATOM     16  C   UNL d   1      28.912 -13.735  -6.989  0.00  0.00     0.017 A 
ENDBRANCH   8  11
ENDBRANCH   5   7
ENDBRANCH   2   5
BRANCH   1  17
ATOM     17  C   UNL d   1      26.074 -16.635  -1.561  0.00  0.00     0.051 C 
ATOM     18  C   UNL d   1      27.416 -16.932  -1.207  0.00  0.00     0.031 C 
ATOM     19  C   UNL d   1      27.719 -17.802  -0.139  0.00  0.00     0.002 C 
ATOM     20  C   UNL d   1      26.695 -18.411   0.578  0.00  0.00     0.002 C 
ATOM     21  C   UNL d   1      25.370 -18.164   0.229  0.00  0.00     0.021 C 
ATOM     22  C   UNL d   1      25.045 -17.231  -0.766  0.00  0.00     0.026 C 
BRANCH  22  23
ATOM     23  S   UNL d   1      23.370 -16.664  -0.918  0.00  0.00    -0.132 SA
ATOM     24  C   UNL d   1      22.143 -17.920  -0.826  0.00  0.00     0.095 C 
ENDBRANCH  22  23
ENDBRANCH   1  17
TORSDOF 5
ENDMDL
MODEL 6
REMARK VINA RESULT:    -6.875      3.301      8.534
REMARK INTER + INTRA:         -10.070
REMARK INTER:                  -8.366
REMARK INTRA:                  -1.703
REMARK CONF_INDEPENDENT:        1.492
REMARK UNBOUND:                -1.703
REMARK  5 active torsions:
REMARK  status: ('A' for Active; 'I' for Inactive)
REMARK    1  A    between atoms: S_2  and  C_3 
REMARK    2  A    between atoms: C_8  and  N_9 
REMARK       I    between atoms: N_9  and  C_10 
REMARK    3  A    between atoms: C_10  and  C_12 
REMARK    4  A    between atoms: C_12  and  N_14 
REMARK       I    between atoms: N_14  and  C_15 
REMARK    5  A    between atoms: C_15  and  C_17 
ROOT
ATOM      1  N   UNL d   1      25.821 -15.692  -2.080  0.00  0.00    -0.324 N 
ATOM      2  C   UNL d   1      25.449 -14.669  -2.960  0.00  0.00     0.244 C 
ATOM      3  O   UNL d   1      24.316 -14.444  -3.409  0.00  0.00    -0.271 OA
ATOM      4  H   UNL d   1      26.791 -15.992  -2.119  0.00  0.00     0.169 HD
ENDROOT
BRANCH   2   5
ATOM      5  C   UNL d   1      26.503 -13.831  -3.676  0.00  0.00     0.173 C 
ATOM      6  C   UNL d   1      26.725 -14.587  -4.977  0.00  0.00     0.042 C 
BRANCH   5   7
ATOM      7  N   UNL d   1      25.840 -12.510  -3.913  0.00  0.00    -0.344 N 
ATOM      8  C   UNL d   1      26.493 -11.309  -3.890  0.00  0.00     0.252 C 
ATOM      9  O   UNL d   1      27.680 -11.209  -3.561  0.00  0.00    -0.268 OA
ATOM     10  H   UNL d   1      24.921 -12.576  -4.359  0.00  0.00     0.163 HD
BRANCH   8  11
ATOM     11  C   UNL d   1      25.750 -10.076  -4.274  0.00  0.00     0.032 A 
ATOM     12  C   UNL d   1      25.314  -9.949  -5.603  0.00  0.00     0.017 A 
ATOM     13  C   UNL d   1      24.855  -8.721  -6.086  0.00  0.00     0.001 A 
ATOM     14  C   UNL d   1      24.763  -7.628  -5.227  0.00  0.00     0.000 A 
ATOM     15  C   UNL d   1      25.152  -7.757  -3.892  0.00  0.00     0.001 A 
ATOM     16  C   UNL d   1      25.648  -8.978  -3.411  0.00  0.00     0.017 A 
ENDBRANCH   8  11
ENDBRANCH   5   7
ENDBRANCH   2   5
BRANCH   1  17
ATOM     17  C   UNL d   1      24.949 -16.537  -1.265  0.00  0.00     0.051 C 
ATOM     18  C   UNL d   1      23.549 -16.434  -1.475  0.00  0.00     0.031 C 
ATOM     19  C   UNL d   1      22.635 -17.219  -0.741  0.00  0.00     0.002 C 
ATOM     20  C   UNL d   1      23.095 -18.100   0.231  0.00  0.00     0.002 C 
ATOM     21  C   UNL d   1      24.461 -18.195   0.481  0.00  0.00     0.021 C 
ATOM     22  C   UNL d   1      25.393 -17.495  -0.300  0.00  0.00     0.026 C 
BRANCH  22  23
ATOM     23  S   UNL d   1      27.111 -17.928  -0.209  0.00  0.00    -0.132 SA
ATOM     24  C   UNL d   1      28.216 -16.574  -0.012  0.00  0.00     0.095 C 
ENDBRANCH  22  23
ENDBRANCH   1  17
TORSDOF 5
ENDMDL
MODEL 7
REMARK VINA RESULT:    -6.869      4.335      8.727
REMARK INTER + INTRA:         -10.279
REMARK INTER:                  -8.361
REMARK INTRA:                  -1.918
REMARK CONF_INDEPENDENT:        1.492
REMARK UNBOUND:                -1.918
REMARK  5 active torsions:
REMARK  status: ('A' for Active; 'I' for Inactive)
REMARK    1  A    between atoms: S_2  and  C_3 
REMARK    2  A    between atoms: C_8  and  N_9 
REMARK       I    between atoms: N_9  and  C_10 
REMARK    3  A    between atoms: C_10  and  C_12 
REMARK    4  A    between atoms: C_12  and  N_14 
REMARK       I    between atoms: N_14  and  C_15 
REMARK    5  A    between atoms: C_15  and  C_17 
ROOT
ATOM      1  N   UNL d   1      27.607 -15.193  -3.674  0.00  0.00    -0.324 N 
ATOM      2  C   UNL d   1      27.420 -15.056  -5.055  0.00  0.00     0.244 C 
ATOM      3  O   UNL d   1      26.526 -15.567  -5.743  0.00  0.00    -0.271 OA
ATOM      4  H   UNL d   1      28.555 -15.068  -3.331  0.00  0.00     0.169 HD
ENDROOT
BRANCH   2   5
ATOM      5  C   UNL d   1      28.496 -14.420  -5.930  0.00  0.00     0.173 C 
ATOM      6  C   UNL d   1      29.288 -13.573  -4.947  0.00  0.00     0.042 C 
BRANCH   5   7
ATOM      7  N   UNL d   1      29.302 -15.575  -6.437  0.00  0.00    -0.344 N 
ATOM      8  C   UNL d   1      29.869 -16.525  -5.634  0.00  0.00     0.252 C 
ATOM      9  O   UNL d   1      29.850 -16.446  -4.401  0.00  0.00    -0.268 OA
ATOM     10  H   UNL d   1      29.182 -15.764  -7.435  0.00  0.00     0.163 HD
BRANCH   8  11
ATOM     11  C   UNL d   1      30.536 -17.699  -6.266  0.00  0.00     0.032 A 
ATOM     12  C   UNL d   1      31.142 -17.523  -7.521  0.00  0.00     0.017 A 
ATOM     13  C   UNL d   1      31.543 -18.628  -8.276  0.00  0.00     0.001 A 
ATOM     14  C   UNL d   1      31.404 -19.913  -7.756  0.00  0.00     0.000 A 
ATOM     15  C   UNL d   1      30.842 -20.094  -6.490  0.00  0.00     0.001 A 
ATOM     16  C   UNL d   1      30.405 -18.990  -5.742  0.00  0.00     0.017 A 
ENDBRANCH   8  11
ENDBRANCH   5   7
ENDBRANCH   2   5
BRANCH   1  17
ATOM     17  C   UNL d   1      26.660 -15.711  -2.687  0.00  0.00     0.051 C 
ATOM     18  C   UNL d   1      27.166 -16.570  -1.676  0.00  0.00     0.031 C 
ATOM     19  C   UNL d   1      26.325 -17.106  -0.678  0.00  0.00     0.002 C 
ATOM     20  C   UNL d   1      24.965 -16.817  -0.682  0.00  0.00     0.002 C 
ATOM     21  C   UNL d   1      24.437 -16.005  -1.682  0.00  0.00     0.021 C 
ATOM     22  C   UNL d   1      25.268 -15.386  -2.628  0.00  0.00     0.026 C 
BRANCH  22  23
ATOM     23  S   UNL d   1      24.622 -14.075  -3.633  0.00  0.00    -0.132 SA
ATOM     24  C   UNL d   1      25.531 -12.570  -3.578  0.00  0.00     0.095 C 
ENDBRANCH  22  23
ENDBRANCH   1  17
TORSDOF 5
ENDMDL
MODEL 8
REMARK VINA RESULT:    -6.680      4.093      7.568
REMARK INTER + INTRA:         -10.170
REMARK INTER:                  -8.172
REMARK INTRA:                  -1.999
REMARK CONF_INDEPENDENT:        1.492
REMARK UNBOUND:                -1.999
REMARK  5 active torsions:
REMARK  status: ('A' for Active; 'I' for Inactive)
REMARK    1  A    between atoms: S_2  and  C_3 
REMARK    2  A    between atoms: C_8  and  N_9 
REMARK       I    between atoms: N_9  and  C_10 
REMARK    3  A    between atoms: C_10  and  C_12 
REMARK    4  A    between atoms: C_12  and  N_14 
REMARK       I    between atoms: N_14  and  C_15 
REMARK    5  A    between atoms: C_15  and  C_17 
ROOT
ATOM      1  N   UNL d   1      27.076 -16.072  -0.406  0.00  0.00    -0.324 N 
ATOM      2  C   UNL d   1      28.363 -16.621  -0.407  0.00  0.00     0.244 C 
ATOM      3  O   UNL d   1      28.666 -17.818  -0.300  0.00  0.00    -0.271 OA
ATOM      4  H   UNL d   1      26.996 -15.106  -0.103  0.00  0.00     0.169 HD
ENDROOT
BRANCH   2   5
ATOM      5  C   UNL d   1      29.595 -15.728  -0.296  0.00  0.00     0.173 C 
ATOM      6  C   UNL d   1      29.305 -14.612  -1.287  0.00  0.00     0.042 C 
BRANCH   5   7
ATOM      7  N   UNL d   1      29.576 -15.231   1.116  0.00  0.00    -0.344 N 
ATOM      8  C   UNL d   1      28.652 -14.351   1.606  0.00  0.00     0.252 C 
ATOM      9  O   UNL d   1      27.811 -13.806   0.885  0.00  0.00    -0.268 OA
ATOM     10  H   UNL d   1      30.133 -15.792   1.765  0.00  0.00     0.163 HD
BRANCH   8  11
ATOM     11  C   UNL d   1      28.659 -14.035   3.063  0.00  0.00     0.032 A 
ATOM     12  C   UNL d   1      29.900 -13.894   3.706  0.00  0.00     0.017 A 
ATOM     13  C   UNL d   1      29.977 -13.865   5.101  0.00  0.00     0.001 A 
ATOM     14  C   UNL d   1      28.811 -13.907   5.862  0.00  0.00     0.000 A 
ATOM     15  C   UNL d   1      27.569 -14.003   5.228  0.00  0.00     0.001 A 
ATOM     16  C   UNL d   1      27.489 -14.070   3.830  0.00  0.00     0.017 A 
ENDBRANCH   8  11
ENDBRANCH   5   7
ENDBRANCH   2   5
BRANCH   1  17
ATOM     17  C   UNL d   1      25.802 -16.770  -0.573  0.00  0.00     0.051 C 
ATOM     18  C   UNL d   1      25.518 -17.844   0.312  0.00  0.00     0.031 C 
ATOM     19  C   UNL d   1      24.309 -18.565   0.229  0.00  0.00     0.002 C 
ATOM     20  C   UNL d   1      23.372 -18.248  -0.749  0.00  0.00     0.002 C 
ATOM     21  C   UNL d   1      23.640 -17.222  -1.650  0.00  0.00     0.021 C 
ATOM     22  C   UNL d   1      24.792 -16.431  -1.528  0.00  0.00     0.026 C 
BRANCH  22  23
ATOM     23  S   UNL d   1      24.911 -14.915  -2.441  0.00  0.00    -0.132 SA
ATOM     24  C   UNL d   1      25.947 -14.973  -3.860  0.00  0.00     0.095 C 
ENDBRANCH  22  23
ENDBRANCH   1  17
TORSDOF 5
ENDMDL
MODEL 9
REMARK VINA RESULT:    -6.578      2.964      7.935
REMARK INTER + INTRA:         -10.222
REMARK INTER:                  -8.070
REMARK INTRA:                  -2.153
REMARK CONF_INDEPENDENT:        1.492
REMARK UNBOUND:                -2.153
REMARK  5 active torsions:
REMARK  status: ('A' for Active; 'I' for Inactive)
REMARK    1  A    between atoms: S_2  and  C_3 
REMARK    2  A    between atoms: C_8  and  N_9 
REMARK       I    between atoms: N_9  and  C_10 
REMARK    3  A    between atoms: C_10  and  C_12 
REMARK    4  A    between atoms: C_12  and  N_14 
REMARK       I    between atoms: N_14  and  C_15 
REMARK    5  A    between atoms: C_15  and  C_17 
ROOT
ATOM      1  N   UNL d   1      25.848 -15.211  -1.767  0.00  0.00    -0.324 N 
ATOM      2  C   UNL d   1      25.588 -14.516  -2.955  0.00  0.00     0.244 C 
ATOM      3  O   UNL d   1      24.780 -14.825  -3.841  0.00  0.00    -0.271 OA
ATOM      4  H   UNL d   1      26.767 -15.079  -1.358  0.00  0.00     0.169 HD
ENDROOT
BRANCH   2   5
ATOM      5  C   UNL d   1      26.495 -13.376  -3.408  0.00  0.00     0.173 C 
ATOM      6  C   UNL d   1      27.020 -12.808  -2.099  0.00  0.00     0.042 C 
BRANCH   5   7
ATOM      7  N   UNL d   1      27.581 -14.045  -4.193  0.00  0.00    -0.344 N 
ATOM      8  C   UNL d   1      28.403 -15.015  -3.691  0.00  0.00     0.252 C 
ATOM      9  O   UNL d   1      28.385 -15.346  -2.501  0.00  0.00    -0.268 OA
ATOM     10  H   UNL d   1      27.499 -13.928  -5.206  0.00  0.00     0.163 HD
BRANCH   8  11
ATOM     11  C   UNL d   1      29.356 -15.699  -4.610  0.00  0.00     0.032 A 
ATOM     12  C   UNL d   1      29.486 -15.207  -5.919  0.00  0.00     0.017 A 
ATOM     13  C   UNL d   1      30.151 -15.953  -6.895  0.00  0.00     0.001 A 
ATOM     14  C   UNL d   1      30.750 -17.165  -6.557  0.00  0.00     0.000 A 
ATOM     15  C   UNL d   1      30.662 -17.640  -5.246  0.00  0.00     0.001 A 
ATOM     16  C   UNL d   1      29.965 -16.913  -4.270  0.00  0.00     0.017 A 
ENDBRANCH   8  11
ENDBRANCH   5   7
ENDBRANCH   2   5
BRANCH   1  17
ATOM     17  C   UNL d   1      25.049 -16.272  -1.156  0.00  0.00     0.051 C 
ATOM     18  C   UNL d   1      23.650 -16.267  -1.400  0.00  0.00     0.031 C 
ATOM     19  C   UNL d   1      22.805 -17.258  -0.858  0.00  0.00     0.002 C 
ATOM     20  C   UNL d   1      23.332 -18.257  -0.046  0.00  0.00     0.002 C 
ATOM     21  C   UNL d   1      24.695 -18.265   0.237  0.00  0.00     0.021 C 
ATOM     22  C   UNL d   1      25.567 -17.346  -0.365  0.00  0.00     0.026 C 
BRANCH  22  23
ATOM     23  S   UNL d   1      27.317 -17.621  -0.285  0.00  0.00    -0.132 SA
ATOM     24  C   UNL d   1      28.263 -16.265   0.315  0.00  0.00     0.095 C 
ENDBRANCH  22  23
ENDBRANCH   1  17
TORSDOF 5
ENDMDL
