MODEL 1
REMARK VINA RESULT:    -8.589      0.000      0.000
REMARK INTER + INTRA:         -15.621
REMARK INTER:                 -12.765
REMARK INTRA:                  -2.856
REMARK CONF_INDEPENDENT:        4.176
REMARK UNBOUND:                -2.856
REMARK  14 active torsions:
REMARK  status: ('A' for Active; 'I' for Inactive)
REMARK    1  A    between atoms: C_2  and  C_3 
REMARK    2  A    between atoms: C_3  and  C_4 
REMARK    3  A    between atoms: C_4  and  N_5 
REMARK       I    between atoms: N_5  and  C_6 
REMARK    4  A    between atoms: C_8  and  C_6 
REMARK    5  A    between atoms: C_8  and  N_18 
REMARK    6  A    between atoms: C_8  and  C_9 
REMARK    7  A    between atoms: C_10  and  O_11 
REMARK    8  A    between atoms: C_13  and  O_14 
REMARK    9  A    between atoms: C_16  and  O_17 
REMARK   10  A    between atoms: N_18  and  C_19 
REMARK       I    between atoms: N_18  and  C_22 
REMARK   11  A    between atoms: C_19  and  C_20 
REMARK   12  A    between atoms: C_22  and  C_24 
REMARK   13  A    between atoms: C_24  and  N_25 
REMARK       I    between atoms: N_25  and  C_26 
REMARK   14  A    between atoms: C_26  and  C_28 
ROOT
ATOM      1  C   UNL d   1      26.984 -16.317  -0.324  0.00  0.00     0.218 C 
ENDROOT
BRANCH   1   2
ATOM      2  N   UNL d   1      25.679 -16.595  -1.139  0.00  0.00    -0.333 N 
ATOM      3  C   UNL d   1      24.632 -17.307  -0.507  0.00  0.00     0.238 C 
ATOM      4  O   UNL d   1      24.787 -17.857   0.592  0.00  0.00    -0.272 OA
BRANCH   2   5
ATOM      5  C   UNL d   1      25.464 -16.207  -2.558  0.00  0.00     0.127 C 
BRANCH   5   6
ATOM      6  C   UNL d   1      24.990 -14.807  -2.809  0.00  0.00     0.015 C 
ATOM      7  C   UNL d   1      25.192 -14.080  -4.099  0.00  0.00     0.006 C 
ENDBRANCH   5   6
ENDBRANCH   2   5
BRANCH   3   8
ATOM      8  C   UNL d   1      23.228 -17.336  -1.164  0.00  0.00     0.225 C 
BRANCH   8   9
ATOM      9  N   UNL d   1      22.225 -17.957  -0.292  0.00  0.00    -0.348 N 
ATOM     10  C   UNL d   1      21.369 -18.934  -0.767  0.00  0.00     0.252 C 
ATOM     11  O   UNL d   1      21.384 -19.324  -1.922  0.00  0.00    -0.268 OA
ATOM     12  H   UNL d   1      22.250 -17.721   0.694  0.00  0.00     0.163 HD
BRANCH  10  13
ATOM     13  C   UNL d   1      20.382 -19.508   0.200  0.00  0.00     0.032 A 
ATOM     14  C   UNL d   1      20.614 -19.400   1.581  0.00  0.00     0.017 A 
ATOM     15  C   UNL d   1      19.786 -20.070   2.490  0.00  0.00     0.001 A 
ATOM     16  C   UNL d   1      18.694 -20.805   2.030  0.00  0.00     0.000 A 
ATOM     17  C   UNL d   1      18.454 -20.905   0.659  0.00  0.00     0.001 A 
ATOM     18  C   UNL d   1      19.298 -20.266  -0.255  0.00  0.00     0.017 A 
ENDBRANCH  10  13
ENDBRANCH   8   9
ENDBRANCH   3   8
ENDBRANCH   1   2
BRANCH   1  19
ATOM     19  C   UNL d   1      28.345 -16.181  -1.037  0.00  0.00     0.040 C 
ATOM     20  C   UNL d   1      29.282 -17.226  -1.096  0.00  0.00     0.080 C 
ATOM     21  C   UNL d   1      30.471 -17.091  -1.825  0.00  0.00     0.073 C 
ATOM     22  C   UNL d   1      30.715 -15.936  -2.562  0.00  0.00     0.071 C 
ATOM     23  C   UNL d   1      29.822 -14.882  -2.540  0.00  0.00     0.073 C 
ATOM     24  C   UNL d   1      28.698 -14.973  -1.717  0.00  0.00     0.080 C 
BRANCH  20  25
ATOM     25  O   UNL d   1      29.117 -18.457  -0.520  0.00  0.00    -0.360 OA
ATOM     26  H   UNL d   1      29.730 -18.602   0.214  0.00  0.00     0.217 HD
ENDBRANCH  20  25
BRANCH  22  27
ATOM     27  O   UNL d   1      31.826 -15.799  -3.340  0.00  0.00    -0.361 OA
ATOM     28  H   UNL d   1      32.261 -14.961  -3.107  0.00  0.00     0.217 HD
ENDBRANCH  22  27
BRANCH  24  29
ATOM     29  O   UNL d   1      27.790 -13.934  -1.760  0.00  0.00    -0.360 OA
ATOM     30  H   UNL d   1      27.707 -13.549  -0.869  0.00  0.00     0.217 HD
ENDBRANCH  24  29
ENDBRANCH   1  19
BRANCH   1  31
ATOM     31  C   UNL d   1      26.903 -15.124   0.688  0.00  0.00     0.245 C 
ATOM     32  N   UNL d   1      27.791 -15.185   1.725  0.00  0.00    -0.359 N 
ATOM     33  H   UNL d   1      28.625 -15.754   1.598  0.00  0.00     0.162 HD
ATOM     34  O   UNL d   1      26.229 -14.107   0.513  0.00  0.00    -0.271 OA
BRANCH  32  35
ATOM     35  C   UNL d   1      27.798 -14.176   2.729  0.00  0.00     0.122 C 
BRANCH  35  36
ATOM     36  C   UNL d   1      27.793 -14.825   4.095  0.00  0.00     0.019 C 
BRANCH  36  37
ATOM     37  C   UNL d   1      28.935 -14.255   4.913  0.00  0.00    -0.003 C 
ATOM     38  C   UNL d   1      30.254 -14.452   4.200  0.00  0.00     0.005 C 
ENDBRANCH  36  37
ENDBRANCH  35  36
ENDBRANCH  32  35
ENDBRANCH   1  31
TORSDOF 14
ENDMDL
MODEL 2
REMARK VINA RESULT:    -8.570      0.665      1.849
REMARK INTER + INTRA:         -15.618
REMARK INTER:                 -12.746
REMARK INTRA:                  -2.872
REMARK CONF_INDEPENDENT:        4.176
REMARK UNBOUND:                -2.872
REMARK  14 active torsions:
REMARK  status: ('A' for Active; 'I' for Inactive)
REMARK    1  A    between atoms: C_2  and  C_3 
REMARK    2  A    between atoms: C_3  and  C_4 
REMARK    3  A    between atoms: C_4  and  N_5 
REMARK       I    between atoms: N_5  and  C_6 
REMARK    4  A    between atoms: C_8  and  C_6 
REMARK    5  A    between atoms: C_8  and  N_18 
REMARK    6  A    between atoms: C_8  and  C_9 
REMARK    7  A    between atoms: C_10  and  O_11 
REMARK    8  A    between atoms: C_13  and  O_14 
REMARK    9  A    between atoms: C_16  and  O_17 
REMARK   10  A    between atoms: N_18  and  C_19 
REMARK       I    between atoms: N_18  and  C_22 
REMARK   11  A    between atoms: C_19  and  C_20 
REMARK   12  A    between atoms: C_22  and  C_24 
REMARK   13  A    between atoms: C_24  and  N_25 
REMARK       I    between atoms: N_25  and  C_26 
REMARK   14  A    between atoms: C_26  and  C_28 
ROOT
ATOM      1  C   UNL d   1      27.091 -16.221  -0.318  0.00  0.00     0.218 C 
ENDROOT
BRANCH   1   2
ATOM      2  N   UNL d   1      25.760 -16.468  -1.099  0.00  0.00    -0.333 N 
ATOM      3  C   UNL d   1      24.925 -17.533  -0.683  0.00  0.00     0.238 C 
ATOM      4  O   UNL d   1      25.298 -18.366   0.154  0.00  0.00    -0.272 OA
BRANCH   2   5
ATOM      5  C   UNL d   1      25.316 -15.694  -2.289  0.00  0.00     0.127 C 
BRANCH   5   6
ATOM      6  C   UNL d   1      26.304 -15.554  -3.408  0.00  0.00     0.015 C 
ATOM      7  C   UNL d   1      25.919 -15.286  -4.827  0.00  0.00     0.006 C 
ENDBRANCH   5   6
ENDBRANCH   2   5
BRANCH   3   8
ATOM      8  C   UNL d   1      23.476 -17.619  -1.226  0.00  0.00     0.225 C 
BRANCH   8   9
ATOM      9  N   UNL d   1      22.626 -18.476  -0.393  0.00  0.00    -0.348 N 
ATOM     10  C   UNL d   1      21.247 -18.438  -0.501  0.00  0.00     0.252 C 
ATOM     11  O   UNL d   1      20.662 -17.696  -1.270  0.00  0.00    -0.268 OA
ATOM     12  H   UNL d   1      23.085 -19.168   0.189  0.00  0.00     0.163 HD
BRANCH  10  13
ATOM     13  C   UNL d   1      20.467 -19.352   0.391  0.00  0.00     0.032 A 
ATOM     14  C   UNL d   1      19.445 -20.150  -0.148  0.00  0.00     0.017 A 
ATOM     15  C   UNL d   1      18.603 -20.885   0.695  0.00  0.00     0.001 A 
ATOM     16  C   UNL d   1      18.812 -20.871   2.074  0.00  0.00     0.000 A 
ATOM     17  C   UNL d   1      19.833 -20.089   2.613  0.00  0.00     0.001 A 
ATOM     18  C   UNL d   1      20.655 -19.325   1.777  0.00  0.00     0.017 A 
ENDBRANCH  10  13
ENDBRANCH   8   9
ENDBRANCH   3   8
ENDBRANCH   1   2
BRANCH   1  19
ATOM     19  C   UNL d   1      28.439 -16.137  -1.063  0.00  0.00     0.040 C 
ATOM     20  C   UNL d   1      28.911 -14.954  -1.655  0.00  0.00     0.080 C 
ATOM     21  C   UNL d   1      30.179 -14.899  -2.249  0.00  0.00     0.073 C 
ATOM     22  C   UNL d   1      31.024 -16.003  -2.204  0.00  0.00     0.071 C 
ATOM     23  C   UNL d   1      30.608 -17.188  -1.629  0.00  0.00     0.073 C 
ATOM     24  C   UNL d   1      29.301 -17.276  -1.146  0.00  0.00     0.080 C 
BRANCH  20  25
ATOM     25  O   UNL d   1      28.236 -13.763  -1.666  0.00  0.00    -0.360 OA
ATOM     26  H   UNL d   1      28.300 -13.300  -0.819  0.00  0.00     0.217 HD
ENDBRANCH  20  25
BRANCH  22  27
ATOM     27  O   UNL d   1      32.290 -15.962  -2.707  0.00  0.00    -0.361 OA
ATOM     28  H   UNL d   1      32.430 -15.092  -3.116  0.00  0.00     0.217 HD
ENDBRANCH  22  27
BRANCH  24  29
ATOM     29  O   UNL d   1      28.930 -18.450  -0.520  0.00  0.00    -0.360 OA
ATOM     30  H   UNL d   1      29.682 -18.780   0.002  0.00  0.00     0.217 HD
ENDBRANCH  24  29
ENDBRANCH   1  19
BRANCH   1  31
ATOM     31  C   UNL d   1      27.071 -15.012   0.680  0.00  0.00     0.245 C 
ATOM     32  N   UNL d   1      27.779 -15.204   1.833  0.00  0.00    -0.359 N 
ATOM     33  H   UNL d   1      28.513 -15.907   1.823  0.00  0.00     0.162 HD
ATOM     34  O   UNL d   1      26.610 -13.900   0.416  0.00  0.00    -0.271 OA
BRANCH  32  35
ATOM     35  C   UNL d   1      27.814 -14.192   2.834  0.00  0.00     0.122 C 
BRANCH  35  36
ATOM     36  C   UNL d   1      28.096 -14.823   4.179  0.00  0.00     0.019 C 
BRANCH  36  37
ATOM     37  C   UNL d   1      29.066 -13.943   4.941  0.00  0.00    -0.003 C 
ATOM     38  C   UNL d   1      29.119 -14.343   6.398  0.00  0.00     0.005 C 
ENDBRANCH  36  37
ENDBRANCH  35  36
ENDBRANCH  32  35
ENDBRANCH   1  31
TORSDOF 14
ENDMDL
MODEL 3
REMARK VINA RESULT:    -7.982      2.359      5.193
REMARK INTER + INTRA:         -15.297
REMARK INTER:                 -12.158
REMARK INTRA:                  -3.139
REMARK CONF_INDEPENDENT:        4.176
REMARK UNBOUND:                -3.139
REMARK  14 active torsions:
REMARK  status: ('A' for Active; 'I' for Inactive)
REMARK    1  A    between atoms: C_2  and  C_3 
REMARK    2  A    between atoms: C_3  and  C_4 
REMARK    3  A    between atoms: C_4  and  N_5 
REMARK       I    between atoms: N_5  and  C_6 
REMARK    4  A    between atoms: C_8  and  C_6 
REMARK    5  A    between atoms: C_8  and  N_18 
REMARK    6  A    between atoms: C_8  and  C_9 
REMARK    7  A    between atoms: C_10  and  O_11 
REMARK    8  A    between atoms: C_13  and  O_14 
REMARK    9  A    between atoms: C_16  and  O_17 
REMARK   10  A    between atoms: N_18  and  C_19 
REMARK       I    between atoms: N_18  and  C_22 
REMARK   11  A    between atoms: C_19  and  C_20 
REMARK   12  A    between atoms: C_22  and  C_24 
REMARK   13  A    between atoms: C_24  and  N_25 
REMARK       I    between atoms: N_25  and  C_26 
REMARK   14  A    between atoms: C_26  and  C_28 
ROOT
ATOM      1  C   UNL d   1      26.808 -15.787  -2.810  0.00  0.00     0.218 C 
ENDROOT
BRANCH   1   2
ATOM      2  N   UNL d   1      26.593 -16.565  -1.471  0.00  0.00    -0.333 N 
ATOM      3  C   UNL d   1      25.281 -16.982  -1.141  0.00  0.00     0.238 C 
ATOM      4  O   UNL d   1      24.294 -16.602  -1.784  0.00  0.00    -0.272 OA
BRANCH   2   5
ATOM      5  C   UNL d   1      27.661 -16.867  -0.482  0.00  0.00     0.127 C 
BRANCH   5   6
ATOM      6  C   UNL d   1      27.478 -16.309   0.898  0.00  0.00     0.015 C 
ATOM      7  C   UNL d   1      27.491 -14.848   1.212  0.00  0.00     0.006 C 
ENDBRANCH   5   6
ENDBRANCH   2   5
BRANCH   3   8
ATOM      8  C   UNL d   1      25.075 -18.005   0.006  0.00  0.00     0.225 C 
BRANCH   8   9
ATOM      9  N   UNL d   1      23.655 -18.251   0.276  0.00  0.00    -0.348 N 
ATOM     10  C   UNL d   1      22.849 -18.885  -0.653  0.00  0.00     0.252 C 
ATOM     11  O   UNL d   1      23.256 -19.260  -1.739  0.00  0.00    -0.268 OA
ATOM     12  H   UNL d   1      23.310 -18.034   1.204  0.00  0.00     0.163 HD
BRANCH  10  13
ATOM     13  C   UNL d   1      21.414 -19.091  -0.285  0.00  0.00     0.032 A 
ATOM     14  C   UNL d   1      21.043 -19.162   1.068  0.00  0.00     0.017 A 
ATOM     15  C   UNL d   1      19.736 -19.515   1.425  0.00  0.00     0.001 A 
ATOM     16  C   UNL d   1      18.780 -19.745   0.436  0.00  0.00     0.000 A 
ATOM     17  C   UNL d   1      19.141 -19.665  -0.909  0.00  0.00     0.001 A 
ATOM     18  C   UNL d   1      20.455 -19.346  -1.271  0.00  0.00     0.017 A 
ENDBRANCH  10  13
ENDBRANCH   8   9
ENDBRANCH   3   8
ENDBRANCH   1   2
BRANCH   1  19
ATOM     19  C   UNL d   1      26.417 -14.300  -2.930  0.00  0.00     0.040 C 
ATOM     20  C   UNL d   1      27.055 -13.283  -2.200  0.00  0.00     0.080 C 
ATOM     21  C   UNL d   1      26.726 -11.935  -2.400  0.00  0.00     0.073 C 
ATOM     22  C   UNL d   1      25.805 -11.574  -3.378  0.00  0.00     0.071 C 
ATOM     23  C   UNL d   1      25.154 -12.537  -4.125  0.00  0.00     0.073 C 
ATOM     24  C   UNL d   1      25.395 -13.883  -3.839  0.00  0.00     0.080 C 
BRANCH  20  25
ATOM     25  O   UNL d   1      28.062 -13.485  -1.295  0.00  0.00    -0.360 OA
ATOM     26  H   UNL d   1      28.544 -14.306  -1.463  0.00  0.00     0.217 HD
ENDBRANCH  20  25
BRANCH  22  27
ATOM     27  O   UNL d   1      25.515 -10.270  -3.650  0.00  0.00    -0.361 OA
ATOM     28  H   UNL d   1      24.706 -10.242  -4.186  0.00  0.00     0.217 HD
ENDBRANCH  22  27
BRANCH  24  29
ATOM     29  O   UNL d   1      24.780 -14.825  -4.641  0.00  0.00    -0.360 OA
ATOM     30  H   UNL d   1      24.099 -14.385  -5.180  0.00  0.00     0.217 HD
ENDBRANCH  24  29
ENDBRANCH   1  19
BRANCH   1  31
ATOM     31  C   UNL d   1      28.238 -15.912  -3.438  0.00  0.00     0.245 C 
ATOM     32  N   UNL d   1      28.269 -15.939  -4.804  0.00  0.00    -0.359 N 
ATOM     33  H   UNL d   1      27.474 -15.546  -5.301  0.00  0.00     0.162 HD
ATOM     34  O   UNL d   1      29.289 -15.824  -2.799  0.00  0.00    -0.271 OA
BRANCH  32  35
ATOM     35  C   UNL d   1      29.505 -16.081  -5.495  0.00  0.00     0.122 C 
BRANCH  35  36
ATOM     36  C   UNL d   1      29.553 -15.103  -6.648  0.00  0.00     0.019 C 
BRANCH  36  37
ATOM     37  C   UNL d   1      28.555 -13.991  -6.391  0.00  0.00    -0.003 C 
ATOM     38  C   UNL d   1      29.072 -13.045  -5.331  0.00  0.00     0.005 C 
ENDBRANCH  36  37
ENDBRANCH  35  36
ENDBRANCH  32  35
ENDBRANCH   1  31
TORSDOF 14
ENDMDL
MODEL 4
REMARK VINA RESULT:    -7.924      2.428      5.347
REMARK INTER + INTRA:         -14.990
REMARK INTER:                 -12.100
REMARK INTRA:                  -2.890
REMARK CONF_INDEPENDENT:        4.176
REMARK UNBOUND:                -2.890
REMARK  14 active torsions:
REMARK  status: ('A' for Active; 'I' for Inactive)
REMARK    1  A    between atoms: C_2  and  C_3 
REMARK    2  A    between atoms: C_3  and  C_4 
REMARK    3  A    between atoms: C_4  and  N_5 
REMARK       I    between atoms: N_5  and  C_6 
REMARK    4  A    between atoms: C_8  and  C_6 
REMARK    5  A    between atoms: C_8  and  N_18 
REMARK    6  A    between atoms: C_8  and  C_9 
REMARK    7  A    between atoms: C_10  and  O_11 
REMARK    8  A    between atoms: C_13  and  O_14 
REMARK    9  A    between atoms: C_16  and  O_17 
REMARK   10  A    between atoms: N_18  and  C_19 
REMARK       I    between atoms: N_18  and  C_22 
REMARK   11  A    between atoms: C_19  and  C_20 
REMARK   12  A    between atoms: C_22  and  C_24 
REMARK   13  A    between atoms: C_24  and  N_25 
REMARK       I    between atoms: N_25  and  C_26 
REMARK   14  A    between atoms: C_26  and  C_28 
ROOT
ATOM      1  C   UNL d   1      26.526 -15.536  -2.601  0.00  0.00     0.218 C 
ENDROOT
BRANCH   1   2
ATOM      2  N   UNL d   1      26.037 -16.025  -1.198  0.00  0.00    -0.333 N 
ATOM      3  C   UNL d   1      25.174 -17.145  -1.142  0.00  0.00     0.238 C 
ATOM      4  O   UNL d   1      24.666 -17.630  -2.161  0.00  0.00    -0.272 OA
BRANCH   2   5
ATOM      5  C   UNL d   1      26.373 -15.371   0.094  0.00  0.00     0.127 C 
BRANCH   5   6
ATOM      6  C   UNL d   1      27.551 -15.922   0.841  0.00  0.00     0.015 C 
ATOM      7  C   UNL d   1      28.963 -15.499   0.593  0.00  0.00     0.006 C 
ENDBRANCH   5   6
ENDBRANCH   2   5
BRANCH   3   8
ATOM      8  C   UNL d   1      24.917 -17.838   0.221  0.00  0.00     0.225 C 
BRANCH   8   9
ATOM      9  N   UNL d   1      23.658 -18.589   0.228  0.00  0.00    -0.348 N 
ATOM     10  C   UNL d   1      22.463 -17.988  -0.130  0.00  0.00     0.252 C 
ATOM     11  O   UNL d   1      22.382 -16.816  -0.454  0.00  0.00    -0.268 OA
ATOM     12  H   UNL d   1      23.708 -19.587   0.402  0.00  0.00     0.163 HD
BRANCH  10  13
ATOM     13  C   UNL d   1      21.233 -18.839  -0.094  0.00  0.00     0.032 A 
ATOM     14  C   UNL d   1      20.491 -19.043  -1.269  0.00  0.00     0.017 A 
ATOM     15  C   UNL d   1      19.255 -19.700  -1.218  0.00  0.00     0.001 A 
ATOM     16  C   UNL d   1      18.781 -20.202  -0.006  0.00  0.00     0.000 A 
ATOM     17  C   UNL d   1      19.521 -20.011   1.161  0.00  0.00     0.001 A 
ATOM     18  C   UNL d   1      20.740 -19.326   1.120  0.00  0.00     0.017 A 
ENDBRANCH  10  13
ENDBRANCH   8   9
ENDBRANCH   3   8
ENDBRANCH   1   2
BRANCH   1  19
ATOM     19  C   UNL d   1      26.377 -14.059  -3.018  0.00  0.00     0.040 C 
ATOM     20  C   UNL d   1      25.440 -13.627  -3.972  0.00  0.00     0.080 C 
ATOM     21  C   UNL d   1      25.279 -12.265  -4.261  0.00  0.00     0.073 C 
ATOM     22  C   UNL d   1      26.000 -11.307  -3.556  0.00  0.00     0.071 C 
ATOM     23  C   UNL d   1      26.929 -11.681  -2.605  0.00  0.00     0.073 C 
ATOM     24  C   UNL d   1      27.174 -13.041  -2.406  0.00  0.00     0.080 C 
BRANCH  20  25
ATOM     25  O   UNL d   1      24.583 -14.449  -4.652  0.00  0.00    -0.360 OA
ATOM     26  H   UNL d   1      23.831 -13.966  -5.022  0.00  0.00     0.217 HD
ENDBRANCH  20  25
BRANCH  22  27
ATOM     27  O   UNL d   1      25.816  -9.972  -3.760  0.00  0.00    -0.361 OA
ATOM     28  H   UNL d   1      25.193  -9.858  -4.496  0.00  0.00     0.217 HD
ENDBRANCH  22  27
BRANCH  24  29
ATOM     29  O   UNL d   1      28.062 -13.390  -1.406  0.00  0.00    -0.360 OA
ATOM     30  H   UNL d   1      28.456 -14.254  -1.622  0.00  0.00     0.217 HD
ENDBRANCH  24  29
ENDBRANCH   1  19
BRANCH   1  31
ATOM     31  C   UNL d   1      27.988 -15.950  -2.986  0.00  0.00     0.245 C 
ATOM     32  N   UNL d   1      28.350 -15.662  -4.271  0.00  0.00    -0.359 N 
ATOM     33  H   UNL d   1      27.831 -14.934  -4.755  0.00  0.00     0.162 HD
ATOM     34  O   UNL d   1      28.833 -16.349  -2.181  0.00  0.00    -0.271 OA
BRANCH  32  35
ATOM     35  C   UNL d   1      29.642 -16.015  -4.752  0.00  0.00     0.122 C 
BRANCH  35  36
ATOM     36  C   UNL d   1      29.673 -15.882  -6.258  0.00  0.00     0.019 C 
BRANCH  36  37
ATOM     37  C   UNL d   1      29.851 -14.421  -6.619  0.00  0.00    -0.003 C 
ATOM     38  C   UNL d   1      28.518 -13.786  -6.949  0.00  0.00     0.005 C 
ENDBRANCH  36  37
ENDBRANCH  35  36
ENDBRANCH  32  35
ENDBRANCH   1  31
TORSDOF 14
ENDMDL
MODEL 5
REMARK VINA RESULT:    -7.461      6.544      9.758
REMARK INTER + INTRA:         -14.806
REMARK INTER:                 -11.637
REMARK INTRA:                  -3.168
REMARK CONF_INDEPENDENT:        4.176
REMARK UNBOUND:                -3.168
REMARK  14 active torsions:
REMARK  status: ('A' for Active; 'I' for Inactive)
REMARK    1  A    between atoms: C_2  and  C_3 
REMARK    2  A    between atoms: C_3  and  C_4 
REMARK    3  A    between atoms: C_4  and  N_5 
REMARK       I    between atoms: N_5  and  C_6 
REMARK    4  A    between atoms: C_8  and  C_6 
REMARK    5  A    between atoms: C_8  and  N_18 
REMARK    6  A    between atoms: C_8  and  C_9 
REMARK    7  A    between atoms: C_10  and  O_11 
REMARK    8  A    between atoms: C_13  and  O_14 
REMARK    9  A    between atoms: C_16  and  O_17 
REMARK   10  A    between atoms: N_18  and  C_19 
REMARK       I    between atoms: N_18  and  C_22 
REMARK   11  A    between atoms: C_19  and  C_20 
REMARK   12  A    between atoms: C_22  and  C_24 
REMARK   13  A    between atoms: C_24  and  N_25 
REMARK       I    between atoms: N_25  and  C_26 
REMARK   14  A    between atoms: C_26  and  C_28 
ROOT
ATOM      1  C   UNL d   1      33.371 -21.039   2.456  0.00  0.00     0.218 C 
ENDROOT
BRANCH   1   2
ATOM      2  N   UNL d   1      32.783 -20.390   1.161  0.00  0.00    -0.333 N 
ATOM      3  C   UNL d   1      32.384 -19.034   1.212  0.00  0.00     0.238 C 
ATOM      4  O   UNL d   1      32.325 -18.410   2.280  0.00  0.00    -0.272 OA
BRANCH   2   5
ATOM      5  C   UNL d   1      32.565 -21.106  -0.124  0.00  0.00     0.127 C 
BRANCH   5   6
ATOM      6  C   UNL d   1      31.158 -21.527  -0.429  0.00  0.00     0.015 C 
ATOM      7  C   UNL d   1      30.630 -22.902  -0.175  0.00  0.00     0.006 C 
ENDBRANCH   5   6
ENDBRANCH   2   5
BRANCH   3   8
ATOM      8  C   UNL d   1      32.088 -18.279  -0.109  0.00  0.00     0.225 C 
BRANCH   8   9
ATOM      9  N   UNL d   1      30.721 -17.748  -0.145  0.00  0.00    -0.348 N 
ATOM     10  C   UNL d   1      30.032 -17.625  -1.339  0.00  0.00     0.252 C 
ATOM     11  O   UNL d   1      30.513 -17.930  -2.417  0.00  0.00    -0.268 OA
ATOM     12  H   UNL d   1      30.262 -17.573   0.742  0.00  0.00     0.163 HD
BRANCH  10  13
ATOM     13  C   UNL d   1      28.642 -17.075  -1.272  0.00  0.00     0.032 A 
ATOM     14  C   UNL d   1      28.240 -16.081  -2.178  0.00  0.00     0.017 A 
ATOM     15  C   UNL d   1      27.002 -15.444  -2.025  0.00  0.00     0.001 A 
ATOM     16  C   UNL d   1      26.138 -15.835  -1.002  0.00  0.00     0.000 A 
ATOM     17  C   UNL d   1      26.529 -16.830  -0.107  0.00  0.00     0.001 A 
ATOM     18  C   UNL d   1      27.780 -17.445  -0.235  0.00  0.00     0.017 A 
ENDBRANCH  10  13
ENDBRANCH   8   9
ENDBRANCH   3   8
ENDBRANCH   1   2
BRANCH   1  19
ATOM     19  C   UNL d   1      32.521 -21.152   3.738  0.00  0.00     0.040 C 
ATOM     20  C   UNL d   1      31.149 -21.456   3.719  0.00  0.00     0.080 C 
ATOM     21  C   UNL d   1      30.431 -21.632   4.910  0.00  0.00     0.073 C 
ATOM     22  C   UNL d   1      31.083 -21.573   6.138  0.00  0.00     0.071 C 
ATOM     23  C   UNL d   1      32.431 -21.281   6.209  0.00  0.00     0.073 C 
ATOM     24  C   UNL d   1      33.116 -20.988   5.028  0.00  0.00     0.080 C 
BRANCH  20  25
ATOM     25  O   UNL d   1      30.411 -21.661   2.585  0.00  0.00    -0.360 OA
ATOM     26  H   UNL d   1      30.133 -20.830   2.175  0.00  0.00     0.217 HD
ENDBRANCH  20  25
BRANCH  22  27
ATOM     27  O   UNL d   1      30.431 -21.811   7.311  0.00  0.00    -0.361 OA
ATOM     28  H   UNL d   1      30.038 -22.698   7.269  0.00  0.00     0.217 HD
ENDBRANCH  22  27
BRANCH  24  29
ATOM     29  O   UNL d   1      34.476 -20.761   5.120  0.00  0.00    -0.360 OA
ATOM     30  H   UNL d   1      34.626 -19.940   5.622  0.00  0.00     0.217 HD
ENDBRANCH  24  29
ENDBRANCH   1  19
BRANCH   1  31
ATOM     31  C   UNL d   1      34.048 -22.439   2.261  0.00  0.00     0.245 C 
ATOM     32  N   UNL d   1      34.555 -23.000   3.398  0.00  0.00    -0.359 N 
ATOM     33  H   UNL d   1      34.178 -22.682   4.288  0.00  0.00     0.162 HD
ATOM     34  O   UNL d   1      34.001 -23.095   1.217  0.00  0.00    -0.271 OA
BRANCH  32  35
ATOM     35  C   UNL d   1      35.221 -24.256   3.348  0.00  0.00     0.122 C 
BRANCH  35  36
ATOM     36  C   UNL d   1      36.001 -24.466   4.627  0.00  0.00     0.019 C 
BRANCH  36  37
ATOM     37  C   UNL d   1      35.052 -24.947   5.707  0.00  0.00    -0.003 C 
ATOM     38  C   UNL d   1      34.716 -23.823   6.661  0.00  0.00     0.005 C 
ENDBRANCH  36  37
ENDBRANCH  35  36
ENDBRANCH  32  35
ENDBRANCH   1  31
TORSDOF 14
ENDMDL
MODEL 6
REMARK VINA RESULT:    -7.375      5.605      9.108
REMARK INTER + INTRA:         -14.864
REMARK INTER:                 -11.551
REMARK INTRA:                  -3.313
REMARK CONF_INDEPENDENT:        4.176
REMARK UNBOUND:                -3.313
REMARK  14 active torsions:
REMARK  status: ('A' for Active; 'I' for Inactive)
REMARK    1  A    between atoms: C_2  and  C_3 
REMARK    2  A    between atoms: C_3  and  C_4 
REMARK    3  A    between atoms: C_4  and  N_5 
REMARK       I    between atoms: N_5  and  C_6 
REMARK    4  A    between atoms: C_8  and  C_6 
REMARK    5  A    between atoms: C_8  and  N_18 
REMARK    6  A    between atoms: C_8  and  C_9 
REMARK    7  A    between atoms: C_10  and  O_11 
REMARK    8  A    between atoms: C_13  and  O_14 
REMARK    9  A    between atoms: C_16  and  O_17 
REMARK   10  A    between atoms: N_18  and  C_19 
REMARK       I    between atoms: N_18  and  C_22 
REMARK   11  A    between atoms: C_19  and  C_20 
REMARK   12  A    between atoms: C_22  and  C_24 
REMARK   13  A    between atoms: C_24  and  N_25 
REMARK       I    between atoms: N_25  and  C_26 
REMARK   14  A    between atoms: C_26  and  C_28 
ROOT
ATOM      1  C   UNL d   1      32.956 -20.724   1.795  0.00  0.00     0.218 C 
ENDROOT
BRANCH   1   2
ATOM      2  N   UNL d   1      32.142 -19.818   0.815  0.00  0.00    -0.333 N 
ATOM      3  C   UNL d   1      32.283 -18.415   0.925  0.00  0.00     0.238 C 
ATOM      4  O   UNL d   1      32.885 -17.891   1.872  0.00  0.00    -0.272 OA
BRANCH   2   5
ATOM      5  C   UNL d   1      31.184 -20.318  -0.206  0.00  0.00     0.127 C 
BRANCH   5   6
ATOM      6  C   UNL d   1      31.772 -20.833  -1.486  0.00  0.00     0.015 C 
ATOM      7  C   UNL d   1      31.439 -20.281  -2.835  0.00  0.00     0.006 C 
ENDBRANCH   5   6
ENDBRANCH   2   5
BRANCH   3   8
ATOM      8  C   UNL d   1      31.740 -17.506  -0.207  0.00  0.00     0.225 C 
BRANCH   8   9
ATOM      9  N   UNL d   1      30.282 -17.360  -0.145  0.00  0.00    -0.348 N 
ATOM     10  C   UNL d   1      29.527 -17.214  -1.295  0.00  0.00     0.252 C 
ATOM     11  O   UNL d   1      30.017 -17.184  -2.411  0.00  0.00    -0.268 OA
ATOM     12  H   UNL d   1      29.838 -17.474   0.759  0.00  0.00     0.163 HD
BRANCH  10  13
ATOM     13  C   UNL d   1      28.047 -17.075  -1.128  0.00  0.00     0.032 A 
ATOM     14  C   UNL d   1      27.337 -16.163  -1.925  0.00  0.00     0.017 A 
ATOM     15  C   UNL d   1      25.984 -15.905  -1.670  0.00  0.00     0.001 A 
ATOM     16  C   UNL d   1      25.322 -16.596  -0.655  0.00  0.00     0.000 A 
ATOM     17  C   UNL d   1      26.021 -17.511   0.131  0.00  0.00     0.001 A 
ATOM     18  C   UNL d   1      27.381 -17.746  -0.098  0.00  0.00     0.017 A 
ENDBRANCH  10  13
ENDBRANCH   8   9
ENDBRANCH   3   8
ENDBRANCH   1   2
BRANCH   1  19
ATOM     19  C   UNL d   1      32.420 -21.041   3.207  0.00  0.00     0.040 C 
ATOM     20  C   UNL d   1      33.176 -20.836   4.373  0.00  0.00     0.080 C 
ATOM     21  C   UNL d   1      32.622 -21.057   5.641  0.00  0.00     0.073 C 
ATOM     22  C   UNL d   1      31.286 -21.422   5.770  0.00  0.00     0.071 C 
ATOM     23  C   UNL d   1      30.500 -21.632   4.653  0.00  0.00     0.073 C 
ATOM     24  C   UNL d   1      31.088 -21.528   3.391  0.00  0.00     0.080 C 
BRANCH  20  25
ATOM     25  O   UNL d   1      34.460 -20.364   4.399  0.00  0.00    -0.360 OA
ATOM     26  H   UNL d   1      34.574 -19.585   3.837  0.00  0.00     0.217 HD
ENDBRANCH  20  25
BRANCH  22  27
ATOM     27  O   UNL d   1      30.694 -21.575   6.989  0.00  0.00    -0.361 OA
ATOM     28  H   UNL d   1      30.144 -22.375   6.963  0.00  0.00     0.217 HD
ENDBRANCH  22  27
BRANCH  24  29
ATOM     29  O   UNL d   1      30.267 -21.681   2.290  0.00  0.00    -0.360 OA
ATOM     30  H   UNL d   1      29.850 -20.825   2.087  0.00  0.00     0.217 HD
ENDBRANCH  24  29
ENDBRANCH   1  19
BRANCH   1  31
ATOM     31  C   UNL d   1      33.446 -22.089   1.201  0.00  0.00     0.245 C 
ATOM     32  N   UNL d   1      32.848 -23.198   1.730  0.00  0.00    -0.359 N 
ATOM     33  H   UNL d   1      31.942 -23.076   2.175  0.00  0.00     0.162 HD
ATOM     34  O   UNL d   1      34.184 -22.195   0.219  0.00  0.00    -0.271 OA
BRANCH  32  35
ATOM     35  C   UNL d   1      33.228 -24.499   1.295  0.00  0.00     0.122 C 
BRANCH  35  36
ATOM     36  C   UNL d   1      32.034 -25.194   0.681  0.00  0.00     0.019 C 
BRANCH  36  37
ATOM     37  C   UNL d   1      31.383 -24.260  -0.321  0.00  0.00    -0.003 C 
ATOM     38  C   UNL d   1      29.991 -23.880   0.130  0.00  0.00     0.005 C 
ENDBRANCH  36  37
ENDBRANCH  35  36
ENDBRANCH  32  35
ENDBRANCH   1  31
TORSDOF 14
ENDMDL
MODEL 7
REMARK VINA RESULT:    -6.923      5.527      8.986
REMARK INTER + INTRA:         -14.992
REMARK INTER:                 -11.099
REMARK INTRA:                  -3.893
REMARK CONF_INDEPENDENT:        4.176
REMARK UNBOUND:                -3.893
REMARK  14 active torsions:
REMARK  status: ('A' for Active; 'I' for Inactive)
REMARK    1  A    between atoms: C_2  and  C_3 
REMARK    2  A    between atoms: C_3  and  C_4 
REMARK    3  A    between atoms: C_4  and  N_5 
REMARK       I    between atoms: N_5  and  C_6 
REMARK    4  A    between atoms: C_8  and  C_6 
REMARK    5  A    between atoms: C_8  and  N_18 
REMARK    6  A    between atoms: C_8  and  C_9 
REMARK    7  A    between atoms: C_10  and  O_11 
REMARK    8  A    between atoms: C_13  and  O_14 
REMARK    9  A    between atoms: C_16  and  O_17 
REMARK   10  A    between atoms: N_18  and  C_19 
REMARK       I    between atoms: N_18  and  C_22 
REMARK   11  A    between atoms: C_19  and  C_20 
REMARK   12  A    between atoms: C_22  and  C_24 
REMARK   13  A    between atoms: C_24  and  N_25 
REMARK       I    between atoms: N_25  and  C_26 
REMARK   14  A    between atoms: C_26  and  C_28 
ROOT
ATOM      1  C   UNL d   1      33.036 -21.092   1.809  0.00  0.00     0.218 C 
ENDROOT
BRANCH   1   2
ATOM      2  N   UNL d   1      32.733 -19.938   0.799  0.00  0.00    -0.333 N 
ATOM      3  C   UNL d   1      31.569 -20.034  -0.000  0.00  0.00     0.238 C 
ATOM      4  O   UNL d   1      30.892 -21.070  -0.045  0.00  0.00    -0.272 OA
BRANCH   2   5
ATOM      5  C   UNL d   1      33.606 -18.755   0.574  0.00  0.00     0.127 C 
BRANCH   5   6
ATOM      6  C   UNL d   1      33.200 -17.481   1.252  0.00  0.00     0.015 C 
ATOM      7  C   UNL d   1      33.378 -16.125   0.649  0.00  0.00     0.006 C 
ENDBRANCH   5   6
ENDBRANCH   2   5
BRANCH   3   8
ATOM      8  C   UNL d   1      31.079 -18.787  -0.781  0.00  0.00     0.225 C 
BRANCH   8   9
ATOM      9  N   UNL d   1      29.665 -18.498  -0.521  0.00  0.00    -0.348 N 
ATOM     10  C   UNL d   1      29.019 -17.454  -1.161  0.00  0.00     0.252 C 
ATOM     11  O   UNL d   1      29.577 -16.716  -1.955  0.00  0.00    -0.268 OA
ATOM     12  H   UNL d   1      29.151 -19.149   0.061  0.00  0.00     0.163 HD
BRANCH  10  13
ATOM     13  C   UNL d   1      27.575 -17.240  -0.832  0.00  0.00     0.032 A 
ATOM     14  C   UNL d   1      26.881 -18.198  -0.076  0.00  0.00     0.017 A 
ATOM     15  C   UNL d   1      25.496 -18.091   0.101  0.00  0.00     0.001 A 
ATOM     16  C   UNL d   1      24.808 -16.999  -0.427  0.00  0.00     0.000 A 
ATOM     17  C   UNL d   1      25.495 -16.038  -1.169  0.00  0.00     0.001 A 
ATOM     18  C   UNL d   1      26.874 -16.160  -1.378  0.00  0.00     0.017 A 
ENDBRANCH  10  13
ENDBRANCH   8   9
ENDBRANCH   3   8
ENDBRANCH   1   2
BRANCH   1  19
ATOM     19  C   UNL d   1      32.308 -21.163   3.167  0.00  0.00     0.040 C 
ATOM     20  C   UNL d   1      30.935 -21.435   3.283  0.00  0.00     0.080 C 
ATOM     21  C   UNL d   1      30.329 -21.573   4.539  0.00  0.00     0.073 C 
ATOM     22  C   UNL d   1      31.094 -21.509   5.699  0.00  0.00     0.071 C 
ATOM     23  C   UNL d   1      32.449 -21.247   5.637  0.00  0.00     0.073 C 
ATOM     24  C   UNL d   1      33.026 -20.990   4.392  0.00  0.00     0.080 C 
BRANCH  20  25
ATOM     25  O   UNL d   1      30.088 -21.642   2.228  0.00  0.00    -0.360 OA
ATOM     26  H   UNL d   1      30.046 -20.877   1.638  0.00  0.00     0.217 HD
ENDBRANCH  20  25
BRANCH  22  27
ATOM     27  O   UNL d   1      30.551 -21.711   6.933  0.00  0.00    -0.361 OA
ATOM     28  H   UNL d   1      30.956 -22.505   7.319  0.00  0.00     0.217 HD
ENDBRANCH  22  27
BRANCH  24  29
ATOM     29  O   UNL d   1      34.393 -20.794   4.351  0.00  0.00    -0.360 OA
ATOM     30  H   UNL d   1      34.831 -21.523   4.824  0.00  0.00     0.217 HD
ENDBRANCH  24  29
ENDBRANCH   1  19
BRANCH   1  31
ATOM     31  C   UNL d   1      32.983 -22.540   1.213  0.00  0.00     0.245 C 
ATOM     32  N   UNL d   1      31.729 -23.063   1.075  0.00  0.00    -0.359 N 
ATOM     33  H   UNL d   1      30.950 -22.411   1.026  0.00  0.00     0.162 HD
ATOM     34  O   UNL d   1      33.954 -23.132   0.736  0.00  0.00    -0.271 OA
BRANCH  32  35
ATOM     35  C   UNL d   1      31.548 -24.383   0.573  0.00  0.00     0.122 C 
BRANCH  35  36
ATOM     36  C   UNL d   1      30.076 -24.636   0.337  0.00  0.00     0.019 C 
BRANCH  36  37
ATOM     37  C   UNL d   1      29.566 -23.646  -0.691  0.00  0.00    -0.003 C 
ATOM     38  C   UNL d   1      29.829 -24.150  -2.093  0.00  0.00     0.005 C 
ENDBRANCH  36  37
ENDBRANCH  35  36
ENDBRANCH  32  35
ENDBRANCH   1  31
TORSDOF 14
ENDMDL
MODEL 8
REMARK VINA RESULT:    -6.202      3.250      8.013
REMARK INTER + INTRA:         -15.383
REMARK INTER:                 -10.379
REMARK INTRA:                  -5.004
REMARK CONF_INDEPENDENT:        4.176
REMARK UNBOUND:                -5.004
REMARK  14 active torsions:
REMARK  status: ('A' for Active; 'I' for Inactive)
REMARK    1  A    between atoms: C_2  and  C_3 
REMARK    2  A    between atoms: C_3  and  C_4 
REMARK    3  A    between atoms: C_4  and  N_5 
REMARK       I    between atoms: N_5  and  C_6 
REMARK    4  A    between atoms: C_8  and  C_6 
REMARK    5  A    between atoms: C_8  and  N_18 
REMARK    6  A    between atoms: C_8  and  C_9 
REMARK    7  A    between atoms: C_10  and  O_11 
REMARK    8  A    between atoms: C_13  and  O_14 
REMARK    9  A    between atoms: C_16  and  O_17 
REMARK   10  A    between atoms: N_18  and  C_19 
REMARK       I    between atoms: N_18  and  C_22 
REMARK   11  A    between atoms: C_19  and  C_20 
REMARK   12  A    between atoms: C_22  and  C_24 
REMARK   13  A    between atoms: C_24  and  N_25 
REMARK       I    between atoms: N_25  and  C_26 
REMARK   14  A    between atoms: C_26  and  C_28 
ROOT
ATOM      1  C   UNL d   1      26.487 -15.998  -2.494  0.00  0.00     0.218 C 
ENDROOT
BRANCH   1   2
ATOM      2  N   UNL d   1      26.501 -15.085  -3.764  0.00  0.00    -0.333 N 
ATOM      3  C   UNL d   1      25.425 -14.187  -3.956  0.00  0.00     0.238 C 
ATOM      4  O   UNL d   1      24.406 -14.228  -3.253  0.00  0.00    -0.272 OA
BRANCH   2   5
ATOM      5  C   UNL d   1      27.545 -15.118  -4.822  0.00  0.00     0.127 C 
BRANCH   5   6
ATOM      6  C   UNL d   1      28.948 -15.401  -4.376  0.00  0.00     0.015 C 
ATOM      7  C   UNL d   1      30.157 -15.126  -5.211  0.00  0.00     0.006 C 
ENDBRANCH   5   6
ENDBRANCH   2   5
BRANCH   3   8
ATOM      8  C   UNL d   1      25.550 -13.068  -5.022  0.00  0.00     0.225 C 
BRANCH   8   9
ATOM      9  N   UNL d   1      25.532 -11.731  -4.420  0.00  0.00    -0.348 N 
ATOM     10  C   UNL d   1      26.522 -11.328  -3.541  0.00  0.00     0.252 C 
ATOM     11  O   UNL d   1      27.446 -12.049  -3.206  0.00  0.00    -0.268 OA
ATOM     12  H   UNL d   1      24.830 -11.078  -4.749  0.00  0.00     0.163 HD
BRANCH  10  13
ATOM     13  C   UNL d   1      26.417  -9.944  -2.981  0.00  0.00     0.032 A 
ATOM     14  C   UNL d   1      26.889  -9.677  -1.686  0.00  0.00     0.017 A 
ATOM     15  C   UNL d   1      26.652  -8.431  -1.091  0.00  0.00     0.001 A 
ATOM     16  C   UNL d   1      25.992  -7.431  -1.804  0.00  0.00     0.000 A 
ATOM     17  C   UNL d   1      25.532  -7.689  -3.095  0.00  0.00     0.001 A 
ATOM     18  C   UNL d   1      25.736  -8.943  -3.682  0.00  0.00     0.017 A 
ENDBRANCH  10  13
ENDBRANCH   8   9
ENDBRANCH   3   8
ENDBRANCH   1   2
BRANCH   1  19
ATOM     19  C   UNL d   1      27.051 -15.489  -1.151  0.00  0.00     0.040 C 
ATOM     20  C   UNL d   1      26.724 -14.233  -0.614  0.00  0.00     0.080 C 
ATOM     21  C   UNL d   1      27.191 -13.843   0.649  0.00  0.00     0.073 C 
ATOM     22  C   UNL d   1      27.934 -14.726   1.425  0.00  0.00     0.071 C 
ATOM     23  C   UNL d   1      28.277 -15.974   0.944  0.00  0.00     0.073 C 
ATOM     24  C   UNL d   1      27.914 -16.312  -0.361  0.00  0.00     0.080 C 
BRANCH  20  25
ATOM     25  O   UNL d   1      25.905 -13.315  -1.215  0.00  0.00    -0.360 OA
ATOM     26  H   UNL d   1      26.044 -13.274  -2.172  0.00  0.00     0.217 HD
ENDBRANCH  20  25
BRANCH  22  27
ATOM     27  O   UNL d   1      28.343 -14.408   2.687  0.00  0.00    -0.361 OA
ATOM     28  H   UNL d   1      28.747 -15.196   3.085  0.00  0.00     0.217 HD
ENDBRANCH  22  27
BRANCH  24  29
ATOM     29  O   UNL d   1      28.214 -17.588  -0.797  0.00  0.00    -0.360 OA
ATOM     30  H   UNL d   1      28.412 -18.147  -0.024  0.00  0.00     0.217 HD
ENDBRANCH  24  29
ENDBRANCH   1  19
BRANCH   1  31
ATOM     31  C   UNL d   1      25.110 -16.668  -2.161  0.00  0.00     0.245 C 
ATOM     32  N   UNL d   1      24.321 -15.966  -1.294  0.00  0.00    -0.359 N 
ATOM     33  H   UNL d   1      24.492 -14.968  -1.205  0.00  0.00     0.162 HD
ATOM     34  O   UNL d   1      24.661 -17.659  -2.741  0.00  0.00    -0.271 OA
BRANCH  32  35
ATOM     35  C   UNL d   1      23.059 -16.484  -0.889  0.00  0.00     0.122 C 
BRANCH  35  36
ATOM     36  C   UNL d   1      23.265 -17.763  -0.108  0.00  0.00     0.019 C 
BRANCH  36  37
ATOM     37  C   UNL d   1      22.636 -18.911  -0.871  0.00  0.00    -0.003 C 
ATOM     38  C   UNL d   1      21.129 -18.785  -0.880  0.00  0.00     0.005 C 
ENDBRANCH  36  37
ENDBRANCH  35  36
ENDBRANCH  32  35
ENDBRANCH   1  31
TORSDOF 14
ENDMDL
