MODEL 1
REMARK VINA RESULT:    -9.470      0.000      0.000
REMARK INTER + INTRA:         -12.992
REMARK INTER:                 -11.558
REMARK INTRA:                  -1.435
REMARK CONF_INDEPENDENT:        2.088
REMARK UNBOUND:                -1.435
REMARK  7 active torsions:
REMARK  status: ('A' for Active; 'I' for Inactive)
REMARK    1  A    between atoms: C_6  and  N_7 
REMARK       I    between atoms: N_7  and  C_8 
REMARK    2  A    between atoms: C_8  and  C_10 
REMARK    3  A    between atoms: C_10  and  N_11 
REMARK    4  A    between atoms: N_11  and  C_12 
REMARK    5  A    between atoms: C_15  and  C_16 
REMARK       I    between atoms: C_16  and  N_18 
REMARK    6  A    between atoms: N_18  and  C_19 
REMARK    7  A    between atoms: C_19  and  C_20 
ROOT
ATOM      1  C   UNL d   1      26.536 -16.615   0.229  0.00  0.00     0.028 A 
ATOM      2  C   UNL d   1      26.241 -17.924   0.595  0.00  0.00     0.030 A 
ATOM      3  C   UNL d   1      25.079 -18.572   0.153  0.00  0.00     0.019 A 
ATOM      4  C   UNL d   1      24.177 -17.928  -0.703  0.00  0.00     0.032 A 
ATOM      5  C   UNL d   1      24.467 -16.608  -1.079  0.00  0.00     0.019 A 
ATOM      6  C   UNL d   1      25.626 -15.958  -0.609  0.00  0.00     0.030 A 
ENDROOT
BRANCH   1   7
ATOM      7  N   UNL d   1      27.707 -16.013   0.618  0.00  0.00    -0.381 N 
ATOM      8  H   UNL d   1      28.396 -16.539   1.160  0.00  0.00     0.160 HD
BRANCH   7   9
ATOM      9  C   UNL d   1      28.034 -14.591   0.408  0.00  0.00     0.223 C 
BRANCH   9  10
ATOM     10  C   UNL d   1      28.016 -13.885   1.775  0.00  0.00     0.239 C 
ATOM     11  N   UNL d   1      28.482 -14.608   2.878  0.00  0.00    -0.326 N 
ATOM     12  H   UNL d   1      28.818 -15.555   2.742  0.00  0.00     0.169 HD
ATOM     13  O   UNL d   1      27.589 -12.727   1.807  0.00  0.00    -0.271 OA
BRANCH  11  14
ATOM     14  C   UNL d   1      28.518 -14.104   4.215  0.00  0.00     0.035 A 
ATOM     15  C   UNL d   1      28.717 -14.955   5.310  0.00  0.00     0.029 A 
ATOM     16  C   UNL d   1      28.735 -14.434   6.622  0.00  0.00     0.003 A 
ATOM     17  C   UNL d   1      28.562 -13.067   6.853  0.00  0.00     0.007 A 
ATOM     18  C   UNL d   1      28.375 -12.211   5.777  0.00  0.00    -0.060 A 
ATOM     19  C   UNL d   1      28.201 -10.731   5.924  0.00  0.00     0.048 C 
ATOM     20  C   UNL d   1      28.355 -12.743   4.485  0.00  0.00     0.036 A 
ENDBRANCH  11  14
ENDBRANCH   9  10
ENDBRANCH   7   9
ENDBRANCH   1   7
BRANCH   4  21
ATOM     21  C   UNL d   1      22.934 -18.597  -1.241  0.00  0.00     0.251 C 
ATOM     22  O   UNL d   1      22.968 -19.207  -2.309  0.00  0.00    -0.268 OA
ATOM     23  N   UNL d   1      21.785 -18.501  -0.490  0.00  0.00    -0.351 N 
ATOM     24  H   UNL d   1      21.785 -17.946   0.346  0.00  0.00     0.163 HD
BRANCH  23  25
ATOM     25  C   UNL d   1      20.514 -19.109  -0.875  0.00  0.00     0.187 C 
BRANCH  25  26
ATOM     26  C   UNL d   1      19.880 -19.724   0.334  0.00  0.00     0.070 A 
ATOM     27  C   UNL d   1      18.814 -20.590   0.498  0.00  0.00     0.036 A 
ATOM     28  C   UNL d   1      18.675 -20.826   1.882  0.00  0.00     0.027 A 
ATOM     29  C   UNL d   1      19.648 -20.073   2.494  0.00  0.00     0.142 A 
ATOM     30  O   UNL d   1      20.388 -19.403   1.566  0.00  0.00    -0.325 OA
ENDBRANCH  25  26
ENDBRANCH  23  25
ENDBRANCH   4  21
TORSDOF 7
ENDMDL
MODEL 2
REMARK VINA RESULT:    -8.638      4.130      6.845
REMARK INTER + INTRA:         -11.860
REMARK INTER:                 -10.726
REMARK INTRA:                  -1.134
REMARK CONF_INDEPENDENT:        2.088
REMARK UNBOUND:                -1.134
REMARK  7 active torsions:
REMARK  status: ('A' for Active; 'I' for Inactive)
REMARK    1  A    between atoms: C_6  and  N_7 
REMARK       I    between atoms: N_7  and  C_8 
REMARK    2  A    between atoms: C_8  and  C_10 
REMARK    3  A    between atoms: C_10  and  N_11 
REMARK    4  A    between atoms: N_11  and  C_12 
REMARK    5  A    between atoms: C_15  and  C_16 
REMARK       I    between atoms: C_16  and  N_18 
REMARK    6  A    between atoms: N_18  and  C_19 
REMARK    7  A    between atoms: C_19  and  C_20 
ROOT
ATOM      1  C   UNL d   1      26.399 -17.359  -0.331  0.00  0.00     0.028 A 
ATOM      2  C   UNL d   1      25.680 -18.316   0.379  0.00  0.00     0.030 A 
ATOM      3  C   UNL d   1      24.291 -18.451   0.241  0.00  0.00     0.019 A 
ATOM      4  C   UNL d   1      23.574 -17.640  -0.646  0.00  0.00     0.032 A 
ATOM      5  C   UNL d   1      24.290 -16.675  -1.369  0.00  0.00     0.019 A 
ATOM      6  C   UNL d   1      25.683 -16.530  -1.203  0.00  0.00     0.030 A 
ENDROOT
BRANCH   1   7
ATOM      7  N   UNL d   1      27.766 -17.277  -0.233  0.00  0.00    -0.381 N 
ATOM      8  H   UNL d   1      28.282 -17.970   0.314  0.00  0.00     0.160 HD
BRANCH   7   9
ATOM      9  C   UNL d   1      28.585 -16.179  -0.778  0.00  0.00     0.223 C 
BRANCH   9  10
ATOM     10  C   UNL d   1      28.731 -16.393  -2.294  0.00  0.00     0.239 C 
ATOM     11  N   UNL d   1      29.863 -17.085  -2.740  0.00  0.00    -0.326 N 
ATOM     12  H   UNL d   1      30.534 -17.424  -2.060  0.00  0.00     0.169 HD
ATOM     13  O   UNL d   1      27.840 -15.937  -3.017  0.00  0.00    -0.271 OA
BRANCH  11  14
ATOM     14  C   UNL d   1      30.154 -17.353  -4.113  0.00  0.00     0.035 A 
ATOM     15  C   UNL d   1      30.098 -16.340  -5.081  0.00  0.00     0.029 A 
ATOM     16  C   UNL d   1      30.377 -16.634  -6.433  0.00  0.00     0.003 A 
ATOM     17  C   UNL d   1      30.717 -17.929  -6.832  0.00  0.00     0.007 A 
ATOM     18  C   UNL d   1      30.786 -18.938  -5.882  0.00  0.00    -0.060 A 
ATOM     19  C   UNL d   1      31.160 -20.352  -6.210  0.00  0.00     0.048 C 
ATOM     20  C   UNL d   1      30.503 -18.633  -4.548  0.00  0.00     0.036 A 
ENDBRANCH  11  14
ENDBRANCH   9  10
ENDBRANCH   7   9
ENDBRANCH   1   7
BRANCH   4  21
ATOM     21  C   UNL d   1      22.086 -17.776  -0.863  0.00  0.00     0.251 C 
ATOM     22  O   UNL d   1      21.367 -16.777  -0.895  0.00  0.00    -0.268 OA
ATOM     23  N   UNL d   1      21.580 -19.046  -1.028  0.00  0.00    -0.351 N 
ATOM     24  H   UNL d   1      22.190 -19.837  -0.937  0.00  0.00     0.163 HD
BRANCH  23  25
ATOM     25  C   UNL d   1      20.167 -19.330  -1.261  0.00  0.00     0.187 C 
BRANCH  25  26
ATOM     26  C   UNL d   1      19.582 -19.947  -0.027  0.00  0.00     0.070 A 
ATOM     27  C   UNL d   1      18.431 -20.678   0.201  0.00  0.00     0.036 A 
ATOM     28  C   UNL d   1      18.404 -20.997   1.575  0.00  0.00     0.027 A 
ATOM     29  C   UNL d   1      19.528 -20.423   2.119  0.00  0.00     0.142 A 
ATOM     30  O   UNL d   1      20.254 -19.787   1.157  0.00  0.00    -0.325 OA
ENDBRANCH  25  26
ENDBRANCH  23  25
ENDBRANCH   4  21
TORSDOF 7
ENDMDL
MODEL 3
REMARK VINA RESULT:    -8.603      3.923      6.430
REMARK INTER + INTRA:         -11.766
REMARK INTER:                 -10.691
REMARK INTRA:                  -1.074
REMARK CONF_INDEPENDENT:        2.088
REMARK UNBOUND:                -1.074
REMARK  7 active torsions:
REMARK  status: ('A' for Active; 'I' for Inactive)
REMARK    1  A    between atoms: C_6  and  N_7 
REMARK       I    between atoms: N_7  and  C_8 
REMARK    2  A    between atoms: C_8  and  C_10 
REMARK    3  A    between atoms: C_10  and  N_11 
REMARK    4  A    between atoms: N_11  and  C_12 
REMARK    5  A    between atoms: C_15  and  C_16 
REMARK       I    between atoms: C_16  and  N_18 
REMARK    6  A    between atoms: N_18  and  C_19 
REMARK    7  A    between atoms: C_19  and  C_20 
ROOT
ATOM      1  C   UNL d   1      26.506 -17.415  -0.197  0.00  0.00     0.028 A 
ATOM      2  C   UNL d   1      25.826 -16.491  -0.983  0.00  0.00     0.030 A 
ATOM      3  C   UNL d   1      24.449 -16.599  -1.228  0.00  0.00     0.019 A 
ATOM      4  C   UNL d   1      23.697 -17.635  -0.663  0.00  0.00     0.032 A 
ATOM      5  C   UNL d   1      24.374 -18.570   0.134  0.00  0.00     0.019 A 
ATOM      6  C   UNL d   1      25.763 -18.466   0.353  0.00  0.00     0.030 A 
ENDROOT
BRANCH   1   7
ATOM      7  N   UNL d   1      27.842 -17.264   0.086  0.00  0.00    -0.381 N 
ATOM      8  H   UNL d   1      28.323 -17.958   0.662  0.00  0.00     0.160 HD
BRANCH   7   9
ATOM      9  C   UNL d   1      28.656 -16.095  -0.292  0.00  0.00     0.223 C 
BRANCH   9  10
ATOM     10  C   UNL d   1      28.892 -16.143  -1.812  0.00  0.00     0.239 C 
ATOM     11  N   UNL d   1      28.396 -15.079  -2.573  0.00  0.00    -0.326 N 
ATOM     12  H   UNL d   1      27.912 -14.320  -2.105  0.00  0.00     0.169 HD
ATOM     13  O   UNL d   1      29.502 -17.120  -2.258  0.00  0.00    -0.271 OA
BRANCH  11  14
ATOM     14  C   UNL d   1      28.518 -14.980  -3.993  0.00  0.00     0.035 A 
ATOM     15  C   UNL d   1      27.642 -14.186  -4.747  0.00  0.00     0.029 A 
ATOM     16  C   UNL d   1      27.775 -14.116  -6.150  0.00  0.00     0.003 A 
ATOM     17  C   UNL d   1      28.780 -14.825  -6.812  0.00  0.00     0.007 A 
ATOM     18  C   UNL d   1      29.661 -15.606  -6.077  0.00  0.00    -0.060 A 
ATOM     19  C   UNL d   1      30.781 -16.386  -6.696  0.00  0.00     0.048 C 
ATOM     20  C   UNL d   1      29.513 -15.669  -4.689  0.00  0.00     0.036 A 
ENDBRANCH  11  14
ENDBRANCH   9  10
ENDBRANCH   7   9
ENDBRANCH   1   7
BRANCH   4  21
ATOM     21  C   UNL d   1      22.206 -17.770  -0.861  0.00  0.00     0.251 C 
ATOM     22  O   UNL d   1      21.489 -16.770  -0.895  0.00  0.00    -0.268 OA
ATOM     23  N   UNL d   1      21.696 -19.040  -1.007  0.00  0.00    -0.351 N 
ATOM     24  H   UNL d   1      22.306 -19.832  -0.914  0.00  0.00     0.163 HD
BRANCH  23  25
ATOM     25  C   UNL d   1      20.280 -19.324  -1.220  0.00  0.00     0.187 C 
BRANCH  25  26
ATOM     26  C   UNL d   1      19.692 -19.864   0.047  0.00  0.00     0.070 A 
ATOM     27  C   UNL d   1      20.016 -19.692   1.380  0.00  0.00     0.036 A 
ATOM     28  C   UNL d   1      19.101 -20.457   2.135  0.00  0.00     0.027 A 
ATOM     29  C   UNL d   1      18.281 -21.076   1.222  0.00  0.00     0.142 A 
ATOM     30  O   UNL d   1      18.627 -20.721  -0.048  0.00  0.00    -0.325 OA
ENDBRANCH  25  26
ENDBRANCH  23  25
ENDBRANCH   4  21
TORSDOF 7
ENDMDL
MODEL 4
REMARK VINA RESULT:    -8.361      3.268      5.020
REMARK INTER + INTRA:         -11.437
REMARK INTER:                 -10.449
REMARK INTRA:                  -0.988
REMARK CONF_INDEPENDENT:        2.088
REMARK UNBOUND:                -0.988
REMARK  7 active torsions:
REMARK  status: ('A' for Active; 'I' for Inactive)
REMARK    1  A    between atoms: C_6  and  N_7 
REMARK       I    between atoms: N_7  and  C_8 
REMARK    2  A    between atoms: C_8  and  C_10 
REMARK    3  A    between atoms: C_10  and  N_11 
REMARK    4  A    between atoms: N_11  and  C_12 
REMARK    5  A    between atoms: C_15  and  C_16 
REMARK       I    between atoms: C_16  and  N_18 
REMARK    6  A    between atoms: N_18  and  C_19 
REMARK    7  A    between atoms: C_19  and  C_20 
ROOT
ATOM      1  C   UNL d   1      26.058 -17.247  -0.175  0.00  0.00     0.028 A 
ATOM      2  C   UNL d   1      25.350 -16.496  -1.107  0.00  0.00     0.030 A 
ATOM      3  C   UNL d   1      23.993 -16.732  -1.370  0.00  0.00     0.019 A 
ATOM      4  C   UNL d   1      23.287 -17.722  -0.677  0.00  0.00     0.032 A 
ATOM      5  C   UNL d   1      23.992 -18.483   0.267  0.00  0.00     0.019 A 
ATOM      6  C   UNL d   1      25.363 -18.254   0.505  0.00  0.00     0.030 A 
ENDROOT
BRANCH   1   7
ATOM      7  N   UNL d   1      27.371 -16.967   0.118  0.00  0.00    -0.381 N 
ATOM      8  H   UNL d   1      28.080 -17.698   0.033  0.00  0.00     0.160 HD
BRANCH   7   9
ATOM      9  C   UNL d   1      27.857 -15.687   0.663  0.00  0.00     0.223 C 
BRANCH   9  10
ATOM     10  C   UNL d   1      27.175 -14.544  -0.108  0.00  0.00     0.239 C 
ATOM     11  N   UNL d   1      27.398 -14.476  -1.487  0.00  0.00    -0.326 N 
ATOM     12  H   UNL d   1      27.985 -15.175  -1.928  0.00  0.00     0.169 HD
ATOM     13  O   UNL d   1      26.478 -13.760   0.545  0.00  0.00    -0.271 OA
BRANCH  11  14
ATOM     14  C   UNL d   1      26.851 -13.470  -2.342  0.00  0.00     0.035 A 
ATOM     15  C   UNL d   1      26.051 -13.805  -3.443  0.00  0.00     0.029 A 
ATOM     16  C   UNL d   1      25.534 -12.793  -4.280  0.00  0.00     0.003 A 
ATOM     17  C   UNL d   1      25.802 -11.445  -4.027  0.00  0.00     0.007 A 
ATOM     18  C   UNL d   1      26.584 -11.099  -2.935  0.00  0.00    -0.060 A 
ATOM     19  C   UNL d   1      26.910  -9.682  -2.573  0.00  0.00     0.048 C 
ATOM     20  C   UNL d   1      27.093 -12.112  -2.118  0.00  0.00     0.036 A 
ENDBRANCH  11  14
ENDBRANCH   9  10
ENDBRANCH   7   9
ENDBRANCH   1   7
BRANCH   4  21
ATOM     21  C   UNL d   1      21.816 -17.986  -0.893  0.00  0.00     0.251 C 
ATOM     22  O   UNL d   1      21.034 -17.050  -1.064  0.00  0.00    -0.268 OA
ATOM     23  N   UNL d   1      21.398 -19.297  -0.896  0.00  0.00    -0.351 N 
ATOM     24  H   UNL d   1      22.056 -20.026  -0.695  0.00  0.00     0.163 HD
BRANCH  23  25
ATOM     25  C   UNL d   1      20.011 -19.703  -1.107  0.00  0.00     0.187 C 
BRANCH  25  26
ATOM     26  C   UNL d   1      19.413 -20.103   0.207  0.00  0.00     0.070 A 
ATOM     27  C   UNL d   1      19.700 -19.755   1.514  0.00  0.00     0.036 A 
ATOM     28  C   UNL d   1      18.794 -20.453   2.340  0.00  0.00     0.027 A 
ATOM     29  C   UNL d   1      18.018 -21.210   1.497  0.00  0.00     0.142 A 
ATOM     30  O   UNL d   1      18.380 -21.004   0.199  0.00  0.00    -0.325 OA
ENDBRANCH  25  26
ENDBRANCH  23  25
ENDBRANCH   4  21
TORSDOF 7
ENDMDL
MODEL 5
REMARK VINA RESULT:    -8.164      1.415      2.174
REMARK INTER + INTRA:         -11.746
REMARK INTER:                 -10.253
REMARK INTRA:                  -1.494
REMARK CONF_INDEPENDENT:        2.088
REMARK UNBOUND:                -1.494
REMARK  7 active torsions:
REMARK  status: ('A' for Active; 'I' for Inactive)
REMARK    1  A    between atoms: C_6  and  N_7 
REMARK       I    between atoms: N_7  and  C_8 
REMARK    2  A    between atoms: C_8  and  C_10 
REMARK    3  A    between atoms: C_10  and  N_11 
REMARK    4  A    between atoms: N_11  and  C_12 
REMARK    5  A    between atoms: C_15  and  C_16 
REMARK       I    between atoms: C_16  and  N_18 
REMARK    6  A    between atoms: N_18  and  C_19 
REMARK    7  A    between atoms: C_19  and  C_20 
ROOT
ATOM      1  C   UNL d   1      26.574 -16.650   0.106  0.00  0.00     0.028 A 
ATOM      2  C   UNL d   1      26.260 -17.951   0.486  0.00  0.00     0.030 A 
ATOM      3  C   UNL d   1      25.074 -18.576   0.075  0.00  0.00     0.019 A 
ATOM      4  C   UNL d   1      24.167 -17.918  -0.764  0.00  0.00     0.032 A 
ATOM      5  C   UNL d   1      24.477 -16.607  -1.155  0.00  0.00     0.019 A 
ATOM      6  C   UNL d   1      25.660 -15.979  -0.716  0.00  0.00     0.030 A 
ENDROOT
BRANCH   1   7
ATOM      7  N   UNL d   1      27.766 -16.071   0.464  0.00  0.00    -0.381 N 
ATOM      8  H   UNL d   1      28.435 -16.591   1.037  0.00  0.00     0.160 HD
BRANCH   7   9
ATOM      9  C   UNL d   1      28.146 -14.676   0.176  0.00  0.00     0.223 C 
BRANCH   9  10
ATOM     10  C   UNL d   1      27.766 -13.812   1.391  0.00  0.00     0.239 C 
ATOM     11  N   UNL d   1      27.862 -12.423   1.247  0.00  0.00    -0.326 N 
ATOM     12  H   UNL d   1      28.166 -12.038   0.359  0.00  0.00     0.169 HD
ATOM     13  O   UNL d   1      27.404 -14.402   2.413  0.00  0.00    -0.271 OA
BRANCH  11  14
ATOM     14  C   UNL d   1      27.561 -11.484   2.281  0.00  0.00     0.035 A 
ATOM     15  C   UNL d   1      26.726 -10.383   2.046  0.00  0.00     0.029 A 
ATOM     16  C   UNL d   1      26.455  -9.462   3.081  0.00  0.00     0.003 A 
ATOM     17  C   UNL d   1      27.004  -9.632   4.354  0.00  0.00     0.007 A 
ATOM     18  C   UNL d   1      27.823 -10.724   4.604  0.00  0.00    -0.060 A 
ATOM     19  C   UNL d   1      28.441 -10.999   5.941  0.00  0.00     0.048 C 
ATOM     20  C   UNL d   1      28.086 -11.624   3.568  0.00  0.00     0.036 A 
ENDBRANCH  11  14
ENDBRANCH   9  10
ENDBRANCH   7   9
ENDBRANCH   1   7
BRANCH   4  21
ATOM     21  C   UNL d   1      22.899 -18.563  -1.269  0.00  0.00     0.251 C 
ATOM     22  O   UNL d   1      22.905 -19.219  -2.311  0.00  0.00    -0.268 OA
ATOM     23  N   UNL d   1      21.757 -18.394  -0.520  0.00  0.00    -0.351 N 
ATOM     24  H   UNL d   1      21.780 -17.804   0.291  0.00  0.00     0.163 HD
BRANCH  23  25
ATOM     25  C   UNL d   1      20.463 -18.970  -0.875  0.00  0.00     0.187 C 
BRANCH  25  26
ATOM     26  C   UNL d   1      19.879 -19.642   0.330  0.00  0.00     0.070 A 
ATOM     27  C   UNL d   1      18.834 -20.532   0.494  0.00  0.00     0.036 A 
ATOM     28  C   UNL d   1      18.745 -20.822   1.872  0.00  0.00     0.027 A 
ATOM     29  C   UNL d   1      19.725 -20.076   2.481  0.00  0.00     0.142 A 
ATOM     30  O   UNL d   1      20.423 -19.358   1.556  0.00  0.00    -0.325 OA
ENDBRANCH  25  26
ENDBRANCH  23  25
ENDBRANCH   4  21
TORSDOF 7
ENDMDL
MODEL 6
REMARK VINA RESULT:    -8.040      5.428     10.326
REMARK INTER + INTRA:         -11.682
REMARK INTER:                 -10.128
REMARK INTRA:                  -1.554
REMARK CONF_INDEPENDENT:        2.088
REMARK UNBOUND:                -1.554
REMARK  7 active torsions:
REMARK  status: ('A' for Active; 'I' for Inactive)
REMARK    1  A    between atoms: C_6  and  N_7 
REMARK       I    between atoms: N_7  and  C_8 
REMARK    2  A    between atoms: C_8  and  C_10 
REMARK    3  A    between atoms: C_10  and  N_11 
REMARK    4  A    between atoms: N_11  and  C_12 
REMARK    5  A    between atoms: C_15  and  C_16 
REMARK       I    between atoms: C_16  and  N_18 
REMARK    6  A    between atoms: N_18  and  C_19 
REMARK    7  A    between atoms: C_19  and  C_20 
ROOT
ATOM      1  C   UNL d   1      25.347 -15.518  -2.711  0.00  0.00     0.028 A 
ATOM      2  C   UNL d   1      24.532 -14.421  -2.971  0.00  0.00     0.030 A 
ATOM      3  C   UNL d   1      24.962 -13.354  -3.773  0.00  0.00     0.019 A 
ATOM      4  C   UNL d   1      26.228 -13.366  -4.370  0.00  0.00     0.032 A 
ATOM      5  C   UNL d   1      27.056 -14.469  -4.115  0.00  0.00     0.019 A 
ATOM      6  C   UNL d   1      26.623 -15.525  -3.287  0.00  0.00     0.030 A 
ENDROOT
BRANCH   1   7
ATOM      7  N   UNL d   1      24.893 -16.585  -1.975  0.00  0.00    -0.381 N 
ATOM      8  H   UNL d   1      24.807 -17.506  -2.410  0.00  0.00     0.160 HD
BRANCH   7   9
ATOM      9  C   UNL d   1      24.400 -16.503  -0.588  0.00  0.00     0.223 C 
BRANCH   9  10
ATOM     10  C   UNL d   1      22.939 -16.983  -0.566  0.00  0.00     0.239 C 
ATOM     11  N   UNL d   1      22.703 -18.306  -0.179  0.00  0.00    -0.326 N 
ATOM     12  H   UNL d   1      23.488 -18.894   0.078  0.00  0.00     0.169 HD
ATOM     13  O   UNL d   1      22.071 -16.167  -0.895  0.00  0.00    -0.271 OA
BRANCH  11  14
ATOM     14  C   UNL d   1      21.408 -18.909  -0.121  0.00  0.00     0.035 A 
ATOM     15  C   UNL d   1      20.617 -19.050  -1.269  0.00  0.00     0.029 A 
ATOM     16  C   UNL d   1      19.336 -19.637  -1.182  0.00  0.00     0.003 A 
ATOM     17  C   UNL d   1      18.837 -20.092   0.040  0.00  0.00     0.007 A 
ATOM     18  C   UNL d   1      19.614 -19.969   1.183  0.00  0.00    -0.060 A 
ATOM     19  C   UNL d   1      19.172 -20.445   2.533  0.00  0.00     0.048 C 
ATOM     20  C   UNL d   1      20.878 -19.382   1.082  0.00  0.00     0.036 A 
ENDBRANCH  11  14
ENDBRANCH   9  10
ENDBRANCH   7   9
ENDBRANCH   1   7
BRANCH   4  21
ATOM     21  C   UNL d   1      26.719 -12.262  -5.275  0.00  0.00     0.251 C 
ATOM     22  O   UNL d   1      27.845 -12.317  -5.769  0.00  0.00    -0.268 OA
ATOM     23  N   UNL d   1      25.862 -11.215  -5.524  0.00  0.00    -0.351 N 
ATOM     24  H   UNL d   1      24.976 -11.178  -5.056  0.00  0.00     0.163 HD
BRANCH  23  25
ATOM     25  C   UNL d   1      26.194 -10.087  -6.390  0.00  0.00     0.187 C 
BRANCH  25  26
ATOM     26  C   UNL d   1      25.307  -8.929  -6.049  0.00  0.00     0.070 A 
ATOM     27  C   UNL d   1      25.489  -7.560  -6.098  0.00  0.00     0.036 A 
ATOM     28  C   UNL d   1      24.292  -6.962  -5.651  0.00  0.00     0.027 A 
ATOM     29  C   UNL d   1      23.449  -7.998  -5.327  0.00  0.00     0.142 A 
ATOM     30  O   UNL d   1      24.051  -9.197  -5.568  0.00  0.00    -0.325 OA
ENDBRANCH  25  26
ENDBRANCH  23  25
ENDBRANCH   4  21
TORSDOF 7
ENDMDL
MODEL 7
REMARK VINA RESULT:    -7.982      4.728      7.172
REMARK INTER + INTRA:         -11.677
REMARK INTER:                 -10.070
REMARK INTRA:                  -1.607
REMARK CONF_INDEPENDENT:        2.088
REMARK UNBOUND:                -1.607
REMARK  7 active torsions:
REMARK  status: ('A' for Active; 'I' for Inactive)
REMARK    1  A    between atoms: C_6  and  N_7 
REMARK       I    between atoms: N_7  and  C_8 
REMARK    2  A    between atoms: C_8  and  C_10 
REMARK    3  A    between atoms: C_10  and  N_11 
REMARK    4  A    between atoms: N_11  and  C_12 
REMARK    5  A    between atoms: C_15  and  C_16 
REMARK       I    between atoms: C_16  and  N_18 
REMARK    6  A    between atoms: N_18  and  C_19 
REMARK    7  A    between atoms: C_19  and  C_20 
ROOT
ATOM      1  C   UNL d   1      26.108 -14.109  -2.976  0.00  0.00     0.028 A 
ATOM      2  C   UNL d   1      27.037 -14.720  -2.139  0.00  0.00     0.030 A 
ATOM      3  C   UNL d   1      26.710 -15.844  -1.367  0.00  0.00     0.019 A 
ATOM      4  C   UNL d   1      25.434 -16.415  -1.430  0.00  0.00     0.032 A 
ATOM      5  C   UNL d   1      24.491 -15.807  -2.273  0.00  0.00     0.019 A 
ATOM      6  C   UNL d   1      24.823 -14.662  -3.026  0.00  0.00     0.030 A 
ENDROOT
BRANCH   1   7
ATOM      7  N   UNL d   1      26.457 -13.046  -3.773  0.00  0.00    -0.381 N 
ATOM      8  H   UNL d   1      26.219 -12.094  -3.487  0.00  0.00     0.160 HD
BRANCH   7   9
ATOM      9  C   UNL d   1      27.075 -13.161  -5.106  0.00  0.00     0.223 C 
BRANCH   9  10
ATOM     10  C   UNL d   1      27.652 -14.580  -5.250  0.00  0.00     0.239 C 
ATOM     11  N   UNL d   1      28.915 -14.819  -4.695  0.00  0.00    -0.326 N 
ATOM     12  H   UNL d   1      29.396 -14.065  -4.217  0.00  0.00     0.169 HD
ATOM     13  O   UNL d   1      26.964 -15.411  -5.848  0.00  0.00    -0.271 OA
BRANCH  11  14
ATOM     14  C   UNL d   1      29.595 -16.075  -4.755  0.00  0.00     0.035 A 
ATOM     15  C   UNL d   1      29.931 -16.778  -3.591  0.00  0.00     0.029 A 
ATOM     16  C   UNL d   1      30.615 -18.010  -3.677  0.00  0.00     0.003 A 
ATOM     17  C   UNL d   1      30.963 -18.553  -4.916  0.00  0.00     0.007 A 
ATOM     18  C   UNL d   1      30.626 -17.872  -6.077  0.00  0.00    -0.060 A 
ATOM     19  C   UNL d   1      30.939 -18.384  -7.450  0.00  0.00     0.048 C 
ATOM     20  C   UNL d   1      29.953 -16.652  -5.976  0.00  0.00     0.036 A 
ENDBRANCH  11  14
ENDBRANCH   9  10
ENDBRANCH   7   9
ENDBRANCH   1   7
BRANCH   4  21
ATOM     21  C   UNL d   1      25.047 -17.649  -0.652  0.00  0.00     0.251 C 
ATOM     22  O   UNL d   1      25.847 -18.174   0.123  0.00  0.00    -0.268 OA
ATOM     23  N   UNL d   1      23.778 -18.148  -0.840  0.00  0.00    -0.351 N 
ATOM     24  H   UNL d   1      23.177 -17.726  -1.523  0.00  0.00     0.163 HD
BRANCH  23  25
ATOM     25  C   UNL d   1      23.259 -19.323  -0.146  0.00  0.00     0.187 C 
BRANCH  25  26
ATOM     26  C   UNL d   1      21.763 -19.317  -0.222  0.00  0.00     0.070 A 
ATOM     27  C   UNL d   1      20.774 -19.321   0.744  0.00  0.00     0.036 A 
ATOM     28  C   UNL d   1      19.533 -19.310   0.072  0.00  0.00     0.027 A 
ATOM     29  C   UNL d   1      19.830 -19.323  -1.270  0.00  0.00     0.142 A 
ATOM     30  O   UNL d   1      21.179 -19.324  -1.462  0.00  0.00    -0.325 OA
ENDBRANCH  25  26
ENDBRANCH  23  25
ENDBRANCH   4  21
TORSDOF 7
ENDMDL
MODEL 8
REMARK VINA RESULT:    -7.951      2.979      5.745
REMARK INTER + INTRA:         -11.717
REMARK INTER:                 -10.039
REMARK INTRA:                  -1.678
REMARK CONF_INDEPENDENT:        2.088
REMARK UNBOUND:                -1.678
REMARK  7 active torsions:
REMARK  status: ('A' for Active; 'I' for Inactive)
REMARK    1  A    between atoms: C_6  and  N_7 
REMARK       I    between atoms: N_7  and  C_8 
REMARK    2  A    between atoms: C_8  and  C_10 
REMARK    3  A    between atoms: C_10  and  N_11 
REMARK    4  A    between atoms: N_11  and  C_12 
REMARK    5  A    between atoms: C_15  and  C_16 
REMARK       I    between atoms: C_16  and  N_18 
REMARK    6  A    between atoms: N_18  and  C_19 
REMARK    7  A    between atoms: C_19  and  C_20 
ROOT
ATOM      1  C   UNL d   1      26.582 -16.658   0.316  0.00  0.00     0.028 A 
ATOM      2  C   UNL d   1      25.700 -15.939  -0.485  0.00  0.00     0.030 A 
ATOM      3  C   UNL d   1      24.532 -16.517  -1.003  0.00  0.00     0.019 A 
ATOM      4  C   UNL d   1      24.193 -17.843  -0.709  0.00  0.00     0.032 A 
ATOM      5  C   UNL d   1      25.075 -18.575   0.100  0.00  0.00     0.019 A 
ATOM      6  C   UNL d   1      26.259 -17.991   0.595  0.00  0.00     0.030 A 
ENDROOT
BRANCH   1   7
ATOM      7  N   UNL d   1      27.690 -16.063   0.868  0.00  0.00    -0.381 N 
ATOM      8  H   UNL d   1      28.190 -16.524   1.630  0.00  0.00     0.160 HD
BRANCH   7   9
ATOM      9  C   UNL d   1      28.186 -14.720   0.519  0.00  0.00     0.223 C 
BRANCH   9  10
ATOM     10  C   UNL d   1      28.604 -14.729  -0.961  0.00  0.00     0.239 C 
ATOM     11  N   UNL d   1      28.758 -15.975  -1.578  0.00  0.00    -0.326 N 
ATOM     12  H   UNL d   1      28.584 -16.817  -1.041  0.00  0.00     0.169 HD
ATOM     13  O   UNL d   1      28.780 -13.634  -1.505  0.00  0.00    -0.271 OA
BRANCH  11  14
ATOM     14  C   UNL d   1      29.155 -16.156  -2.939  0.00  0.00     0.035 A 
ATOM     15  C   UNL d   1      30.175 -17.052  -3.288  0.00  0.00     0.029 A 
ATOM     16  C   UNL d   1      30.558 -17.202  -4.638  0.00  0.00     0.003 A 
ATOM     17  C   UNL d   1      29.927 -16.472  -5.649  0.00  0.00     0.007 A 
ATOM     18  C   UNL d   1      28.908 -15.590  -5.319  0.00  0.00    -0.060 A 
ATOM     19  C   UNL d   1      28.162 -14.779  -6.333  0.00  0.00     0.048 C 
ATOM     20  C   UNL d   1      28.544 -15.448  -3.977  0.00  0.00     0.036 A 
ENDBRANCH  11  14
ENDBRANCH   9  10
ENDBRANCH   7   9
ENDBRANCH   1   7
BRANCH   4  21
ATOM     21  C   UNL d   1      22.927 -18.497  -1.207  0.00  0.00     0.251 C 
ATOM     22  O   UNL d   1      22.918 -19.101  -2.279  0.00  0.00    -0.268 OA
ATOM     23  N   UNL d   1      21.805 -18.394  -0.416  0.00  0.00    -0.351 N 
ATOM     24  H   UNL d   1      21.838 -17.844   0.422  0.00  0.00     0.163 HD
BRANCH  23  25
ATOM     25  C   UNL d   1      20.516 -18.988  -0.760  0.00  0.00     0.187 C 
BRANCH  25  26
ATOM     26  C   UNL d   1      19.936 -19.639   0.458  0.00  0.00     0.070 A 
ATOM     27  C   UNL d   1      18.857 -20.483   0.647  0.00  0.00     0.036 A 
ATOM     28  C   UNL d   1      18.793 -20.776   2.026  0.00  0.00     0.027 A 
ATOM     29  C   UNL d   1      19.821 -20.075   2.610  0.00  0.00     0.142 A 
ATOM     30  O   UNL d   1      20.525 -19.385   1.669  0.00  0.00    -0.325 OA
ENDBRANCH  25  26
ENDBRANCH  23  25
ENDBRANCH   4  21
TORSDOF 7
ENDMDL
MODEL 9
REMARK VINA RESULT:    -7.838      3.768      5.993
REMARK INTER + INTRA:         -11.520
REMARK INTER:                  -9.926
REMARK INTRA:                  -1.594
REMARK CONF_INDEPENDENT:        2.088
REMARK UNBOUND:                -1.594
REMARK  7 active torsions:
REMARK  status: ('A' for Active; 'I' for Inactive)
REMARK    1  A    between atoms: C_6  and  N_7 
REMARK       I    between atoms: N_7  and  C_8 
REMARK    2  A    between atoms: C_8  and  C_10 
REMARK    3  A    between atoms: C_10  and  N_11 
REMARK    4  A    between atoms: N_11  and  C_12 
REMARK    5  A    between atoms: C_15  and  C_16 
REMARK       I    between atoms: C_16  and  N_18 
REMARK    6  A    between atoms: N_18  and  C_19 
REMARK    7  A    between atoms: C_19  and  C_20 
ROOT
ATOM      1  C   UNL d   1      26.763 -16.858   0.145  0.00  0.00     0.028 A 
ATOM      2  C   UNL d   1      26.231 -18.001   0.733  0.00  0.00     0.030 A 
ATOM      3  C   UNL d   1      25.019 -18.559   0.300  0.00  0.00     0.019 A 
ATOM      4  C   UNL d   1      24.308 -17.997  -0.766  0.00  0.00     0.032 A 
ATOM      5  C   UNL d   1      24.838 -16.845  -1.366  0.00  0.00     0.019 A 
ATOM      6  C   UNL d   1      26.045 -16.278  -0.907  0.00  0.00     0.030 A 
ENDROOT
BRANCH   1   7
ATOM      7  N   UNL d   1      27.981 -16.356   0.537  0.00  0.00    -0.381 N 
ATOM      8  H   UNL d   1      28.189 -16.239   1.531  0.00  0.00     0.160 HD
BRANCH   7   9
ATOM      9  C   UNL d   1      29.019 -15.854  -0.380  0.00  0.00     0.223 C 
BRANCH   9  10
ATOM     10  C   UNL d   1      29.552 -17.041  -1.202  0.00  0.00     0.239 C 
ATOM     11  N   UNL d   1      30.347 -17.979  -0.535  0.00  0.00    -0.326 N 
ATOM     12  H   UNL d   1      30.536 -17.853   0.454  0.00  0.00     0.169 HD
ATOM     13  O   UNL d   1      29.245 -17.083  -2.397  0.00  0.00    -0.271 OA
BRANCH  11  14
ATOM     14  C   UNL d   1      30.930 -19.127  -1.156  0.00  0.00     0.035 A 
ATOM     15  C   UNL d   1      31.601 -19.030  -2.383  0.00  0.00     0.029 A 
ATOM     16  C   UNL d   1      32.156 -20.181  -2.982  0.00  0.00     0.003 A 
ATOM     17  C   UNL d   1      32.055 -21.431  -2.366  0.00  0.00     0.007 A 
ATOM     18  C   UNL d   1      31.403 -21.539  -1.146  0.00  0.00    -0.060 A 
ATOM     19  C   UNL d   1      31.261 -22.831  -0.401  0.00  0.00     0.048 C 
ATOM     20  C   UNL d   1      30.854 -20.391  -0.567  0.00  0.00     0.036 A 
ENDBRANCH  11  14
ENDBRANCH   9  10
ENDBRANCH   7   9
ENDBRANCH   1   7
BRANCH   4  21
ATOM     21  C   UNL d   1      23.022 -18.584  -1.297  0.00  0.00     0.251 C 
ATOM     22  O   UNL d   1      23.001 -19.155  -2.387  0.00  0.00    -0.268 OA
ATOM     23  N   UNL d   1      21.896 -18.462  -0.515  0.00  0.00    -0.351 N 
ATOM     24  H   UNL d   1      21.942 -17.939   0.340  0.00  0.00     0.163 HD
BRANCH  23  25
ATOM     25  C   UNL d   1      20.589 -18.993  -0.890  0.00  0.00     0.187 C 
BRANCH  25  26
ATOM     26  C   UNL d   1      19.960 -19.637   0.307  0.00  0.00     0.070 A 
ATOM     27  C   UNL d   1      18.865 -20.468   0.460  0.00  0.00     0.036 A 
ATOM     28  C   UNL d   1      18.752 -20.761   1.836  0.00  0.00     0.027 A 
ATOM     29  C   UNL d   1      19.769 -20.075   2.455  0.00  0.00     0.142 A 
ATOM     30  O   UNL d   1      20.512 -19.392   1.538  0.00  0.00    -0.325 OA
ENDBRANCH  25  26
ENDBRANCH  23  25
ENDBRANCH   4  21
TORSDOF 7
ENDMDL
