MODEL 1
REMARK VINA RESULT:    -7.496      0.000      0.000
REMARK INTER + INTRA:          -9.341
REMARK INTER:                  -8.689
REMARK INTRA:                  -0.652
REMARK CONF_INDEPENDENT:        1.193
REMARK UNBOUND:                -0.652
REMARK  4 active torsions:
REMARK  status: ('A' for Active; 'I' for Inactive)
REMARK    1  A    between atoms: N_1  and  C_2 
REMARK    2  A    between atoms: C_7  and  N_8 
REMARK       I    between atoms: N_8  and  C_9 
REMARK    3  A    between atoms: C_11  and  C_9 
REMARK    4  A    between atoms: C_13  and  C_14 
ROOT
ATOM      1  C   UNL d   1      28.702 -13.266  -7.552  0.00  0.00     0.036 C 
ATOM      2  C   UNL d   1      29.403 -14.449  -7.270  0.00  0.00     0.030 C 
ATOM      3  C   UNL d   1      29.276 -15.047  -6.044  0.00  0.00     0.003 C 
ATOM      4  C   UNL d   1      28.500 -14.428  -5.087  0.00  0.00     0.014 C 
ATOM      5  C   UNL d   1      27.629 -13.368  -5.326  0.00  0.00     0.003 A 
ATOM      6  C   UNL d   1      26.706 -12.933  -4.322  0.00  0.00     0.045 A 
ATOM      7  C   UNL d   1      26.013 -11.729  -4.579  0.00  0.00     0.030 A 
ATOM      8  C   UNL d   1      26.168 -11.044  -5.801  0.00  0.00     0.003 A 
ATOM      9  C   UNL d   1      27.029 -11.532  -6.791  0.00  0.00     0.014 A 
ATOM     10  C   UNL d   1      27.781 -12.714  -6.590  0.00  0.00     0.003 A 
ENDROOT
BRANCH   6  11
ATOM     11  N   UNL d   1      26.488 -13.611  -3.036  0.00  0.00    -0.326 N 
ATOM     12  C   UNL d   1      25.946 -14.907  -2.802  0.00  0.00     0.227 C 
ATOM     13  O   UNL d   1      25.233 -15.535  -3.546  0.00  0.00    -0.273 OA
ATOM     14  H   UNL d   1      26.660 -13.048  -2.215  0.00  0.00     0.169 HD
BRANCH  12  15
ATOM     15  C   UNL d   1      26.494 -15.672  -1.639  0.00  0.00     0.087 A 
ATOM     16  C   UNL d   1      26.211 -15.426  -0.190  0.00  0.00     0.025 A 
ATOM     17  C   UNL d   1      25.871 -16.767  -0.811  0.00  0.00     0.032 A 
BRANCH  17  18
ATOM     18  C   UNL d   1      24.492 -17.395  -0.710  0.00  0.00    -0.053 A 
ATOM     19  C   UNL d   1      24.178 -18.735  -0.467  0.00  0.00     0.007 A 
ATOM     20  C   UNL d   1      22.842 -19.190  -0.520  0.00  0.00     0.001 A 
ATOM     21  C   UNL d   1      21.780 -18.302  -0.711  0.00  0.00     0.000 A 
ATOM     22  C   UNL d   1      22.049 -16.958  -0.895  0.00  0.00     0.001 A 
ATOM     23  C   UNL d   1      23.378 -16.528  -0.902  0.00  0.00     0.007 A 
ENDBRANCH  17  18
ENDBRANCH  12  15
ENDBRANCH   6  11
BRANCH   1  24
ATOM     24  N   UNL d   1      29.020 -12.649  -8.761  0.00  0.00    -0.398 N 
ATOM     25  H   UNL d   1      29.563 -13.168  -9.441  0.00  0.00     0.156 HD
ATOM     26  H   UNL d   1      28.612 -11.772  -9.035  0.00  0.00     0.156 HD
ENDBRANCH   1  24
TORSDOF 4
ENDMDL
MODEL 2
REMARK VINA RESULT:    -7.432      1.669      2.302
REMARK INTER + INTRA:          -9.533
REMARK INTER:                  -8.625
REMARK INTRA:                  -0.909
REMARK CONF_INDEPENDENT:        1.193
REMARK UNBOUND:                -0.909
REMARK  4 active torsions:
REMARK  status: ('A' for Active; 'I' for Inactive)
REMARK    1  A    between atoms: N_1  and  C_2 
REMARK    2  A    between atoms: C_7  and  N_8 
REMARK       I    between atoms: N_8  and  C_9 
REMARK    3  A    between atoms: C_11  and  C_9 
REMARK    4  A    between atoms: C_13  and  C_14 
ROOT
ATOM      1  C   UNL d   1      28.953 -14.366  -6.831  0.00  0.00     0.036 C 
ATOM      2  C   UNL d   1      29.908 -15.393  -6.895  0.00  0.00     0.030 C 
ATOM      3  C   UNL d   1      30.019 -16.293  -5.867  0.00  0.00     0.003 C 
ATOM      4  C   UNL d   1      29.219 -16.126  -4.757  0.00  0.00     0.014 C 
ATOM      5  C   UNL d   1      28.128 -15.264  -4.679  0.00  0.00     0.003 A 
ATOM      6  C   UNL d   1      27.228 -15.314  -3.567  0.00  0.00     0.045 A 
ATOM      7  C   UNL d   1      26.279 -14.272  -3.473  0.00  0.00     0.030 A 
ATOM      8  C   UNL d   1      26.178 -13.285  -4.474  0.00  0.00     0.003 A 
ATOM      9  C   UNL d   1      27.030 -13.302  -5.585  0.00  0.00     0.014 A 
ATOM     10  C   UNL d   1      28.027 -14.296  -5.728  0.00  0.00     0.003 A 
ENDROOT
BRANCH   6  11
ATOM     11  N   UNL d   1      27.271 -16.325  -2.500  0.00  0.00    -0.326 N 
ATOM     12  C   UNL d   1      28.342 -16.624  -1.610  0.00  0.00     0.227 C 
ATOM     13  O   UNL d   1      29.513 -16.387  -1.785  0.00  0.00    -0.273 OA
ATOM     14  H   UNL d   1      26.474 -16.943  -2.457  0.00  0.00     0.169 HD
BRANCH  12  15
ATOM     15  C   UNL d   1      27.973 -17.051  -0.225  0.00  0.00     0.087 A 
ATOM     16  C   UNL d   1      27.353 -16.201   0.840  0.00  0.00     0.025 A 
ATOM     17  C   UNL d   1      26.636 -17.445   0.351  0.00  0.00     0.032 A 
BRANCH  17  18
ATOM     18  C   UNL d   1      25.199 -17.427  -0.141  0.00  0.00    -0.053 A 
ATOM     19  C   UNL d   1      24.459 -16.325  -0.578  0.00  0.00     0.007 A 
ATOM     20  C   UNL d   1      23.089 -16.449  -0.894  0.00  0.00     0.001 A 
ATOM     21  C   UNL d   1      22.451 -17.693  -0.885  0.00  0.00     0.000 A 
ATOM     22  C   UNL d   1      23.168 -18.816  -0.515  0.00  0.00     0.001 A 
ATOM     23  C   UNL d   1      24.508 -18.672  -0.145  0.00  0.00     0.007 A 
ENDBRANCH  17  18
ENDBRANCH  12  15
ENDBRANCH   6  11
BRANCH   1  24
ATOM     24  N   UNL d   1      29.026 -13.410  -7.842  0.00  0.00    -0.398 N 
ATOM     25  H   UNL d   1      29.056 -12.431  -7.580  0.00  0.00     0.156 HD
ATOM     26  H   UNL d   1      29.192 -13.659  -8.802  0.00  0.00     0.156 HD
ENDBRANCH   1  24
TORSDOF 4
ENDMDL
MODEL 3
REMARK VINA RESULT:    -7.251      5.078      8.119
REMARK INTER + INTRA:          -9.079
REMARK INTER:                  -8.444
REMARK INTRA:                  -0.634
REMARK CONF_INDEPENDENT:        1.193
REMARK UNBOUND:                -0.634
REMARK  4 active torsions:
REMARK  status: ('A' for Active; 'I' for Inactive)
REMARK    1  A    between atoms: N_1  and  C_2 
REMARK    2  A    between atoms: C_7  and  N_8 
REMARK       I    between atoms: N_8  and  C_9 
REMARK    3  A    between atoms: C_11  and  C_9 
REMARK    4  A    between atoms: C_13  and  C_14 
ROOT
ATOM      1  C   UNL d   1      28.666 -12.458   6.408  0.00  0.00     0.036 C 
ATOM      2  C   UNL d   1      28.906 -13.778   6.823  0.00  0.00     0.030 C 
ATOM      3  C   UNL d   1      28.584 -14.826   6.001  0.00  0.00     0.003 C 
ATOM      4  C   UNL d   1      27.969 -14.553   4.798  0.00  0.00     0.014 C 
ATOM      5  C   UNL d   1      27.860 -13.289   4.223  0.00  0.00     0.003 A 
ATOM      6  C   UNL d   1      27.399 -13.131   2.877  0.00  0.00     0.045 A 
ATOM      7  C   UNL d   1      27.126 -11.811   2.453  0.00  0.00     0.030 A 
ATOM      8  C   UNL d   1      27.377 -10.708   3.293  0.00  0.00     0.003 A 
ATOM      9  C   UNL d   1      27.891 -10.893   4.583  0.00  0.00     0.014 A 
ATOM     10  C   UNL d   1      28.157 -12.188   5.086  0.00  0.00     0.003 A 
ENDROOT
BRANCH   6  11
ATOM     11  N   UNL d   1      27.134 -14.238   1.947  0.00  0.00    -0.326 N 
ATOM     12  C   UNL d   1      26.919 -14.177   0.540  0.00  0.00     0.227 C 
ATOM     13  O   UNL d   1      26.546 -13.218  -0.091  0.00  0.00    -0.273 OA
ATOM     14  H   UNL d   1      26.998 -15.142   2.376  0.00  0.00     0.169 HD
BRANCH  12  15
ATOM     15  C   UNL d   1      27.426 -15.325  -0.274  0.00  0.00     0.087 A 
ATOM     16  C   UNL d   1      27.811 -16.680   0.229  0.00  0.00     0.025 A 
ATOM     17  C   UNL d   1      26.706 -16.541  -0.800  0.00  0.00     0.032 A 
BRANCH  17  18
ATOM     18  C   UNL d   1      25.325 -17.146  -0.612  0.00  0.00    -0.053 A 
ATOM     19  C   UNL d   1      25.009 -18.428  -0.153  0.00  0.00     0.007 A 
ATOM     20  C   UNL d   1      23.674 -18.887  -0.145  0.00  0.00     0.001 A 
ATOM     21  C   UNL d   1      22.614 -18.046  -0.493  0.00  0.00     0.000 A 
ATOM     22  C   UNL d   1      22.885 -16.751  -0.895  0.00  0.00     0.001 A 
ATOM     23  C   UNL d   1      24.214 -16.325  -0.958  0.00  0.00     0.007 A 
ENDBRANCH  17  18
ENDBRANCH  12  15
ENDBRANCH   6  11
BRANCH   1  24
ATOM     24  N   UNL d   1      28.875 -11.474   7.373  0.00  0.00    -0.398 N 
ATOM     25  H   UNL d   1      29.750 -10.963   7.361  0.00  0.00     0.156 HD
ATOM     26  H   UNL d   1      28.139 -11.159   7.981  0.00  0.00     0.156 HD
ENDBRANCH   1  24
TORSDOF 4
ENDMDL
MODEL 4
REMARK VINA RESULT:    -7.244      1.129      2.869
REMARK INTER + INTRA:          -9.088
REMARK INTER:                  -8.437
REMARK INTRA:                  -0.650
REMARK CONF_INDEPENDENT:        1.193
REMARK UNBOUND:                -0.650
REMARK  4 active torsions:
REMARK  status: ('A' for Active; 'I' for Inactive)
REMARK    1  A    between atoms: N_1  and  C_2 
REMARK    2  A    between atoms: C_7  and  N_8 
REMARK       I    between atoms: N_8  and  C_9 
REMARK    3  A    between atoms: C_11  and  C_9 
REMARK    4  A    between atoms: C_13  and  C_14 
ROOT
ATOM      1  C   UNL d   1      28.610 -13.424  -7.262  0.00  0.00     0.036 C 
ATOM      2  C   UNL d   1      27.781 -12.412  -6.753  0.00  0.00     0.030 C 
ATOM      3  C   UNL d   1      27.292 -12.502  -5.477  0.00  0.00     0.003 C 
ATOM      4  C   UNL d   1      27.583 -13.628  -4.738  0.00  0.00     0.014 C 
ATOM      5  C   UNL d   1      28.537 -14.585  -5.080  0.00  0.00     0.003 A 
ATOM      6  C   UNL d   1      28.924 -15.603  -4.150  0.00  0.00     0.045 A 
ATOM      7  C   UNL d   1      29.736 -16.643  -4.653  0.00  0.00     0.030 A 
ATOM      8  C   UNL d   1      30.203 -16.626  -5.983  0.00  0.00     0.003 A 
ATOM      9  C   UNL d   1      29.860 -15.581  -6.849  0.00  0.00     0.014 A 
ATOM     10  C   UNL d   1      29.023 -14.522  -6.424  0.00  0.00     0.003 A 
ENDROOT
BRANCH   6  11
ATOM     11  N   UNL d   1      28.484 -15.668  -2.749  0.00  0.00    -0.326 N 
ATOM     12  C   UNL d   1      27.206 -16.035  -2.241  0.00  0.00     0.227 C 
ATOM     13  O   UNL d   1      26.156 -16.001  -2.836  0.00  0.00    -0.273 OA
ATOM     14  H   UNL d   1      29.147 -15.321  -2.070  0.00  0.00     0.169 HD
BRANCH  12  15
ATOM     15  C   UNL d   1      27.178 -16.759  -0.932  0.00  0.00     0.087 A 
ATOM     16  C   UNL d   1      26.667 -16.234   0.373  0.00  0.00     0.025 A 
ATOM     17  C   UNL d   1      26.047 -17.476  -0.238  0.00  0.00     0.032 A 
BRANCH  17  18
ATOM     18  C   UNL d   1      24.553 -17.621  -0.471  0.00  0.00    -0.053 A 
ATOM     19  C   UNL d   1      23.627 -16.609  -0.738  0.00  0.00     0.007 A 
ATOM     20  C   UNL d   1      22.246 -16.890  -0.815  0.00  0.00     0.001 A 
ATOM     21  C   UNL d   1      21.765 -18.200  -0.733  0.00  0.00     0.000 A 
ATOM     22  C   UNL d   1      22.659 -19.235  -0.530  0.00  0.00     0.001 A 
ATOM     23  C   UNL d   1      24.018 -18.939  -0.394  0.00  0.00     0.007 A 
ENDBRANCH  17  18
ENDBRANCH  12  15
ENDBRANCH   6  11
BRANCH   1  24
ATOM     24  N   UNL d   1      28.922 -13.326  -8.617  0.00  0.00    -0.398 N 
ATOM     25  H   UNL d   1      29.892 -13.197  -8.881  0.00  0.00     0.156 HD
ATOM     26  H   UNL d   1      28.247 -13.520  -9.336  0.00  0.00     0.156 HD
ENDBRANCH   1  24
TORSDOF 4
ENDMDL
MODEL 5
REMARK VINA RESULT:    -7.211      5.244      8.022
REMARK INTER + INTRA:          -8.831
REMARK INTER:                  -8.404
REMARK INTRA:                  -0.427
REMARK CONF_INDEPENDENT:        1.193
REMARK UNBOUND:                -0.427
REMARK  4 active torsions:
REMARK  status: ('A' for Active; 'I' for Inactive)
REMARK    1  A    between atoms: N_1  and  C_2 
REMARK    2  A    between atoms: C_7  and  N_8 
REMARK       I    between atoms: N_8  and  C_9 
REMARK    3  A    between atoms: C_11  and  C_9 
REMARK    4  A    between atoms: C_13  and  C_14 
ROOT
ATOM      1  C   UNL d   1      27.898  -9.903   4.500  0.00  0.00     0.036 C 
ATOM      2  C   UNL d   1      27.400  -9.455   3.267  0.00  0.00     0.030 C 
ATOM      3  C   UNL d   1      27.264 -10.330   2.222  0.00  0.00     0.003 C 
ATOM      4  C   UNL d   1      27.683 -11.632   2.395  0.00  0.00     0.014 C 
ATOM      5  C   UNL d   1      28.011 -12.211   3.618  0.00  0.00     0.003 A 
ATOM      6  C   UNL d   1      28.226 -13.622   3.730  0.00  0.00     0.045 A 
ATOM      7  C   UNL d   1      28.754 -14.086   4.956  0.00  0.00     0.030 A 
ATOM      8  C   UNL d   1      28.975 -13.207   6.035  0.00  0.00     0.003 A 
ATOM      9  C   UNL d   1      28.692 -11.841   5.915  0.00  0.00     0.014 A 
ATOM     10  C   UNL d   1      28.193 -11.300   4.706  0.00  0.00     0.003 A 
ENDROOT
BRANCH   6  11
ATOM     11  N   UNL d   1      28.000 -14.592   2.649  0.00  0.00    -0.326 N 
ATOM     12  C   UNL d   1      27.181 -14.450   1.493  0.00  0.00     0.227 C 
ATOM     13  O   UNL d   1      26.249 -13.695   1.358  0.00  0.00    -0.273 OA
ATOM     14  H   UNL d   1      28.406 -15.506   2.795  0.00  0.00     0.169 HD
BRANCH  12  15
ATOM     15  C   UNL d   1      27.654 -15.116   0.240  0.00  0.00     0.087 A 
ATOM     16  C   UNL d   1      28.211 -16.500   0.116  0.00  0.00     0.025 A 
ATOM     17  C   UNL d   1      26.963 -16.114  -0.655  0.00  0.00     0.032 A 
BRANCH  17  18
ATOM     18  C   UNL d   1      25.674 -16.915  -0.590  0.00  0.00    -0.053 A 
ATOM     19  C   UNL d   1      25.478 -18.175  -0.019  0.00  0.00     0.007 A 
ATOM     20  C   UNL d   1      24.242 -18.845  -0.142  0.00  0.00     0.001 A 
ATOM     21  C   UNL d   1      23.140 -18.231  -0.745  0.00  0.00     0.000 A 
ATOM     22  C   UNL d   1      23.280 -16.958  -1.269  0.00  0.00     0.001 A 
ATOM     23  C   UNL d   1      24.525 -16.329  -1.195  0.00  0.00     0.007 A 
ENDBRANCH  17  18
ENDBRANCH  12  15
ENDBRANCH   6  11
BRANCH   1  24
ATOM     24  N   UNL d   1      28.152  -8.912   5.446  0.00  0.00    -0.398 N 
ATOM     25  H   UNL d   1      27.372  -8.369   5.799  0.00  0.00     0.156 HD
ATOM     26  H   UNL d   1      29.049  -8.815   5.891  0.00  0.00     0.156 HD
ENDBRANCH   1  24
TORSDOF 4
ENDMDL
MODEL 6
REMARK VINA RESULT:    -6.772      2.207      7.145
REMARK INTER + INTRA:          -8.947
REMARK INTER:                  -7.966
REMARK INTRA:                  -0.982
REMARK CONF_INDEPENDENT:        1.193
REMARK UNBOUND:                -0.982
REMARK  4 active torsions:
REMARK  status: ('A' for Active; 'I' for Inactive)
REMARK    1  A    between atoms: N_1  and  C_2 
REMARK    2  A    between atoms: C_7  and  N_8 
REMARK       I    between atoms: N_8  and  C_9 
REMARK    3  A    between atoms: C_11  and  C_9 
REMARK    4  A    between atoms: C_13  and  C_14 
ROOT
ATOM      1  C   UNL d   1      27.124 -18.171   0.153  0.00  0.00     0.036 C 
ATOM      2  C   UNL d   1      28.291 -17.587  -0.362  0.00  0.00     0.030 C 
ATOM      3  C   UNL d   1      28.206 -16.594  -1.302  0.00  0.00     0.003 C 
ATOM      4  C   UNL d   1      26.960 -16.233  -1.767  0.00  0.00     0.014 C 
ATOM      5  C   UNL d   1      25.750 -16.615  -1.192  0.00  0.00     0.003 A 
ATOM      6  C   UNL d   1      24.517 -16.020  -1.609  0.00  0.00     0.045 A 
ATOM      7  C   UNL d   1      23.331 -16.613  -1.122  0.00  0.00     0.030 A 
ATOM      8  C   UNL d   1      23.373 -17.684  -0.206  0.00  0.00     0.003 A 
ATOM      9  C   UNL d   1      24.598 -18.201   0.234  0.00  0.00     0.014 A 
ATOM     10  C   UNL d   1      25.826 -17.679  -0.238  0.00  0.00     0.003 A 
ENDROOT
BRANCH   6  11
ATOM     11  N   UNL d   1      24.406 -14.893  -2.547  0.00  0.00    -0.326 N 
ATOM     12  C   UNL d   1      25.332 -13.834  -2.769  0.00  0.00     0.227 C 
ATOM     13  O   UNL d   1      26.180 -13.446  -2.002  0.00  0.00    -0.273 OA
ATOM     14  H   UNL d   1      23.520 -14.814  -3.027  0.00  0.00     0.169 HD
BRANCH  12  15
ATOM     15  C   UNL d   1      25.437 -13.305  -4.164  0.00  0.00     0.087 A 
ATOM     16  C   UNL d   1      26.412 -12.288  -4.666  0.00  0.00     0.025 A 
ATOM     17  C   UNL d   1      26.383 -13.675  -5.279  0.00  0.00     0.032 A 
BRANCH  17  18
ATOM     18  C   UNL d   1      27.620 -14.547  -5.403  0.00  0.00    -0.053 A 
ATOM     19  C   UNL d   1      28.041 -15.563  -4.540  0.00  0.00     0.007 A 
ATOM     20  C   UNL d   1      29.282 -16.208  -4.727  0.00  0.00     0.001 A 
ATOM     21  C   UNL d   1      30.085 -15.930  -5.837  0.00  0.00     0.000 A 
ATOM     22  C   UNL d   1      29.672 -14.972  -6.746  0.00  0.00     0.001 A 
ATOM     23  C   UNL d   1      28.471 -14.297  -6.518  0.00  0.00     0.007 A 
ENDBRANCH  17  18
ENDBRANCH  12  15
ENDBRANCH   6  11
BRANCH   1  24
ATOM     24  N   UNL d   1      27.314 -19.278   0.978  0.00  0.00    -0.398 N 
ATOM     25  H   UNL d   1      28.192 -19.780   0.919  0.00  0.00     0.156 HD
ATOM     26  H   UNL d   1      26.677 -19.505   1.721  0.00  0.00     0.156 HD
ENDBRANCH   1  24
TORSDOF 4
ENDMDL
MODEL 7
REMARK VINA RESULT:    -6.711      3.101      5.007
REMARK INTER + INTRA:          -9.054
REMARK INTER:                  -7.904
REMARK INTRA:                  -1.149
REMARK CONF_INDEPENDENT:        1.193
REMARK UNBOUND:                -1.149
REMARK  4 active torsions:
REMARK  status: ('A' for Active; 'I' for Inactive)
REMARK    1  A    between atoms: N_1  and  C_2 
REMARK    2  A    between atoms: C_7  and  N_8 
REMARK       I    between atoms: N_8  and  C_9 
REMARK    3  A    between atoms: C_11  and  C_9 
REMARK    4  A    between atoms: C_13  and  C_14 
ROOT
ATOM      1  C   UNL d   1      31.201 -18.719  -2.936  0.00  0.00     0.036 C 
ATOM      2  C   UNL d   1      30.780 -18.471  -1.620  0.00  0.00     0.030 C 
ATOM      3  C   UNL d   1      29.967 -17.402  -1.348  0.00  0.00     0.003 C 
ATOM      4  C   UNL d   1      29.630 -16.553  -2.380  0.00  0.00     0.014 C 
ATOM      5  C   UNL d   1      29.839 -16.815  -3.733  0.00  0.00     0.003 A 
ATOM      6  C   UNL d   1      29.264 -15.978  -4.741  0.00  0.00     0.045 A 
ATOM      7  C   UNL d   1      29.698 -16.196  -6.068  0.00  0.00     0.030 A 
ATOM      8  C   UNL d   1      30.590 -17.242  -6.381  0.00  0.00     0.003 A 
ATOM      9  C   UNL d   1      31.083 -18.086  -5.379  0.00  0.00     0.014 A 
ATOM     10  C   UNL d   1      30.718 -17.905  -4.024  0.00  0.00     0.003 A 
ENDROOT
BRANCH   6  11
ATOM     11  N   UNL d   1      28.318 -14.883  -4.482  0.00  0.00    -0.326 N 
ATOM     12  C   UNL d   1      26.908 -14.866  -4.685  0.00  0.00     0.227 C 
ATOM     13  O   UNL d   1      26.280 -15.575  -5.433  0.00  0.00    -0.273 OA
ATOM     14  H   UNL d   1      28.736 -14.004  -4.212  0.00  0.00     0.169 HD
BRANCH  12  15
ATOM     15  C   UNL d   1      26.092 -14.072  -3.714  0.00  0.00     0.087 A 
ATOM     16  C   UNL d   1      24.601 -14.074  -3.585  0.00  0.00     0.025 A 
ATOM     17  C   UNL d   1      25.464 -14.481  -2.406  0.00  0.00     0.032 A 
BRANCH  17  18
ATOM     18  C   UNL d   1      25.273 -15.790  -1.659  0.00  0.00    -0.053 A 
ATOM     19  C   UNL d   1      24.069 -16.415  -1.324  0.00  0.00     0.007 A 
ATOM     20  C   UNL d   1      24.052 -17.576  -0.520  0.00  0.00     0.001 A 
ATOM     21  C   UNL d   1      25.237 -18.200  -0.121  0.00  0.00     0.000 A 
ATOM     22  C   UNL d   1      26.449 -17.643  -0.486  0.00  0.00     0.001 A 
ATOM     23  C   UNL d   1      26.454 -16.460  -1.230  0.00  0.00     0.007 A 
ENDBRANCH  17  18
ENDBRANCH  12  15
ENDBRANCH   6  11
BRANCH   1  24
ATOM     24  N   UNL d   1      32.152 -19.727  -3.087  0.00  0.00    -0.398 N 
ATOM     25  H   UNL d   1      33.101 -19.545  -2.784  0.00  0.00     0.156 HD
ATOM     26  H   UNL d   1      31.899 -20.664  -3.348  0.00  0.00     0.156 HD
ENDBRANCH   1  24
TORSDOF 4
ENDMDL
MODEL 8
REMARK VINA RESULT:    -6.589      2.396      3.893
REMARK INTER + INTRA:          -8.932
REMARK INTER:                  -7.782
REMARK INTRA:                  -1.150
REMARK CONF_INDEPENDENT:        1.193
REMARK UNBOUND:                -1.150
REMARK  4 active torsions:
REMARK  status: ('A' for Active; 'I' for Inactive)
REMARK    1  A    between atoms: N_1  and  C_2 
REMARK    2  A    between atoms: C_7  and  N_8 
REMARK       I    between atoms: N_8  and  C_9 
REMARK    3  A    between atoms: C_11  and  C_9 
REMARK    4  A    between atoms: C_13  and  C_14 
ROOT
ATOM      1  C   UNL d   1      28.476 -14.622  -6.300  0.00  0.00     0.036 C 
ATOM      2  C   UNL d   1      27.439 -13.828  -5.785  0.00  0.00     0.030 C 
ATOM      3  C   UNL d   1      26.980 -14.040  -4.511  0.00  0.00     0.003 C 
ATOM      4  C   UNL d   1      27.516 -15.080  -3.783  0.00  0.00     0.014 C 
ATOM      5  C   UNL d   1      28.661 -15.793  -4.129  0.00  0.00     0.003 A 
ATOM      6  C   UNL d   1      29.265 -16.707  -3.208  0.00  0.00     0.045 A 
ATOM      7  C   UNL d   1      30.292 -17.533  -3.718  0.00  0.00     0.030 A 
ATOM      8  C   UNL d   1      30.747 -17.397  -5.045  0.00  0.00     0.003 A 
ATOM      9  C   UNL d   1      30.179 -16.446  -5.902  0.00  0.00     0.014 A 
ATOM     10  C   UNL d   1      29.124 -15.608  -5.470  0.00  0.00     0.003 A 
ENDROOT
BRANCH   6  11
ATOM     11  N   UNL d   1      28.848 -16.885  -1.810  0.00  0.00    -0.326 N 
ATOM     12  C   UNL d   1      29.472 -16.385  -0.632  0.00  0.00     0.227 C 
ATOM     13  O   UNL d   1      30.626 -16.052  -0.514  0.00  0.00    -0.273 OA
ATOM     14  H   UNL d   1      28.073 -17.518  -1.666  0.00  0.00     0.169 HD
BRANCH  12  15
ATOM     15  C   UNL d   1      28.575 -16.005   0.503  0.00  0.00     0.087 A 
ATOM     16  C   UNL d   1      27.606 -14.865   0.536  0.00  0.00     0.025 A 
ATOM     17  C   UNL d   1      27.109 -16.285   0.723  0.00  0.00     0.032 A 
BRANCH  17  18
ATOM     18  C   UNL d   1      25.985 -16.880  -0.108  0.00  0.00    -0.053 A 
ATOM     19  C   UNL d   1      25.546 -16.471  -1.370  0.00  0.00     0.007 A 
ATOM     20  C   UNL d   1      24.405 -17.052  -1.965  0.00  0.00     0.001 A 
ATOM     21  C   UNL d   1      23.739 -18.125  -1.366  0.00  0.00     0.000 A 
ATOM     22  C   UNL d   1      24.183 -18.597  -0.144  0.00  0.00     0.001 A 
ATOM     23  C   UNL d   1      25.275 -17.975   0.465  0.00  0.00     0.007 A 
ENDBRANCH  17  18
ENDBRANCH  12  15
ENDBRANCH   6  11
BRANCH   1  24
ATOM     24  N   UNL d   1      28.762 -14.441  -7.652  0.00  0.00    -0.398 N 
ATOM     25  H   UNL d   1      29.664 -14.057  -7.908  0.00  0.00     0.156 HD
ATOM     26  H   UNL d   1      28.168 -14.807  -8.376  0.00  0.00     0.156 HD
ENDBRANCH   1  24
TORSDOF 4
ENDMDL
MODEL 9
REMARK VINA RESULT:    -6.529      2.097      3.527
REMARK INTER + INTRA:          -8.922
REMARK INTER:                  -7.722
REMARK INTRA:                  -1.200
REMARK CONF_INDEPENDENT:        1.193
REMARK UNBOUND:                -1.200
REMARK  4 active torsions:
REMARK  status: ('A' for Active; 'I' for Inactive)
REMARK    1  A    between atoms: N_1  and  C_2 
REMARK    2  A    between atoms: C_7  and  N_8 
REMARK       I    between atoms: N_8  and  C_9 
REMARK    3  A    between atoms: C_11  and  C_9 
REMARK    4  A    between atoms: C_13  and  C_14 
ROOT
ATOM      1  C   UNL d   1      26.139 -12.329  -4.773  0.00  0.00     0.036 C 
ATOM      2  C   UNL d   1      25.524 -12.055  -3.541  0.00  0.00     0.030 C 
ATOM      3  C   UNL d   1      25.710 -12.897  -2.477  0.00  0.00     0.003 C 
ATOM      4  C   UNL d   1      26.459 -14.039  -2.665  0.00  0.00     0.014 C 
ATOM      5  C   UNL d   1      27.254 -14.301  -3.779  0.00  0.00     0.003 A 
ATOM      6  C   UNL d   1      28.162 -15.407  -3.792  0.00  0.00     0.045 A 
ATOM      7  C   UNL d   1      28.768 -15.714  -5.030  0.00  0.00     0.030 A 
ATOM      8  C   UNL d   1      28.548 -14.913  -6.169  0.00  0.00     0.003 A 
ATOM      9  C   UNL d   1      27.704 -13.797  -6.107  0.00  0.00     0.014 A 
ATOM     10  C   UNL d   1      27.037 -13.450  -4.908  0.00  0.00     0.003 A 
ENDROOT
BRANCH   6  11
ATOM     11  N   UNL d   1      28.447 -16.269  -2.636  0.00  0.00    -0.326 N 
ATOM     12  C   UNL d   1      29.299 -16.005  -1.526  0.00  0.00     0.227 C 
ATOM     13  O   UNL d   1      30.216 -15.220  -1.492  0.00  0.00    -0.273 OA
ATOM     14  H   UNL d   1      28.060 -17.201  -2.684  0.00  0.00     0.169 HD
BRANCH  12  15
ATOM     15  C   UNL d   1      28.883 -16.564  -0.202  0.00  0.00     0.087 A 
ATOM     16  C   UNL d   1      28.032 -15.891   0.828  0.00  0.00     0.025 A 
ATOM     17  C   UNL d   1      27.585 -17.206   0.220  0.00  0.00     0.032 A 
BRANCH  17  18
ATOM     18  C   UNL d   1      26.217 -17.399  -0.412  0.00  0.00    -0.053 A 
ATOM     19  C   UNL d   1      25.751 -16.870  -1.619  0.00  0.00     0.007 A 
ATOM     20  C   UNL d   1      24.408 -17.044  -2.017  0.00  0.00     0.001 A 
ATOM     21  C   UNL d   1      23.527 -17.837  -1.276  0.00  0.00     0.000 A 
ATOM     22  C   UNL d   1      23.971 -18.427  -0.107  0.00  0.00     0.001 A 
ATOM     23  C   UNL d   1      25.285 -18.198   0.310  0.00  0.00     0.007 A 
ENDBRANCH  17  18
ENDBRANCH  12  15
ENDBRANCH   6  11
BRANCH   1  24
ATOM     24  N   UNL d   1      25.760 -11.509  -5.834  0.00  0.00    -0.398 N 
ATOM     25  H   UNL d   1      24.785 -11.494  -6.109  0.00  0.00     0.156 HD
ATOM     26  H   UNL d   1      26.387 -10.833  -6.235  0.00  0.00     0.156 HD
ENDBRANCH   1  24
TORSDOF 4
ENDMDL
