MODEL 1
REMARK VINA RESULT:   -27.597      0.000      0.000
REMARK INTER + INTRA:         -32.326
REMARK INTER:                 -29.685
REMARK INTRA:                  -2.641
REMARK CONF_INDEPENDENT:        2.088
REMARK UNBOUND:                -2.641
REMARK  7 active torsions:
REMARK  status: ('A' for Active; 'I' for Inactive)
REMARK    1  A    between atoms: N_1  and  C_2 
REMARK    2  A    between atoms: C_6  and  N_7 
REMARK    3  A    between atoms: C_10  and  C_11 
REMARK    4  A    between atoms: C_11  and  N_12 
REMARK    5  A    between atoms: C_18  and  C_19 
REMARK       I    between atoms: C_19  and  N_21 
REMARK    6  A    between atoms: N_21  and  N_22 
REMARK    7  A    between atoms: C_23  and  C_24 
ROOT
ATOM      1  N   UNL d   1      23.137 -18.342  -0.040  0.00  0.00    -0.208 N 
ATOM      2  N   UNL d   1      23.541 -18.908   1.126  0.00  0.00     0.012 NA
ATOM      3  N   UNL d   1      24.827 -18.575   1.363  0.00  0.00    -0.160 NA
ATOM      4  C   UNL d   1      25.228 -17.672   0.409  0.00  0.00     0.112 C 
ATOM      5  C   UNL d   1      24.102 -17.510  -0.448  0.00  0.00     0.153 C 
ENDROOT
BRANCH   5   6
ATOM      6  C   UNL d   1      23.942 -16.633  -1.541  0.00  0.00     0.292 C 
ATOM      7  O   UNL d   1      23.010 -16.000  -1.311  0.00  0.00    -0.264 OA
ATOM      8  N   UNL d   1      24.535 -16.349  -2.769  0.00  0.00    -0.242 N 
ATOM      9  H   UNL d   1      24.645 -17.117  -3.414  0.00  0.00     0.192 HD
BRANCH   8  10
ATOM     10  N   UNL d   1      24.405 -15.039  -3.327  0.00  0.00    -0.183 NA
ATOM     11  C   UNL d   1      25.320 -14.165  -3.005  0.00  0.00     0.151 C 
BRANCH  11  12
ATOM     12  C   UNL d   1      25.710 -12.923  -3.808  0.00  0.00    -0.006 A 
ATOM     13  C   UNL d   1      25.166 -11.651  -3.562  0.00  0.00     0.014 A 
ATOM     14  C   UNL d   1      25.539 -10.536  -4.342  0.00  0.00     0.002 A 
ATOM     15  C   UNL d   1      26.452 -10.675  -5.387  0.00  0.00     0.012 A 
ATOM     16  C   UNL d   1      27.014 -11.927  -5.663  0.00  0.00    -0.025 A 
ATOM     17  C   UNL d   1      27.965 -12.055  -6.693  0.00  0.00     0.012 A 
ATOM     18  C   UNL d   1      26.628 -13.067  -4.893  0.00  0.00    -0.014 A 
ATOM     19  C   UNL d   1      28.530 -13.294  -6.992  0.00  0.00     0.001 A 
ATOM     20  C   UNL d   1      28.136 -14.416  -6.282  0.00  0.00     0.001 A 
ATOM     21  C   UNL d   1      27.191 -14.303  -5.266  0.00  0.00     0.013 A 
ENDBRANCH  11  12
ENDBRANCH   8  10
ENDBRANCH   5   6
BRANCH   4  22
ATOM     22  C   UNL d   1      26.688 -17.042   0.410  0.00  0.00     0.297 C 
BRANCH  22  23
ATOM     23  N   UNL d   1      26.894 -15.783  -0.488  0.00  0.00    -0.066 N 
ATOM     24  C   UNL d   1      26.589 -14.411   0.424  0.00  0.00     0.235 C 
ATOM     25  C   UNL d   1      27.404 -13.186  -0.149  0.00  0.00     0.028 C 
ATOM     26  C   UNL d   1      28.837 -13.406  -0.855  0.00  0.00     0.003 C 
ATOM     27  C   UNL d   1      28.954 -14.614  -1.771  0.00  0.00     0.028 C 
ATOM     28  C   UNL d   1      28.410 -15.971  -1.239  0.00  0.00     0.235 C 
ATOM     29  H   UNL d   1      26.229 -15.727  -1.264  0.00  0.00     0.280 HD
ENDBRANCH  22  23
ENDBRANCH   4  22
BRANCH   1  30
ATOM     30  C   UNL d   1      21.919 -18.405  -0.779  0.00  0.00     0.220 C 
ATOM     31  N   UNL d   1      22.013 -18.908  -2.020  0.00  0.00    -0.082 NA
ATOM     32  O   UNL d   1      20.721 -19.325  -2.334  0.00  0.00    -0.103 OA
ATOM     33  N   UNL d   1      19.905 -19.325  -1.212  0.00  0.00    -0.089 NA
ATOM     34  C   UNL d   1      20.617 -18.753  -0.235  0.00  0.00     0.180 C 
BRANCH  34  35
ATOM     35  N   UNL d   1      20.235 -18.854   1.084  0.00  0.00    -0.282 NA
ATOM     36  H   UNL d   1      21.007 -18.825   1.764  0.00  0.00     0.126 HD
ATOM     37  H   UNL d   1      19.513 -18.253   1.479  0.00  0.00     0.126 HD
ENDBRANCH  34  35
ENDBRANCH   1  30
TORSDOF 7
ENDMDL
MODEL 2
REMARK VINA RESULT:   -27.127      1.275      2.141
REMARK INTER + INTRA:         -31.623
REMARK INTER:                 -29.215
REMARK INTRA:                  -2.407
REMARK CONF_INDEPENDENT:        2.088
REMARK UNBOUND:                -2.407
REMARK  7 active torsions:
REMARK  status: ('A' for Active; 'I' for Inactive)
REMARK    1  A    between atoms: N_1  and  C_2 
REMARK    2  A    between atoms: C_6  and  N_7 
REMARK    3  A    between atoms: C_10  and  C_11 
REMARK    4  A    between atoms: C_11  and  N_12 
REMARK    5  A    between atoms: C_18  and  C_19 
REMARK       I    between atoms: C_19  and  N_21 
REMARK    6  A    between atoms: N_21  and  N_22 
REMARK    7  A    between atoms: C_23  and  C_24 
ROOT
ATOM      1  N   UNL d   1      23.134 -18.334  -0.045  0.00  0.00    -0.208 N 
ATOM      2  N   UNL d   1      23.555 -18.933   1.098  0.00  0.00     0.012 NA
ATOM      3  N   UNL d   1      24.832 -18.577   1.348  0.00  0.00    -0.160 NA
ATOM      4  C   UNL d   1      25.209 -17.629   0.428  0.00  0.00     0.112 C 
ATOM      5  C   UNL d   1      24.078 -17.463  -0.422  0.00  0.00     0.153 C 
ENDROOT
BRANCH   5   6
ATOM      6  C   UNL d   1      23.895 -16.549  -1.481  0.00  0.00     0.292 C 
ATOM      7  O   UNL d   1      22.920 -15.983  -1.252  0.00  0.00    -0.264 OA
ATOM      8  N   UNL d   1      24.502 -16.177  -2.678  0.00  0.00    -0.242 N 
ATOM      9  H   UNL d   1      24.676 -16.908  -3.352  0.00  0.00     0.192 HD
BRANCH   8  10
ATOM     10  N   UNL d   1      24.308 -14.854  -3.184  0.00  0.00    -0.183 NA
ATOM     11  C   UNL d   1      25.258 -13.987  -2.955  0.00  0.00     0.151 C 
BRANCH  11  12
ATOM     12  C   UNL d   1      25.549 -12.726  -3.769  0.00  0.00    -0.006 A 
ATOM     13  C   UNL d   1      25.224 -12.602  -5.131  0.00  0.00     0.014 A 
ATOM     14  C   UNL d   1      25.530 -11.427  -5.849  0.00  0.00     0.002 A 
ATOM     15  C   UNL d   1      26.174 -10.361  -5.222  0.00  0.00     0.012 A 
ATOM     16  C   UNL d   1      26.515 -10.448  -3.868  0.00  0.00    -0.025 A 
ATOM     17  C   UNL d   1      27.130  -9.354  -3.229  0.00  0.00     0.012 A 
ATOM     18  C   UNL d   1      26.229 -11.641  -3.136  0.00  0.00    -0.014 A 
ATOM     19  C   UNL d   1      27.487  -9.422  -1.884  0.00  0.00     0.001 A 
ATOM     20  C   UNL d   1      27.254 -10.586  -1.170  0.00  0.00     0.001 A 
ATOM     21  C   UNL d   1      26.653 -11.678  -1.793  0.00  0.00     0.013 A 
ENDBRANCH  11  12
ENDBRANCH   8  10
ENDBRANCH   5   6
BRANCH   4  22
ATOM     22  C   UNL d   1      26.652 -16.962   0.452  0.00  0.00     0.297 C 
BRANCH  22  23
ATOM     23  N   UNL d   1      26.886 -15.791  -0.552  0.00  0.00    -0.066 N 
ATOM     24  C   UNL d   1      27.747 -14.578   0.221  0.00  0.00     0.235 C 
ATOM     25  C   UNL d   1      28.579 -13.749  -0.834  0.00  0.00     0.028 C 
ATOM     26  C   UNL d   1      29.156 -14.449  -2.166  0.00  0.00     0.003 C 
ATOM     27  C   UNL d   1      28.228 -15.435  -2.860  0.00  0.00     0.028 C 
ATOM     28  C   UNL d   1      27.513 -16.492  -1.970  0.00  0.00     0.235 C 
ATOM     29  H   UNL d   1      26.019 -15.338  -0.852  0.00  0.00     0.280 HD
ENDBRANCH  22  23
ENDBRANCH   4  22
BRANCH   1  30
ATOM     30  C   UNL d   1      21.918 -18.399  -0.786  0.00  0.00     0.220 C 
ATOM     31  N   UNL d   1      22.014 -18.906  -2.026  0.00  0.00    -0.082 NA
ATOM     32  O   UNL d   1      20.723 -19.325  -2.340  0.00  0.00    -0.103 OA
ATOM     33  N   UNL d   1      19.905 -19.322  -1.219  0.00  0.00    -0.089 NA
ATOM     34  C   UNL d   1      20.616 -18.746  -0.242  0.00  0.00     0.180 C 
BRANCH  34  35
ATOM     35  N   UNL d   1      20.231 -18.843   1.076  0.00  0.00    -0.282 NA
ATOM     36  H   UNL d   1      20.916 -18.485   1.756  0.00  0.00     0.126 HD
ATOM     37  H   UNL d   1      19.331 -18.491   1.398  0.00  0.00     0.126 HD
ENDBRANCH  34  35
ENDBRANCH   1  30
TORSDOF 7
ENDMDL
