MODEL 1
REMARK VINA RESULT:   -10.735      0.000      0.000
REMARK INTER + INTRA:         -13.973
REMARK INTER:                 -12.226
REMARK INTRA:                  -1.747
REMARK CONF_INDEPENDENT:        1.492
REMARK UNBOUND:                -1.747
REMARK  5 active torsions:
REMARK  status: ('A' for Active; 'I' for Inactive)
REMARK    1  A    between atoms: N_4  and  C_5 
REMARK    2  A    between atoms: C_13  and  C_14 
REMARK    3  A    between atoms: C_22  and  C_23 
REMARK       I    between atoms: C_23  and  N_25 
REMARK    4  A    between atoms: N_25  and  N_26 
REMARK    5  A    between atoms: C_27  and  C_28 
ROOT
ATOM      1  C   UNL d   1      29.409 -13.311  -3.010  0.00  0.00     0.073 C 
ATOM      2  C   UNL d   1      28.511 -13.767  -1.917  0.00  0.00     0.066 A 
ATOM      3  N   UNL d   1      28.641 -13.265  -0.682  0.00  0.00    -0.170 NA
ATOM      4  N   UNL d   1      27.729 -13.942   0.068  0.00  0.00    -0.215 N 
ATOM      5  C   UNL d   1      26.953 -14.801  -0.706  0.00  0.00     0.165 A 
ATOM      6  N   UNL d   1      25.891 -15.542  -0.296  0.00  0.00    -0.228 NA
ATOM      7  C   UNL d   1      25.289 -16.232  -1.290  0.00  0.00     0.070 A 
ATOM      8  C   UNL d   1      25.696 -16.203  -2.629  0.00  0.00     0.050 A 
ATOM      9  C   UNL d   1      26.793 -15.436  -3.038  0.00  0.00     0.052 A 
ATOM     10  C   UNL d   1      27.434 -14.692  -2.018  0.00  0.00     0.054 A 
ENDROOT
BRANCH   9  11
ATOM     11  C   UNL d   1      27.231 -15.375  -4.477  0.00  0.00     0.272 C 
ATOM     12  O   UNL d   1      26.421 -15.198  -5.391  0.00  0.00    -0.266 OA
ATOM     13  N   UNL d   1      28.571 -15.524  -4.764  0.00  0.00    -0.243 N 
ATOM     14  H   UNL d   1      29.262 -15.565  -4.034  0.00  0.00     0.192 HD
BRANCH  13  15
ATOM     15  N   UNL d   1      28.991 -15.508  -6.075  0.00  0.00    -0.183 NA
ATOM     16  C   UNL d   1      29.893 -16.360  -6.465  0.00  0.00     0.150 C 
BRANCH  16  17
ATOM     17  C   UNL d   1      30.477 -17.429  -5.642  0.00  0.00    -0.017 C 
ATOM     18  C   UNL d   1      30.962 -17.126  -4.370  0.00  0.00     0.016 C 
ATOM     19  C   UNL d   1      31.176 -18.175  -3.477  0.00  0.00     0.043 C 
ATOM     20  C   UNL d   1      31.128 -19.491  -3.932  0.00  0.00     0.116 C 
ATOM     21  F   UNL d   1      31.444 -20.488  -3.099  0.00  0.00    -0.206 F 
ATOM     22  C   UNL d   1      30.777 -19.788  -5.243  0.00  0.00     0.043 C 
ATOM     23  C   UNL d   1      30.405 -18.753  -6.091  0.00  0.00     0.016 C 
ENDBRANCH  16  17
ENDBRANCH  13  15
ENDBRANCH   9  11
BRANCH   7  24
ATOM     24  C   UNL d   1      24.119 -17.056  -0.939  0.00  0.00    -0.007 C 
ATOM     25  C   UNL d   1      22.822 -16.521  -0.928  0.00  0.00     0.015 C 
ATOM     26  C   UNL d   1      21.706 -17.365  -0.895  0.00  0.00     0.024 C 
ATOM     27  C   UNL d   1      21.873 -18.719  -0.619  0.00  0.00     0.034 C 
ATOM     28 CL   UNL d   1      20.498 -19.717  -0.356  0.00  0.00    -0.084 Cl
ATOM     29  C   UNL d   1      23.150 -19.259  -0.518  0.00  0.00     0.024 C 
ATOM     30  C   UNL d   1      24.260 -18.445  -0.756  0.00  0.00     0.015 C 
ENDBRANCH   7  24
BRANCH   4  31
ATOM     31  C   UNL d   1      27.664 -13.704   1.467  0.00  0.00     0.060 C 
ATOM     32  C   UNL d   1      27.912 -14.736   2.376  0.00  0.00     0.031 C 
ATOM     33  C   UNL d   1      28.106 -14.422   3.727  0.00  0.00     0.002 C 
ATOM     34  C   UNL d   1      27.781 -13.152   4.205  0.00  0.00     0.000 C 
ATOM     35  C   UNL d   1      27.407 -12.153   3.309  0.00  0.00     0.002 C 
ATOM     36  C   UNL d   1      27.459 -12.399   1.934  0.00  0.00     0.031 C 
ENDBRANCH   4  31
TORSDOF 5
ENDMDL
MODEL 2
REMARK VINA RESULT:   -10.179      3.483      4.960
REMARK INTER + INTRA:         -13.543
REMARK INTER:                 -11.670
REMARK INTRA:                  -1.872
REMARK CONF_INDEPENDENT:        1.492
REMARK UNBOUND:                -1.872
REMARK  5 active torsions:
REMARK  status: ('A' for Active; 'I' for Inactive)
REMARK    1  A    between atoms: N_4  and  C_5 
REMARK    2  A    between atoms: C_13  and  C_14 
REMARK    3  A    between atoms: C_22  and  C_23 
REMARK       I    between atoms: C_23  and  N_25 
REMARK    4  A    between atoms: N_25  and  N_26 
REMARK    5  A    between atoms: C_27  and  C_28 
ROOT
ATOM      1  C   UNL d   1      29.326 -12.945  -2.936  0.00  0.00     0.073 C 
ATOM      2  C   UNL d   1      28.549 -13.576  -1.837  0.00  0.00     0.066 A 
ATOM      3  N   UNL d   1      28.847 -13.306  -0.559  0.00  0.00    -0.170 NA
ATOM      4  N   UNL d   1      28.005 -14.092   0.168  0.00  0.00    -0.215 N 
ATOM      5  C   UNL d   1      27.110 -14.785  -0.642  0.00  0.00     0.165 A 
ATOM      6  N   UNL d   1      26.078 -15.571  -0.240  0.00  0.00    -0.228 NA
ATOM      7  C   UNL d   1      25.335 -16.061  -1.257  0.00  0.00     0.070 A 
ATOM      8  C   UNL d   1      25.578 -15.798  -2.610  0.00  0.00     0.050 A 
ATOM      9  C   UNL d   1      26.647 -14.988  -3.011  0.00  0.00     0.052 A 
ATOM     10  C   UNL d   1      27.433 -14.450  -1.964  0.00  0.00     0.054 A 
ENDROOT
BRANCH   9  11
ATOM     11  C   UNL d   1      26.911 -14.676  -4.460  0.00  0.00     0.272 C 
ATOM     12  O   UNL d   1      27.032 -15.572  -5.301  0.00  0.00    -0.266 OA
ATOM     13  N   UNL d   1      27.021 -13.356  -4.841  0.00  0.00    -0.243 N 
ATOM     14  H   UNL d   1      26.824 -12.608  -4.198  0.00  0.00     0.192 HD
BRANCH  13  15
ATOM     15  N   UNL d   1      27.299 -13.047  -6.153  0.00  0.00    -0.183 NA
ATOM     16  C   UNL d   1      27.129 -11.828  -6.570  0.00  0.00     0.150 C 
BRANCH  16  17
ATOM     17  C   UNL d   1      26.730 -10.683  -5.738  0.00  0.00    -0.017 C 
ATOM     18  C   UNL d   1      25.530 -10.027  -6.008  0.00  0.00     0.016 C 
ATOM     19  C   UNL d   1      24.994  -9.199  -5.022  0.00  0.00     0.043 C 
ATOM     20  C   UNL d   1      25.761  -8.864  -3.908  0.00  0.00     0.116 C 
ATOM     21  F   UNL d   1      25.286  -7.981  -3.022  0.00  0.00    -0.206 F 
ATOM     22  C   UNL d   1      27.020  -9.415  -3.708  0.00  0.00     0.043 C 
ATOM     23  C   UNL d   1      27.489 -10.365  -4.605  0.00  0.00     0.016 C 
ENDBRANCH  16  17
ENDBRANCH  13  15
ENDBRANCH   9  11
BRANCH   7  24
ATOM     24  C   UNL d   1      24.185 -16.916  -0.913  0.00  0.00    -0.007 C 
ATOM     25  C   UNL d   1      22.876 -16.412  -0.896  0.00  0.00     0.015 C 
ATOM     26  C   UNL d   1      21.780 -17.283  -0.871  0.00  0.00     0.024 C 
ATOM     27  C   UNL d   1      21.979 -18.635  -0.608  0.00  0.00     0.034 C 
ATOM     28 CL   UNL d   1      20.628 -19.668  -0.354  0.00  0.00    -0.084 Cl
ATOM     29  C   UNL d   1      23.269 -19.146  -0.514  0.00  0.00     0.024 C 
ATOM     30  C   UNL d   1      24.359 -18.303  -0.744  0.00  0.00     0.015 C 
ENDBRANCH   7  24
BRANCH   4  31
ATOM     31  C   UNL d   1      28.118 -14.109   1.584  0.00  0.00     0.060 C 
ATOM     32  C   UNL d   1      29.335 -14.421   2.197  0.00  0.00     0.031 C 
ATOM     33  C   UNL d   1      29.492 -14.171   3.566  0.00  0.00     0.002 C 
ATOM     34  C   UNL d   1      28.380 -13.886   4.359  0.00  0.00     0.000 C 
ATOM     35  C   UNL d   1      27.136 -13.700   3.759  0.00  0.00     0.002 C 
ATOM     36  C   UNL d   1      27.029 -13.700   2.366  0.00  0.00     0.031 C 
ENDBRANCH   4  31
TORSDOF 5
ENDMDL
MODEL 3
REMARK VINA RESULT:   -10.152      2.982      3.835
REMARK INTER + INTRA:         -13.593
REMARK INTER:                 -11.644
REMARK INTRA:                  -1.949
REMARK CONF_INDEPENDENT:        1.492
REMARK UNBOUND:                -1.949
REMARK  5 active torsions:
REMARK  status: ('A' for Active; 'I' for Inactive)
REMARK    1  A    between atoms: N_4  and  C_5 
REMARK    2  A    between atoms: C_13  and  C_14 
REMARK    3  A    between atoms: C_22  and  C_23 
REMARK       I    between atoms: C_23  and  N_25 
REMARK    4  A    between atoms: N_25  and  N_26 
REMARK    5  A    between atoms: C_27  and  C_28 
ROOT
ATOM      1  C   UNL d   1      29.071 -13.231  -3.116  0.00  0.00     0.073 C 
ATOM      2  C   UNL d   1      28.233 -13.722  -1.991  0.00  0.00     0.066 A 
ATOM      3  N   UNL d   1      28.408 -13.235  -0.755  0.00  0.00    -0.170 NA
ATOM      4  N   UNL d   1      27.545 -13.942   0.024  0.00  0.00    -0.215 N 
ATOM      5  C   UNL d   1      26.754 -14.807  -0.727  0.00  0.00     0.165 A 
ATOM      6  N   UNL d   1      25.728 -15.578  -0.281  0.00  0.00    -0.228 NA
ATOM      7  C   UNL d   1      25.097 -16.266  -1.258  0.00  0.00     0.070 A 
ATOM      8  C   UNL d   1      25.441 -16.209  -2.613  0.00  0.00     0.050 A 
ATOM      9  C   UNL d   1      26.502 -15.412  -3.058  0.00  0.00     0.052 A 
ATOM     10  C   UNL d   1      27.172 -14.669  -2.057  0.00  0.00     0.054 A 
ENDROOT
BRANCH   9  11
ATOM     11  C   UNL d   1      26.874 -15.321  -4.515  0.00  0.00     0.272 C 
ATOM     12  O   UNL d   1      26.014 -15.318  -5.401  0.00  0.00    -0.266 OA
ATOM     13  N   UNL d   1      28.208 -15.243  -4.851  0.00  0.00    -0.243 N 
ATOM     14  H   UNL d   1      28.920 -15.140  -4.148  0.00  0.00     0.192 HD
BRANCH  13  15
ATOM     15  N   UNL d   1      28.574 -15.196  -6.177  0.00  0.00    -0.183 NA
ATOM     16  C   UNL d   1      28.502 -14.068  -6.818  0.00  0.00     0.150 C 
BRANCH  16  17
ATOM     17  C   UNL d   1      28.129 -12.770  -6.235  0.00  0.00    -0.017 C 
ATOM     18  C   UNL d   1      26.827 -12.575  -5.777  0.00  0.00     0.016 C 
ATOM     19  C   UNL d   1      26.582 -11.503  -4.919  0.00  0.00     0.043 C 
ATOM     20  C   UNL d   1      27.565 -10.535  -4.725  0.00  0.00     0.116 C 
ATOM     21  F   UNL d   1      27.286  -9.451  -3.991  0.00  0.00    -0.206 F 
ATOM     22  C   UNL d   1      28.824 -10.661  -5.297  0.00  0.00     0.043 C 
ATOM     23  C   UNL d   1      29.124 -11.808  -6.018  0.00  0.00     0.016 C 
ENDBRANCH  16  17
ENDBRANCH  13  15
ENDBRANCH   9  11
BRANCH   7  24
ATOM     24  C   UNL d   1      23.962 -17.121  -0.866  0.00  0.00    -0.007 C 
ATOM     25  C   UNL d   1      22.636 -16.674  -0.973  0.00  0.00     0.015 C 
ATOM     26  C   UNL d   1      21.572 -17.580  -0.893  0.00  0.00     0.024 C 
ATOM     27  C   UNL d   1      21.806 -18.882  -0.458  0.00  0.00     0.034 C 
ATOM     28 CL   UNL d   1      20.481 -19.932  -0.144  0.00  0.00    -0.084 Cl
ATOM     29  C   UNL d   1      23.106 -19.323  -0.241  0.00  0.00     0.024 C 
ATOM     30  C   UNL d   1      24.176 -18.469  -0.521  0.00  0.00     0.015 C 
ENDBRANCH   7  24
BRANCH   4  31
ATOM     31  C   UNL d   1      27.539 -13.726   1.428  0.00  0.00     0.060 C 
ATOM     32  C   UNL d   1      27.781 -14.782   2.312  0.00  0.00     0.031 C 
ATOM     33  C   UNL d   1      28.034 -14.497   3.659  0.00  0.00     0.002 C 
ATOM     34  C   UNL d   1      27.773 -13.224   4.169  0.00  0.00     0.000 C 
ATOM     35  C   UNL d   1      27.404 -12.198   3.302  0.00  0.00     0.002 C 
ATOM     36  C   UNL d   1      27.398 -12.422   1.923  0.00  0.00     0.031 C 
ENDBRANCH   4  31
TORSDOF 5
ENDMDL
MODEL 4
REMARK VINA RESULT:    -9.863      2.776      3.700
REMARK INTER + INTRA:         -13.457
REMARK INTER:                 -11.354
REMARK INTRA:                  -2.102
REMARK CONF_INDEPENDENT:        1.492
REMARK UNBOUND:                -2.102
REMARK  5 active torsions:
REMARK  status: ('A' for Active; 'I' for Inactive)
REMARK    1  A    between atoms: N_4  and  C_5 
REMARK    2  A    between atoms: C_13  and  C_14 
REMARK    3  A    between atoms: C_22  and  C_23 
REMARK       I    between atoms: C_23  and  N_25 
REMARK    4  A    between atoms: N_25  and  N_26 
REMARK    5  A    between atoms: C_27  and  C_28 
ROOT
ATOM      1  C   UNL d   1      31.350 -13.844  -0.871  0.00  0.00     0.073 C 
ATOM      2  C   UNL d   1      30.204 -14.257  -0.019  0.00  0.00     0.066 A 
ATOM      3  N   UNL d   1      30.162 -13.903   1.273  0.00  0.00    -0.170 NA
ATOM      4  N   UNL d   1      29.038 -14.497   1.760  0.00  0.00    -0.215 N 
ATOM      5  C   UNL d   1      28.316 -15.146   0.761  0.00  0.00     0.165 A 
ATOM      6  N   UNL d   1      27.104 -15.747   0.883  0.00  0.00    -0.228 NA
ATOM      7  C   UNL d   1      26.617 -16.235  -0.280  0.00  0.00     0.070 A 
ATOM      8  C   UNL d   1      27.274 -16.141  -1.512  0.00  0.00     0.050 A 
ATOM      9  C   UNL d   1      28.523 -15.520  -1.622  0.00  0.00     0.052 A 
ATOM     10  C   UNL d   1      29.051 -14.987  -0.421  0.00  0.00     0.054 A 
ENDROOT
BRANCH   9  11
ATOM     11  C   UNL d   1      29.235 -15.390  -2.943  0.00  0.00     0.272 C 
ATOM     12  O   UNL d   1      29.849 -14.362  -3.247  0.00  0.00    -0.266 OA
ATOM     13  N   UNL d   1      29.190 -16.449  -3.823  0.00  0.00    -0.243 N 
ATOM     14  H   UNL d   1      28.787 -17.332  -3.559  0.00  0.00     0.192 HD
BRANCH  13  15
ATOM     15  N   UNL d   1      29.802 -16.340  -5.051  0.00  0.00    -0.183 NA
ATOM     16  C   UNL d   1      29.294 -15.549  -5.948  0.00  0.00     0.150 C 
BRANCH  16  17
ATOM     17  C   UNL d   1      28.135 -14.664  -5.756  0.00  0.00    -0.017 C 
ATOM     18  C   UNL d   1      26.938 -15.200  -5.282  0.00  0.00     0.016 C 
ATOM     19  C   UNL d   1      25.980 -14.325  -4.771  0.00  0.00     0.043 C 
ATOM     20  C   UNL d   1      26.131 -12.951  -4.951  0.00  0.00     0.116 C 
ATOM     21  F   UNL d   1      25.156 -12.124  -4.558  0.00  0.00    -0.206 F 
ATOM     22  C   UNL d   1      27.267 -12.424  -5.551  0.00  0.00     0.043 C 
ATOM     23  C   UNL d   1      28.296 -13.282  -5.915  0.00  0.00     0.016 C 
ENDBRANCH  16  17
ENDBRANCH  13  15
ENDBRANCH   9  11
BRANCH   7  24
ATOM     24  C   UNL d   1      25.300 -16.895  -0.245  0.00  0.00    -0.007 C 
ATOM     25  C   UNL d   1      24.119 -16.190  -0.521  0.00  0.00     0.015 C 
ATOM     26  C   UNL d   1      22.928 -16.876  -0.784  0.00  0.00     0.024 C 
ATOM     27  C   UNL d   1      22.846 -18.241  -0.525  0.00  0.00     0.034 C 
ATOM     28 CL   UNL d   1      21.330 -19.046  -0.631  0.00  0.00    -0.084 Cl
ATOM     29  C   UNL d   1      23.981 -18.949  -0.145  0.00  0.00     0.024 C 
ATOM     30  C   UNL d   1      25.212 -18.291  -0.084  0.00  0.00     0.015 C 
ENDBRANCH   7  24
BRANCH   4  31
ATOM     31  C   UNL d   1      28.738 -14.388   3.145  0.00  0.00     0.060 C 
ATOM     32  C   UNL d   1      29.750 -14.496   4.103  0.00  0.00     0.031 C 
ATOM     33  C   UNL d   1      29.478 -14.121   5.425  0.00  0.00     0.002 C 
ATOM     34  C   UNL d   1      28.163 -13.917   5.840  0.00  0.00     0.000 C 
ATOM     35  C   UNL d   1      27.133 -13.938   4.901  0.00  0.00     0.002 C 
ATOM     36  C   UNL d   1      27.435 -14.060   3.542  0.00  0.00     0.031 C 
ENDBRANCH   4  31
TORSDOF 5
ENDMDL
MODEL 5
REMARK VINA RESULT:    -9.789      1.283      1.454
REMARK INTER + INTRA:         -13.346
REMARK INTER:                 -11.280
REMARK INTRA:                  -2.066
REMARK CONF_INDEPENDENT:        1.492
REMARK UNBOUND:                -2.066
REMARK  5 active torsions:
REMARK  status: ('A' for Active; 'I' for Inactive)
REMARK    1  A    between atoms: N_4  and  C_5 
REMARK    2  A    between atoms: C_13  and  C_14 
REMARK    3  A    between atoms: C_22  and  C_23 
REMARK       I    between atoms: C_23  and  N_25 
REMARK    4  A    between atoms: N_25  and  N_26 
REMARK    5  A    between atoms: C_27  and  C_28 
ROOT
ATOM      1  C   UNL d   1      29.154 -12.468  -2.477  0.00  0.00     0.073 C 
ATOM      2  C   UNL d   1      28.343 -13.122  -1.417  0.00  0.00     0.066 A 
ATOM      3  N   UNL d   1      28.534 -12.806  -0.129  0.00  0.00    -0.170 NA
ATOM      4  N   UNL d   1      27.695 -13.627   0.560  0.00  0.00    -0.215 N 
ATOM      5  C   UNL d   1      26.903 -14.394  -0.290  0.00  0.00     0.165 A 
ATOM      6  N   UNL d   1      25.896 -15.235   0.062  0.00  0.00    -0.228 NA
ATOM      7  C   UNL d   1      25.256 -15.793  -0.989  0.00  0.00     0.070 A 
ATOM      8  C   UNL d   1      25.575 -15.545  -2.329  0.00  0.00     0.050 A 
ATOM      9  C   UNL d   1      26.617 -14.678  -2.678  0.00  0.00     0.052 A 
ATOM     10  C   UNL d   1      27.295 -14.068  -1.595  0.00  0.00     0.054 A 
ENDROOT
BRANCH   9  11
ATOM     11  C   UNL d   1      26.961 -14.382  -4.114  0.00  0.00     0.272 C 
ATOM     12  O   UNL d   1      26.835 -13.248  -4.587  0.00  0.00    -0.266 OA
ATOM     13  N   UNL d   1      27.423 -15.410  -4.906  0.00  0.00    -0.243 N 
ATOM     14  H   UNL d   1      27.632 -16.315  -4.521  0.00  0.00     0.192 HD
BRANCH  13  15
ATOM     15  N   UNL d   1      27.709 -15.173  -6.231  0.00  0.00    -0.183 NA
ATOM     16  C   UNL d   1      28.944 -15.208  -6.633  0.00  0.00     0.150 C 
BRANCH  16  17
ATOM     17  C   UNL d   1      30.107 -15.565  -5.805  0.00  0.00    -0.017 C 
ATOM     18  C   UNL d   1      30.442 -14.762  -4.716  0.00  0.00     0.016 C 
ATOM     19  C   UNL d   1      31.297 -15.287  -3.747  0.00  0.00     0.043 C 
ATOM     20  C   UNL d   1      31.970 -16.482  -3.994  0.00  0.00     0.116 C 
ATOM     21  F   UNL d   1      32.873 -16.924  -3.111  0.00  0.00    -0.206 F 
ATOM     22  C   UNL d   1      31.736 -17.215  -5.150  0.00  0.00     0.043 C 
ATOM     23  C   UNL d   1      30.765 -16.778  -6.040  0.00  0.00     0.016 C 
ENDBRANCH  16  17
ENDBRANCH  13  15
ENDBRANCH   9  11
BRANCH   7  24
ATOM     24  C   UNL d   1      24.141 -16.712  -0.701  0.00  0.00    -0.007 C 
ATOM     25  C   UNL d   1      22.804 -16.319  -0.874  0.00  0.00     0.015 C 
ATOM     26  C   UNL d   1      21.781 -17.274  -0.894  0.00  0.00     0.024 C 
ATOM     27  C   UNL d   1      22.047 -18.580  -0.493  0.00  0.00     0.034 C 
ATOM     28 CL   UNL d   1      20.756 -19.699  -0.300  0.00  0.00    -0.084 Cl
ATOM     29  C   UNL d   1      23.351 -18.972  -0.211  0.00  0.00     0.024 C 
ATOM     30  C   UNL d   1      24.396 -18.061  -0.392  0.00  0.00     0.015 C 
ENDBRANCH   7  24
BRANCH   4  31
ATOM     31  C   UNL d   1      27.711 -13.606   1.981  0.00  0.00     0.060 C 
ATOM     32  C   UNL d   1      27.805 -14.795   2.709  0.00  0.00     0.031 C 
ATOM     33  C   UNL d   1      28.087 -14.733   4.079  0.00  0.00     0.002 C 
ATOM     34  C   UNL d   1      27.998 -13.519   4.760  0.00  0.00     0.000 C 
ATOM     35  C   UNL d   1      27.775 -12.343   4.046  0.00  0.00     0.002 C 
ATOM     36  C   UNL d   1      27.746 -12.375   2.649  0.00  0.00     0.031 C 
ENDBRANCH   4  31
TORSDOF 5
ENDMDL
MODEL 6
REMARK VINA RESULT:    -9.026      4.780      8.114
REMARK INTER + INTRA:         -12.737
REMARK INTER:                 -10.518
REMARK INTRA:                  -2.219
REMARK CONF_INDEPENDENT:        1.492
REMARK UNBOUND:                -2.219
REMARK  5 active torsions:
REMARK  status: ('A' for Active; 'I' for Inactive)
REMARK    1  A    between atoms: N_4  and  C_5 
REMARK    2  A    between atoms: C_13  and  C_14 
REMARK    3  A    between atoms: C_22  and  C_23 
REMARK       I    between atoms: C_23  and  N_25 
REMARK    4  A    between atoms: N_25  and  N_26 
REMARK    5  A    between atoms: C_27  and  C_28 
ROOT
ATOM      1  C   UNL d   1      25.627 -13.071  -4.462  0.00  0.00     0.073 C 
ATOM      2  C   UNL d   1      25.648 -13.811  -3.173  0.00  0.00     0.066 A 
ATOM      3  N   UNL d   1      25.105 -15.033  -3.086  0.00  0.00    -0.170 NA
ATOM      4  N   UNL d   1      25.232 -15.379  -1.776  0.00  0.00    -0.215 N 
ATOM      5  C   UNL d   1      25.940 -14.424  -1.051  0.00  0.00     0.165 A 
ATOM      6  N   UNL d   1      26.332 -14.502   0.247  0.00  0.00    -0.228 NA
ATOM      7  C   UNL d   1      27.068 -13.447   0.661  0.00  0.00     0.070 A 
ATOM      8  C   UNL d   1      27.416 -12.361  -0.150  0.00  0.00     0.050 A 
ATOM      9  C   UNL d   1      27.004 -12.292  -1.486  0.00  0.00     0.052 A 
ATOM     10  C   UNL d   1      26.242 -13.392  -1.949  0.00  0.00     0.054 A 
ENDROOT
BRANCH   9  11
ATOM     11  C   UNL d   1      27.386 -11.142  -2.380  0.00  0.00     0.272 C 
ATOM     12  O   UNL d   1      28.567 -10.837  -2.570  0.00  0.00    -0.266 OA
ATOM     13  N   UNL d   1      26.383 -10.421  -2.990  0.00  0.00    -0.243 N 
ATOM     14  H   UNL d   1      25.421 -10.711  -2.936  0.00  0.00     0.192 HD
BRANCH  13  15
ATOM     15  N   UNL d   1      26.706  -9.343  -3.783  0.00  0.00    -0.183 NA
ATOM     16  C   UNL d   1      26.781  -8.160  -3.249  0.00  0.00     0.150 C 
BRANCH  16  17
ATOM     17  C   UNL d   1      26.628  -7.851  -1.819  0.00  0.00    -0.017 C 
ATOM     18  C   UNL d   1      25.402  -7.383  -1.348  0.00  0.00     0.016 C 
ATOM     19  C   UNL d   1      25.158  -7.436   0.023  0.00  0.00     0.043 C 
ATOM     20  C   UNL d   1      26.201  -7.728   0.901  0.00  0.00     0.116 C 
ATOM     21  F   UNL d   1      25.988  -7.668   2.220  0.00  0.00    -0.206 F 
ATOM     22  C   UNL d   1      27.465  -8.062   0.432  0.00  0.00     0.043 C 
ATOM     23  C   UNL d   1      27.668  -8.169  -0.937  0.00  0.00     0.016 C 
ENDBRANCH  16  17
ENDBRANCH  13  15
ENDBRANCH   9  11
BRANCH   7  24
ATOM     24  C   UNL d   1      27.547 -13.453   2.055  0.00  0.00    -0.007 C 
ATOM     25  C   UNL d   1      27.621 -12.272   2.809  0.00  0.00     0.015 C 
ATOM     26  C   UNL d   1      27.780 -12.326   4.198  0.00  0.00     0.024 C 
ATOM     27  C   UNL d   1      28.117 -13.531   4.808  0.00  0.00     0.034 C 
ATOM     28 CL   UNL d   1      28.532 -13.562   6.477  0.00  0.00    -0.084 Cl
ATOM     29  C   UNL d   1      28.156 -14.704   4.063  0.00  0.00     0.024 C 
ATOM     30  C   UNL d   1      27.795 -14.672   2.713  0.00  0.00     0.015 C 
ENDBRANCH   7  24
BRANCH   4  31
ATOM     31  C   UNL d   1      24.673 -16.604  -1.322  0.00  0.00     0.060 C 
ATOM     32  C   UNL d   1      25.495 -17.621  -0.827  0.00  0.00     0.031 C 
ATOM     33  C   UNL d   1      24.911 -18.696  -0.145  0.00  0.00     0.002 C 
ATOM     34  C   UNL d   1      23.532 -18.897  -0.202  0.00  0.00     0.000 C 
ATOM     35  C   UNL d   1      22.721 -17.942  -0.811  0.00  0.00     0.002 C 
ATOM     36  C   UNL d   1      23.280 -16.746  -1.269  0.00  0.00     0.031 C 
ENDBRANCH   4  31
TORSDOF 5
ENDMDL
MODEL 7
REMARK VINA RESULT:    -8.876      3.537      6.153
REMARK INTER + INTRA:         -12.786
REMARK INTER:                 -10.367
REMARK INTRA:                  -2.419
REMARK CONF_INDEPENDENT:        1.492
REMARK UNBOUND:                -2.419
REMARK  5 active torsions:
REMARK  status: ('A' for Active; 'I' for Inactive)
REMARK    1  A    between atoms: N_4  and  C_5 
REMARK    2  A    between atoms: C_13  and  C_14 
REMARK    3  A    between atoms: C_22  and  C_23 
REMARK       I    between atoms: C_23  and  N_25 
REMARK    4  A    between atoms: N_25  and  N_26 
REMARK    5  A    between atoms: C_27  and  C_28 
ROOT
ATOM      1  C   UNL d   1      25.766 -13.287  -4.625  0.00  0.00     0.073 C 
ATOM      2  C   UNL d   1      25.738 -13.942  -3.290  0.00  0.00     0.066 A 
ATOM      3  N   UNL d   1      25.142 -15.131  -3.134  0.00  0.00    -0.170 NA
ATOM      4  N   UNL d   1      25.237 -15.396  -1.802  0.00  0.00    -0.215 N 
ATOM      5  C   UNL d   1      25.975 -14.426  -1.129  0.00  0.00     0.165 A 
ATOM      6  N   UNL d   1      26.346 -14.436   0.178  0.00  0.00    -0.228 NA
ATOM      7  C   UNL d   1      27.121 -13.388   0.534  0.00  0.00     0.070 A 
ATOM      8  C   UNL d   1      27.525 -12.372  -0.340  0.00  0.00     0.050 A 
ATOM      9  C   UNL d   1      27.135 -12.373  -1.683  0.00  0.00     0.052 A 
ATOM     10  C   UNL d   1      26.333 -13.468  -2.087  0.00  0.00     0.054 A 
ENDROOT
BRANCH   9  11
ATOM     11  C   UNL d   1      27.578 -11.301  -2.643  0.00  0.00     0.272 C 
ATOM     12  O   UNL d   1      26.769 -10.700  -3.357  0.00  0.00    -0.266 OA
ATOM     13  N   UNL d   1      28.919 -10.996  -2.717  0.00  0.00    -0.243 N 
ATOM     14  H   UNL d   1      29.583 -11.395  -2.075  0.00  0.00     0.192 HD
BRANCH  13  15
ATOM     15  N   UNL d   1      29.353 -10.045  -3.613  0.00  0.00    -0.183 NA
ATOM     16  C   UNL d   1      29.662 -10.404  -4.823  0.00  0.00     0.150 C 
BRANCH  16  17
ATOM     17  C   UNL d   1      29.520 -11.758  -5.380  0.00  0.00    -0.017 C 
ATOM     18  C   UNL d   1      30.117 -12.834  -4.724  0.00  0.00     0.016 C 
ATOM     19  C   UNL d   1      29.689 -14.122  -5.043  0.00  0.00     0.043 C 
ATOM     20  C   UNL d   1      28.863 -14.322  -6.148  0.00  0.00     0.116 C 
ATOM     21  F   UNL d   1      28.546 -15.569  -6.516  0.00  0.00    -0.206 F 
ATOM     22  C   UNL d   1      28.377 -13.252  -6.888  0.00  0.00     0.043 C 
ATOM     23  C   UNL d   1      28.670 -11.960  -6.475  0.00  0.00     0.016 C 
ENDBRANCH  16  17
ENDBRANCH  13  15
ENDBRANCH   9  11
BRANCH   7  24
ATOM     24  C   UNL d   1      27.581 -13.323   1.933  0.00  0.00    -0.007 C 
ATOM     25  C   UNL d   1      27.644 -12.105   2.628  0.00  0.00     0.015 C 
ATOM     26  C   UNL d   1      27.783 -12.089   4.020  0.00  0.00     0.024 C 
ATOM     27  C   UNL d   1      28.112 -13.262   4.695  0.00  0.00     0.034 C 
ATOM     28 CL   UNL d   1      28.504 -13.208   6.368  0.00  0.00    -0.084 Cl
ATOM     29  C   UNL d   1      28.162 -14.471   4.010  0.00  0.00     0.024 C 
ATOM     30  C   UNL d   1      27.820 -14.507   2.656  0.00  0.00     0.015 C 
ENDBRANCH   7  24
BRANCH   4  31
ATOM     31  C   UNL d   1      24.620 -16.564  -1.279  0.00  0.00     0.060 C 
ATOM     32  C   UNL d   1      25.389 -17.573  -0.692  0.00  0.00     0.031 C 
ATOM     33  C   UNL d   1      24.748 -18.575   0.047  0.00  0.00     0.002 C 
ATOM     34  C   UNL d   1      23.364 -18.729  -0.033  0.00  0.00     0.000 C 
ATOM     35  C   UNL d   1      22.606 -17.790  -0.729  0.00  0.00     0.002 C 
ATOM     36  C   UNL d   1      23.222 -16.651  -1.254  0.00  0.00     0.031 C 
ENDBRANCH   4  31
TORSDOF 5
ENDMDL
MODEL 8
REMARK VINA RESULT:    -8.715      3.305      7.644
REMARK INTER + INTRA:         -12.413
REMARK INTER:                 -10.206
REMARK INTRA:                  -2.207
REMARK CONF_INDEPENDENT:        1.492
REMARK UNBOUND:                -2.207
REMARK  5 active torsions:
REMARK  status: ('A' for Active; 'I' for Inactive)
REMARK    1  A    between atoms: N_4  and  C_5 
REMARK    2  A    between atoms: C_13  and  C_14 
REMARK    3  A    between atoms: C_22  and  C_23 
REMARK       I    between atoms: C_23  and  N_25 
REMARK    4  A    between atoms: N_25  and  N_26 
REMARK    5  A    between atoms: C_27  and  C_28 
ROOT
ATOM      1  C   UNL d   1      33.405 -15.233  -1.430  0.00  0.00     0.073 C 
ATOM      2  C   UNL d   1      32.219 -15.944  -1.977  0.00  0.00     0.066 A 
ATOM      3  N   UNL d   1      32.334 -16.704  -3.074  0.00  0.00    -0.170 NA
ATOM      4  N   UNL d   1      31.069 -17.135  -3.333  0.00  0.00    -0.215 N 
ATOM      5  C   UNL d   1      30.170 -16.732  -2.349  0.00  0.00     0.165 A 
ATOM      6  N   UNL d   1      28.859 -17.074  -2.245  0.00  0.00    -0.228 NA
ATOM      7  C   UNL d   1      28.252 -16.584  -1.141  0.00  0.00     0.070 A 
ATOM      8  C   UNL d   1      28.889 -15.798  -0.174  0.00  0.00     0.050 A 
ATOM      9  C   UNL d   1      30.239 -15.451  -0.295  0.00  0.00     0.052 A 
ATOM     10  C   UNL d   1      30.903 -15.964  -1.436  0.00  0.00     0.054 A 
ENDROOT
BRANCH   9  11
ATOM     11  C   UNL d   1      30.946 -14.624   0.746  0.00  0.00     0.272 C 
ATOM     12  O   UNL d   1      31.447 -13.530   0.470  0.00  0.00    -0.266 OA
ATOM     13  N   UNL d   1      31.030 -15.114   2.031  0.00  0.00    -0.243 N 
ATOM     14  H   UNL d   1      30.543 -15.950   2.306  0.00  0.00     0.192 HD
BRANCH  13  15
ATOM     15  N   UNL d   1      31.703 -14.393   2.991  0.00  0.00    -0.183 NA
ATOM     16  C   UNL d   1      31.122 -13.371   3.546  0.00  0.00     0.150 C 
BRANCH  16  17
ATOM     17  C   UNL d   1      29.739 -12.934   3.302  0.00  0.00    -0.017 C 
ATOM     18  C   UNL d   1      29.502 -11.868   2.435  0.00  0.00     0.016 C 
ATOM     19  C   UNL d   1      28.211 -11.695   1.939  0.00  0.00     0.043 C 
ATOM     20  C   UNL d   1      27.157 -12.426   2.484  0.00  0.00     0.116 C 
ATOM     21  F   UNL d   1      25.905 -12.177   2.083  0.00  0.00    -0.206 F 
ATOM     22  C   UNL d   1      27.378 -13.397   3.452  0.00  0.00     0.043 C 
ATOM     23  C   UNL d   1      28.682 -13.685   3.831  0.00  0.00     0.016 C 
ENDBRANCH  16  17
ENDBRANCH  13  15
ENDBRANCH   9  11
BRANCH   7  24
ATOM     24  C   UNL d   1      26.830 -16.915  -0.940  0.00  0.00    -0.007 C 
ATOM     25  C   UNL d   1      25.845 -16.494  -1.845  0.00  0.00     0.015 C 
ATOM     26  C   UNL d   1      24.565 -17.060  -1.815  0.00  0.00     0.024 C 
ATOM     27  C   UNL d   1      24.186 -17.853  -0.736  0.00  0.00     0.034 C 
ATOM     28 CL   UNL d   1      22.552 -18.366  -0.579  0.00  0.00    -0.084 Cl
ATOM     29  C   UNL d   1      25.117 -18.200   0.237  0.00  0.00     0.024 C 
ATOM     30  C   UNL d   1      26.447 -17.797   0.088  0.00  0.00     0.015 C 
ENDBRANCH   7  24
BRANCH   4  31
ATOM     31  C   UNL d   1      30.823 -17.910  -4.498  0.00  0.00     0.060 C 
ATOM     32  C   UNL d   1      30.739 -17.300  -5.753  0.00  0.00     0.031 C 
ATOM     33  C   UNL d   1      30.765 -18.101  -6.902  0.00  0.00     0.002 C 
ATOM     34  C   UNL d   1      30.593 -19.481  -6.799  0.00  0.00     0.000 C 
ATOM     35  C   UNL d   1      30.546 -20.078  -5.541  0.00  0.00     0.002 C 
ATOM     36  C   UNL d   1      30.775 -19.307  -4.398  0.00  0.00     0.031 C 
ENDBRANCH   4  31
TORSDOF 5
ENDMDL
