MODEL 1
REMARK VINA RESULT:    -8.933      0.000      0.000
REMARK INTER + INTRA:         -13.271
REMARK INTER:                 -11.319
REMARK INTRA:                  -1.952
REMARK CONF_INDEPENDENT:        2.386
REMARK UNBOUND:                -1.952
REMARK  8 active torsions:
REMARK  status: ('A' for Active; 'I' for Inactive)
REMARK    1  A    between atoms: C_8  and  N_9 
REMARK       I    between atoms: N_9  and  C_10 
REMARK    2  A    between atoms: C_10  and  C_12 
REMARK    3  A    between atoms: C_12  and  S_13 
REMARK    4  A    between atoms: S_13  and  C_14 
REMARK    5  A    between atoms: C_17  and  C_18 
REMARK    6  A    between atoms: N_19  and  N_20 
REMARK       I    between atoms: N_20  and  C_21 
REMARK    7  A    between atoms: C_21  and  C_23 
REMARK    8  A    between atoms: C_32  and  O_33 
ROOT
ATOM      1  C   UNL d   1      25.435 -14.956  -2.629  0.00  0.00     0.113 A 
ATOM      2  C   UNL d   1      25.499 -16.326  -2.769  0.00  0.00     0.047 A 
ATOM      3  C   UNL d   1      25.998 -16.825  -1.549  0.00  0.00     0.042 A 
ATOM      4  C   UNL d   1      26.253 -15.734  -0.740  0.00  0.00     0.096 A 
ATOM      5  O   UNL d   1      25.916 -14.588  -1.403  0.00  0.00    -0.302 OA
ENDROOT
BRANCH   4   6
ATOM      6  C   UNL d   1      26.768 -15.669   0.605  0.00  0.00     0.175 C 
ATOM      7  N   UNL d   1      27.270 -14.548   1.018  0.00  0.00    -0.181 NA
BRANCH   7   8
ATOM      8  N   UNL d   1      27.803 -14.467   2.278  0.00  0.00    -0.243 N 
ATOM      9  C   UNL d   1      27.440 -13.389   3.085  0.00  0.00     0.274 C 
ATOM     10  O   UNL d   1      26.655 -12.500   2.759  0.00  0.00    -0.266 OA
ATOM     11  H   UNL d   1      28.459 -15.166   2.610  0.00  0.00     0.192 HD
BRANCH   9  12
ATOM     12  C   UNL d   1      27.993 -13.362   4.470  0.00  0.00     0.067 A 
ATOM     13  C   UNL d   1      28.211 -12.104   5.059  0.00  0.00     0.032 A 
ATOM     14  C   UNL d   1      28.716 -11.979   6.367  0.00  0.00    -0.025 A 
ATOM     15  C   UNL d   1      28.878 -10.722   6.978  0.00  0.00     0.012 A 
ATOM     16  C   UNL d   1      29.060 -13.144   7.090  0.00  0.00    -0.023 A 
ATOM     17  C   UNL d   1      29.370 -10.608   8.281  0.00  0.00     0.001 A 
ATOM     18  C   UNL d   1      29.720 -11.752   8.990  0.00  0.00     0.001 A 
ATOM     19  C   UNL d   1      29.568 -13.010   8.399  0.00  0.00     0.012 A 
ATOM     20  C   UNL d   1      28.875 -14.403   6.479  0.00  0.00     0.049 A 
ATOM     21  C   UNL d   1      28.336 -14.509   5.186  0.00  0.00     0.082 A 
BRANCH  21  22
ATOM     22  O   UNL d   1      28.155 -15.745   4.630  0.00  0.00    -0.360 OA
ATOM     23  H   UNL d   1      28.910 -15.950   4.052  0.00  0.00     0.217 HD
ENDBRANCH  21  22
ENDBRANCH   9  12
ENDBRANCH   7   8
ENDBRANCH   4   6
BRANCH   1  24
ATOM     24  S   UNL d   1      25.044 -13.813  -3.843  0.00  0.00    -0.096 SA
BRANCH  24  25
ATOM     25  C   UNL d   1      26.660 -13.250  -4.618  0.00  0.00     0.184 C 
BRANCH  25  26
ATOM     26  C   UNL d   1      27.451 -14.541  -4.876  0.00  0.00     0.231 C 
ATOM     27  N   UNL d   1      28.670 -14.804  -4.256  0.00  0.00    -0.326 N 
ATOM     28  H   UNL d   1      29.055 -14.075  -3.667  0.00  0.00     0.169 HD
ATOM     29  O   UNL d   1      26.920 -15.289  -5.695  0.00  0.00    -0.272 OA
BRANCH  27  30
ATOM     30  C   UNL d   1      29.495 -16.014  -4.373  0.00  0.00     0.046 A 
ATOM     31  C   UNL d   1      30.095 -16.339  -5.631  0.00  0.00    -0.035 A 
ATOM     32  C   UNL d   1      30.920 -17.492  -5.764  0.00  0.00     0.009 A 
ATOM     33  C   UNL d   1      29.929 -15.531  -6.894  0.00  0.00     0.050 C 
ATOM     34  C   UNL d   1      31.170 -18.342  -4.700  0.00  0.00     0.001 A 
ATOM     35  C   UNL d   1      30.597 -18.054  -3.486  0.00  0.00     0.009 A 
ATOM     36  C   UNL d   1      29.776 -16.922  -3.307  0.00  0.00    -0.035 A 
ATOM     37  C   UNL d   1      29.276 -16.833  -1.901  0.00  0.00     0.050 C 
ENDBRANCH  27  30
ENDBRANCH  25  26
ENDBRANCH  24  25
ENDBRANCH   1  24
TORSDOF 8
ENDMDL
MODEL 2
REMARK VINA RESULT:    -8.742      2.558      3.765
REMARK INTER + INTRA:         -14.217
REMARK INTER:                 -11.128
REMARK INTRA:                  -3.089
REMARK CONF_INDEPENDENT:        2.386
REMARK UNBOUND:                -3.089
REMARK  8 active torsions:
REMARK  status: ('A' for Active; 'I' for Inactive)
REMARK    1  A    between atoms: C_8  and  N_9 
REMARK       I    between atoms: N_9  and  C_10 
REMARK    2  A    between atoms: C_10  and  C_12 
REMARK    3  A    between atoms: C_12  and  S_13 
REMARK    4  A    between atoms: S_13  and  C_14 
REMARK    5  A    between atoms: C_17  and  C_18 
REMARK    6  A    between atoms: N_19  and  N_20 
REMARK       I    between atoms: N_20  and  C_21 
REMARK    7  A    between atoms: C_21  and  C_23 
REMARK    8  A    between atoms: C_32  and  O_33 
ROOT
ATOM      1  C   UNL d   1      26.841 -11.932  -3.169  0.00  0.00     0.113 A 
ATOM      2  C   UNL d   1      26.820 -10.592  -2.845  0.00  0.00     0.047 A 
ATOM      3  C   UNL d   1      27.205 -10.507  -1.492  0.00  0.00     0.042 A 
ATOM      4  C   UNL d   1      27.401 -11.799  -1.045  0.00  0.00     0.096 A 
ATOM      5  O   UNL d   1      27.171 -12.674  -2.069  0.00  0.00    -0.302 OA
ENDROOT
BRANCH   4   6
ATOM      6  C   UNL d   1      27.801 -12.289   0.251  0.00  0.00     0.175 C 
ATOM      7  N   UNL d   1      26.916 -12.893   0.980  0.00  0.00    -0.181 NA
BRANCH   7   8
ATOM      8  N   UNL d   1      27.257 -13.334   2.232  0.00  0.00    -0.243 N 
ATOM      9  C   UNL d   1      27.747 -12.407   3.153  0.00  0.00     0.274 C 
ATOM     10  O   UNL d   1      27.883 -11.205   2.935  0.00  0.00    -0.266 OA
ATOM     11  H   UNL d   1      27.172 -14.314   2.479  0.00  0.00     0.192 HD
BRANCH   9  12
ATOM     12  C   UNL d   1      28.054 -12.910   4.523  0.00  0.00     0.067 A 
ATOM     13  C   UNL d   1      28.184 -11.958   5.550  0.00  0.00     0.032 A 
ATOM     14  C   UNL d   1      28.459 -12.339   6.878  0.00  0.00    -0.025 A 
ATOM     15  C   UNL d   1      28.530 -11.393   7.917  0.00  0.00     0.012 A 
ATOM     16  C   UNL d   1      28.658 -13.706   7.178  0.00  0.00    -0.023 A 
ATOM     17  C   UNL d   1      28.792 -11.781   9.233  0.00  0.00     0.001 A 
ATOM     18  C   UNL d   1      29.001 -13.123   9.529  0.00  0.00     0.001 A 
ATOM     19  C   UNL d   1      28.936 -14.079   8.510  0.00  0.00     0.012 A 
ATOM     20  C   UNL d   1      28.565 -14.653   6.136  0.00  0.00     0.049 A 
ATOM     21  C   UNL d   1      28.255 -14.257   4.824  0.00  0.00     0.082 A 
BRANCH  21  22
ATOM     22  O   UNL d   1      28.156 -15.202   3.840  0.00  0.00    -0.360 OA
ATOM     23  H   UNL d   1      28.837 -15.882   3.979  0.00  0.00     0.217 HD
ENDBRANCH  21  22
ENDBRANCH   9  12
ENDBRANCH   7   8
ENDBRANCH   4   6
BRANCH   1  24
ATOM     24  S   UNL d   1      26.321 -12.646  -4.636  0.00  0.00    -0.096 SA
BRANCH  24  25
ATOM     25  C   UNL d   1      24.791 -13.664  -4.247  0.00  0.00     0.184 C 
BRANCH  25  26
ATOM     26  C   UNL d   1      25.303 -14.859  -3.430  0.00  0.00     0.231 C 
ATOM     27  N   UNL d   1      25.532 -14.780  -2.059  0.00  0.00    -0.326 N 
ATOM     28  H   UNL d   1      25.409 -13.874  -1.621  0.00  0.00     0.169 HD
ATOM     29  O   UNL d   1      25.514 -15.865  -4.106  0.00  0.00    -0.272 OA
BRANCH  27  30
ATOM     30  C   UNL d   1      25.967 -15.856  -1.157  0.00  0.00     0.046 A 
ATOM     31  C   UNL d   1      24.998 -16.763  -0.623  0.00  0.00    -0.035 A 
ATOM     32  C   UNL d   1      25.397 -17.829   0.232  0.00  0.00     0.009 A 
ATOM     33  C   UNL d   1      23.516 -16.693  -0.897  0.00  0.00     0.050 C 
ATOM     34  C   UNL d   1      26.720 -18.031   0.585  0.00  0.00     0.001 A 
ATOM     35  C   UNL d   1      27.666 -17.166   0.092  0.00  0.00     0.009 A 
ATOM     36  C   UNL d   1      27.317 -16.098  -0.761  0.00  0.00    -0.035 A 
ATOM     37  C   UNL d   1      28.522 -15.307  -1.158  0.00  0.00     0.050 C 
ENDBRANCH  27  30
ENDBRANCH  25  26
ENDBRANCH  24  25
ENDBRANCH   1  24
TORSDOF 8
ENDMDL
MODEL 3
REMARK VINA RESULT:    -8.643      2.472      3.652
REMARK INTER + INTRA:         -14.126
REMARK INTER:                 -11.029
REMARK INTRA:                  -3.097
REMARK CONF_INDEPENDENT:        2.386
REMARK UNBOUND:                -3.097
REMARK  8 active torsions:
REMARK  status: ('A' for Active; 'I' for Inactive)
REMARK    1  A    between atoms: C_8  and  N_9 
REMARK       I    between atoms: N_9  and  C_10 
REMARK    2  A    between atoms: C_10  and  C_12 
REMARK    3  A    between atoms: C_12  and  S_13 
REMARK    4  A    between atoms: S_13  and  C_14 
REMARK    5  A    between atoms: C_17  and  C_18 
REMARK    6  A    between atoms: N_19  and  N_20 
REMARK       I    between atoms: N_20  and  C_21 
REMARK    7  A    between atoms: C_21  and  C_23 
REMARK    8  A    between atoms: C_32  and  O_33 
ROOT
ATOM      1  C   UNL d   1      27.036 -11.951  -3.118  0.00  0.00     0.113 A 
ATOM      2  C   UNL d   1      26.762 -10.647  -2.766  0.00  0.00     0.047 A 
ATOM      3  C   UNL d   1      27.085 -10.530  -1.399  0.00  0.00     0.042 A 
ATOM      4  C   UNL d   1      27.501 -11.777  -0.974  0.00  0.00     0.096 A 
ATOM      5  O   UNL d   1      27.464 -12.651  -2.024  0.00  0.00    -0.302 OA
ENDROOT
BRANCH   4   6
ATOM      6  C   UNL d   1      27.946 -12.221   0.324  0.00  0.00     0.175 C 
ATOM      7  N   UNL d   1      27.191 -13.042   0.985  0.00  0.00    -0.181 NA
BRANCH   7   8
ATOM      8  N   UNL d   1      27.570 -13.451   2.237  0.00  0.00    -0.243 N 
ATOM      9  C   UNL d   1      27.647 -12.496   3.252  0.00  0.00     0.274 C 
ATOM     10  O   UNL d   1      27.383 -11.303   3.117  0.00  0.00    -0.266 OA
ATOM     11  H   UNL d   1      27.805 -14.420   2.418  0.00  0.00     0.192 HD
BRANCH   9  12
ATOM     12  C   UNL d   1      28.006 -12.984   4.615  0.00  0.00     0.067 A 
ATOM     13  C   UNL d   1      28.137 -12.024   5.635  0.00  0.00     0.032 A 
ATOM     14  C   UNL d   1      28.459 -12.391   6.956  0.00  0.00    -0.025 A 
ATOM     15  C   UNL d   1      28.531 -11.438   7.989  0.00  0.00     0.012 A 
ATOM     16  C   UNL d   1      28.706 -13.750   7.256  0.00  0.00    -0.023 A 
ATOM     17  C   UNL d   1      28.841 -11.813   9.298  0.00  0.00     0.001 A 
ATOM     18  C   UNL d   1      29.096 -13.147   9.594  0.00  0.00     0.001 A 
ATOM     19  C   UNL d   1      29.031 -14.109   8.580  0.00  0.00     0.012 A 
ATOM     20  C   UNL d   1      28.611 -14.704   6.220  0.00  0.00     0.049 A 
ATOM     21  C   UNL d   1      28.254 -14.323   4.916  0.00  0.00     0.082 A 
BRANCH  21  22
ATOM     22  O   UNL d   1      28.155 -15.275   3.938  0.00  0.00    -0.360 OA
ATOM     23  H   UNL d   1      28.905 -15.890   4.012  0.00  0.00     0.217 HD
ENDBRANCH  21  22
ENDBRANCH   9  12
ENDBRANCH   7   8
ENDBRANCH   4   6
BRANCH   1  24
ATOM     24  S   UNL d   1      26.699 -12.707  -4.617  0.00  0.00    -0.096 SA
BRANCH  24  25
ATOM     25  C   UNL d   1      25.089 -13.653  -4.411  0.00  0.00     0.184 C 
BRANCH  25  26
ATOM     26  C   UNL d   1      25.452 -14.880  -3.563  0.00  0.00     0.231 C 
ATOM     27  N   UNL d   1      25.699 -14.793  -2.195  0.00  0.00    -0.326 N 
ATOM     28  H   UNL d   1      25.693 -13.867  -1.783  0.00  0.00     0.169 HD
ATOM     29  O   UNL d   1      25.530 -15.923  -4.211  0.00  0.00    -0.272 OA
BRANCH  27  30
ATOM     30  C   UNL d   1      26.001 -15.889  -1.264  0.00  0.00     0.046 A 
ATOM     31  C   UNL d   1      27.355 -16.121  -0.862  0.00  0.00    -0.035 A 
ATOM     32  C   UNL d   1      27.669 -17.161   0.058  0.00  0.00     0.009 A 
ATOM     33  C   UNL d   1      28.540 -15.323  -1.346  0.00  0.00     0.050 C 
ATOM     34  C   UNL d   1      26.696 -17.986   0.594  0.00  0.00     0.001 A 
ATOM     35  C   UNL d   1      25.391 -17.788   0.214  0.00  0.00     0.009 A 
ATOM     36  C   UNL d   1      25.033 -16.769  -0.692  0.00  0.00    -0.035 A 
ATOM     37  C   UNL d   1      23.558 -16.761  -0.941  0.00  0.00     0.050 C 
ENDBRANCH  27  30
ENDBRANCH  25  26
ENDBRANCH  24  25
ENDBRANCH   1  24
TORSDOF 8
ENDMDL
MODEL 4
REMARK VINA RESULT:    -8.102      2.005      3.608
REMARK INTER + INTRA:         -13.818
REMARK INTER:                 -10.488
REMARK INTRA:                  -3.329
REMARK CONF_INDEPENDENT:        2.386
REMARK UNBOUND:                -3.329
REMARK  8 active torsions:
REMARK  status: ('A' for Active; 'I' for Inactive)
REMARK    1  A    between atoms: C_8  and  N_9 
REMARK       I    between atoms: N_9  and  C_10 
REMARK    2  A    between atoms: C_10  and  C_12 
REMARK    3  A    between atoms: C_12  and  S_13 
REMARK    4  A    between atoms: S_13  and  C_14 
REMARK    5  A    between atoms: C_17  and  C_18 
REMARK    6  A    between atoms: N_19  and  N_20 
REMARK       I    between atoms: N_20  and  C_21 
REMARK    7  A    between atoms: C_21  and  C_23 
REMARK    8  A    between atoms: C_32  and  O_33 
ROOT
ATOM      1  C   UNL d   1      27.102 -11.659  -4.600  0.00  0.00     0.113 A 
ATOM      2  C   UNL d   1      26.105 -10.796  -4.199  0.00  0.00     0.047 A 
ATOM      3  C   UNL d   1      26.185 -10.726  -2.794  0.00  0.00     0.042 A 
ATOM      4  C   UNL d   1      27.198 -11.580  -2.403  0.00  0.00     0.096 A 
ATOM      5  O   UNL d   1      27.756 -12.159  -3.508  0.00  0.00    -0.302 OA
ENDROOT
BRANCH   4   6
ATOM      6  C   UNL d   1      27.702 -11.891  -1.089  0.00  0.00     0.175 C 
ATOM      7  N   UNL d   1      27.275 -12.967  -0.505  0.00  0.00    -0.181 NA
BRANCH   7   8
ATOM      8  N   UNL d   1      27.707 -13.267   0.761  0.00  0.00    -0.243 N 
ATOM      9  C   UNL d   1      27.214 -12.515   1.828  0.00  0.00     0.274 C 
ATOM     10  O   UNL d   1      26.397 -11.602   1.725  0.00  0.00    -0.266 OA
ATOM     11  H   UNL d   1      28.383 -14.007   0.917  0.00  0.00     0.192 HD
BRANCH   9  12
ATOM     12  C   UNL d   1      27.660 -12.905   3.196  0.00  0.00     0.067 A 
ATOM     13  C   UNL d   1      27.763 -11.887   4.161  0.00  0.00     0.032 A 
ATOM     14  C   UNL d   1      28.163 -12.162   5.483  0.00  0.00    -0.025 A 
ATOM     15  C   UNL d   1      28.209 -11.154   6.464  0.00  0.00     0.012 A 
ATOM     16  C   UNL d   1      28.516 -13.483   5.838  0.00  0.00    -0.023 A 
ATOM     17  C   UNL d   1      28.596 -11.438   7.776  0.00  0.00     0.001 A 
ATOM     18  C   UNL d   1      28.955 -12.734   8.125  0.00  0.00     0.001 A 
ATOM     19  C   UNL d   1      28.918 -13.750   7.164  0.00  0.00     0.012 A 
ATOM     20  C   UNL d   1      28.448 -14.494   4.856  0.00  0.00     0.049 A 
ATOM     21  C   UNL d   1      28.013 -14.207   3.551  0.00  0.00     0.082 A 
BRANCH  21  22
ATOM     22  O   UNL d   1      27.943 -15.213   2.627  0.00  0.00    -0.360 OA
ATOM     23  H   UNL d   1      28.516 -15.947   2.907  0.00  0.00     0.217 HD
ENDBRANCH  21  22
ENDBRANCH   9  12
ENDBRANCH   7   8
ENDBRANCH   4   6
BRANCH   1  24
ATOM     24  S   UNL d   1      27.386 -12.242  -6.186  0.00  0.00    -0.096 SA
BRANCH  24  25
ATOM     25  C   UNL d   1      28.291 -13.880  -6.022  0.00  0.00     0.184 C 
BRANCH  25  26
ATOM     26  C   UNL d   1      27.411 -14.733  -5.098  0.00  0.00     0.231 C 
ATOM     27  N   UNL d   1      27.454 -14.615  -3.711  0.00  0.00    -0.326 N 
ATOM     28  H   UNL d   1      28.143 -13.982  -3.323  0.00  0.00     0.169 HD
ATOM     29  O   UNL d   1      26.699 -15.537  -5.698  0.00  0.00    -0.272 OA
BRANCH  27  30
ATOM     30  C   UNL d   1      26.632 -15.327  -2.722  0.00  0.00     0.046 A 
ATOM     31  C   UNL d   1      25.226 -15.068  -2.655  0.00  0.00    -0.035 A 
ATOM     32  C   UNL d   1      24.405 -15.764  -1.723  0.00  0.00     0.009 A 
ATOM     33  C   UNL d   1      24.495 -14.075  -3.525  0.00  0.00     0.050 C 
ATOM     34  C   UNL d   1      24.921 -16.706  -0.851  0.00  0.00     0.001 A 
ATOM     35  C   UNL d   1      26.269 -16.964  -0.892  0.00  0.00     0.009 A 
ATOM     36  C   UNL d   1      27.120 -16.301  -1.799  0.00  0.00    -0.035 A 
ATOM     37  C   UNL d   1      28.536 -16.757  -1.645  0.00  0.00     0.050 C 
ENDBRANCH  27  30
ENDBRANCH  25  26
ENDBRANCH  24  25
ENDBRANCH   1  24
TORSDOF 8
ENDMDL
MODEL 5
REMARK VINA RESULT:    -7.923      1.867      3.526
REMARK INTER + INTRA:         -13.696
REMARK INTER:                 -10.309
REMARK INTRA:                  -3.387
REMARK CONF_INDEPENDENT:        2.386
REMARK UNBOUND:                -3.387
REMARK  8 active torsions:
REMARK  status: ('A' for Active; 'I' for Inactive)
REMARK    1  A    between atoms: C_8  and  N_9 
REMARK       I    between atoms: N_9  and  C_10 
REMARK    2  A    between atoms: C_10  and  C_12 
REMARK    3  A    between atoms: C_12  and  S_13 
REMARK    4  A    between atoms: S_13  and  C_14 
REMARK    5  A    between atoms: C_17  and  C_18 
REMARK    6  A    between atoms: N_19  and  N_20 
REMARK       I    between atoms: N_20  and  C_21 
REMARK    7  A    between atoms: C_21  and  C_23 
REMARK    8  A    between atoms: C_32  and  O_33 
ROOT
ATOM      1  C   UNL d   1      27.170 -11.996  -4.577  0.00  0.00     0.113 A 
ATOM      2  C   UNL d   1      26.060 -11.280  -4.182  0.00  0.00     0.047 A 
ATOM      3  C   UNL d   1      26.093 -11.246  -2.774  0.00  0.00     0.042 A 
ATOM      4  C   UNL d   1      27.196 -11.977  -2.377  0.00  0.00     0.096 A 
ATOM      5  O   UNL d   1      27.853 -12.444  -3.481  0.00  0.00    -0.302 OA
ENDROOT
BRANCH   4   6
ATOM      6  C   UNL d   1      27.702 -12.264  -1.057  0.00  0.00     0.175 C 
ATOM      7  N   UNL d   1      27.113 -13.185  -0.360  0.00  0.00    -0.181 NA
BRANCH   7   8
ATOM      8  N   UNL d   1      27.547 -13.452   0.912  0.00  0.00    -0.243 N 
ATOM      9  C   UNL d   1      27.200 -12.565   1.932  0.00  0.00     0.274 C 
ATOM     10  O   UNL d   1      26.513 -11.557   1.783  0.00  0.00    -0.266 OA
ATOM     11  H   UNL d   1      28.120 -14.266   1.105  0.00  0.00     0.192 HD
BRANCH   9  12
ATOM     12  C   UNL d   1      27.640 -12.916   3.314  0.00  0.00     0.067 A 
ATOM     13  C   UNL d   1      27.782 -11.865   4.237  0.00  0.00     0.032 A 
ATOM     14  C   UNL d   1      28.178 -12.100   5.568  0.00  0.00    -0.025 A 
ATOM     15  C   UNL d   1      28.262 -11.057   6.507  0.00  0.00     0.012 A 
ATOM     16  C   UNL d   1      28.489 -13.418   5.974  0.00  0.00    -0.023 A 
ATOM     17  C   UNL d   1      28.645 -11.301   7.828  0.00  0.00     0.001 A 
ATOM     18  C   UNL d   1      28.963 -12.594   8.228  0.00  0.00     0.001 A 
ATOM     19  C   UNL d   1      28.888 -13.645   7.307  0.00  0.00     0.012 A 
ATOM     20  C   UNL d   1      28.382 -14.464   5.032  0.00  0.00     0.049 A 
ATOM     21  C   UNL d   1      27.951 -14.214   3.719  0.00  0.00     0.082 A 
BRANCH  21  22
ATOM     22  O   UNL d   1      27.842 -15.252   2.835  0.00  0.00    -0.360 OA
ATOM     23  H   UNL d   1      28.732 -15.575   2.609  0.00  0.00     0.217 HD
ENDBRANCH  21  22
ENDBRANCH   9  12
ENDBRANCH   7   8
ENDBRANCH   4   6
BRANCH   1  24
ATOM     24  S   UNL d   1      27.568 -12.485  -6.170  0.00  0.00    -0.096 SA
BRANCH  24  25
ATOM     25  C   UNL d   1      28.311 -14.206  -6.052  0.00  0.00     0.184 C 
BRANCH  25  26
ATOM     26  C   UNL d   1      27.432 -14.953  -5.039  0.00  0.00     0.231 C 
ATOM     27  N   UNL d   1      27.701 -14.947  -3.673  0.00  0.00    -0.326 N 
ATOM     28  H   UNL d   1      28.546 -14.478  -3.371  0.00  0.00     0.169 HD
ATOM     29  O   UNL d   1      26.501 -15.571  -5.554  0.00  0.00    -0.272 OA
BRANCH  27  30
ATOM     30  C   UNL d   1      26.915 -15.571  -2.599  0.00  0.00     0.046 A 
ATOM     31  C   UNL d   1      27.552 -16.478  -1.694  0.00  0.00    -0.035 A 
ATOM     32  C   UNL d   1      26.818 -17.076  -0.631  0.00  0.00     0.009 A 
ATOM     33  C   UNL d   1      29.004 -16.880  -1.765  0.00  0.00     0.050 C 
ATOM     34  C   UNL d   1      25.474 -16.815  -0.429  0.00  0.00     0.001 A 
ATOM     35  C   UNL d   1      24.840 -15.955  -1.291  0.00  0.00     0.009 A 
ATOM     36  C   UNL d   1      25.527 -15.337  -2.357  0.00  0.00    -0.035 A 
ATOM     37  C   UNL d   1      24.618 -14.450  -3.145  0.00  0.00     0.050 C 
ENDBRANCH  27  30
ENDBRANCH  25  26
ENDBRANCH  24  25
ENDBRANCH   1  24
TORSDOF 8
ENDMDL
MODEL 6
REMARK VINA RESULT:    -7.331      2.180      4.420
REMARK INTER + INTRA:         -12.687
REMARK INTER:                  -9.717
REMARK INTRA:                  -2.970
REMARK CONF_INDEPENDENT:        2.386
REMARK UNBOUND:                -2.970
REMARK  8 active torsions:
REMARK  status: ('A' for Active; 'I' for Inactive)
REMARK    1  A    between atoms: C_8  and  N_9 
REMARK       I    between atoms: N_9  and  C_10 
REMARK    2  A    between atoms: C_10  and  C_12 
REMARK    3  A    between atoms: C_12  and  S_13 
REMARK    4  A    between atoms: S_13  and  C_14 
REMARK    5  A    between atoms: C_17  and  C_18 
REMARK    6  A    between atoms: N_19  and  N_20 
REMARK       I    between atoms: N_20  and  C_21 
REMARK    7  A    between atoms: C_21  and  C_23 
REMARK    8  A    between atoms: C_32  and  O_33 
ROOT
ATOM      1  C   UNL d   1      30.752 -18.175  -4.079  0.00  0.00     0.113 A 
ATOM      2  C   UNL d   1      31.326 -19.330  -3.594  0.00  0.00     0.047 A 
ATOM      3  C   UNL d   1      31.266 -19.242  -2.189  0.00  0.00     0.042 A 
ATOM      4  C   UNL d   1      30.698 -18.020  -1.884  0.00  0.00     0.096 A 
ATOM      5  O   UNL d   1      30.390 -17.361  -3.041  0.00  0.00    -0.302 OA
ENDROOT
BRANCH   4   6
ATOM      6  C   UNL d   1      30.402 -17.420  -0.607  0.00  0.00     0.175 C 
ATOM      7  N   UNL d   1      29.833 -16.255  -0.592  0.00  0.00    -0.181 NA
BRANCH   7   8
ATOM      8  N   UNL d   1      29.575 -15.643   0.606  0.00  0.00    -0.243 N 
ATOM      9  C   UNL d   1      28.819 -14.470   0.604  0.00  0.00     0.274 C 
ATOM     10  O   UNL d   1      28.344 -13.942  -0.399  0.00  0.00    -0.266 OA
ATOM     11  H   UNL d   1      29.939 -16.023   1.473  0.00  0.00     0.192 HD
BRANCH   9  12
ATOM     12  C   UNL d   1      28.509 -13.861   1.930  0.00  0.00     0.067 A 
ATOM     13  C   UNL d   1      29.093 -14.447   3.067  0.00  0.00     0.032 A 
ATOM     14  C   UNL d   1      28.869 -13.933   4.359  0.00  0.00    -0.025 A 
ATOM     15  C   UNL d   1      29.500 -14.483   5.490  0.00  0.00     0.012 A 
ATOM     16  C   UNL d   1      27.999 -12.832   4.524  0.00  0.00    -0.023 A 
ATOM     17  C   UNL d   1      29.281 -13.959   6.767  0.00  0.00     0.001 A 
ATOM     18  C   UNL d   1      28.417 -12.884   6.934  0.00  0.00     0.001 A 
ATOM     19  C   UNL d   1      27.779 -12.325   5.822  0.00  0.00     0.012 A 
ATOM     20  C   UNL d   1      27.386 -12.272   3.384  0.00  0.00     0.049 A 
ATOM     21  C   UNL d   1      27.649 -12.776   2.099  0.00  0.00     0.082 A 
BRANCH  21  22
ATOM     22  O   UNL d   1      27.051 -12.199   1.012  0.00  0.00    -0.360 OA
ATOM     23  H   UNL d   1      27.651 -12.257   0.248  0.00  0.00     0.217 HD
ENDBRANCH  21  22
ENDBRANCH   9  12
ENDBRANCH   7   8
ENDBRANCH   4   6
BRANCH   1  24
ATOM     24  S   UNL d   1      30.682 -17.666  -5.713  0.00  0.00    -0.096 SA
BRANCH  24  25
ATOM     25  C   UNL d   1      30.487 -15.797  -5.704  0.00  0.00     0.184 C 
BRANCH  25  26
ATOM     26  C   UNL d   1      29.014 -15.550  -5.351  0.00  0.00     0.231 C 
ATOM     27  N   UNL d   1      28.582 -15.376  -4.038  0.00  0.00    -0.326 N 
ATOM     28  H   UNL d   1      29.275 -15.483  -3.306  0.00  0.00     0.169 HD
ATOM     29  O   UNL d   1      28.266 -15.551  -6.327  0.00  0.00    -0.272 OA
BRANCH  27  30
ATOM     30  C   UNL d   1      27.220 -15.081  -3.572  0.00  0.00     0.046 A 
ATOM     31  C   UNL d   1      26.454 -14.066  -4.228  0.00  0.00    -0.035 A 
ATOM     32  C   UNL d   1      25.123 -13.780  -3.811  0.00  0.00     0.009 A 
ATOM     33  C   UNL d   1      26.950 -13.229  -5.380  0.00  0.00     0.050 C 
ATOM     34  C   UNL d   1      24.520 -14.457  -2.766  0.00  0.00     0.001 A 
ATOM     35  C   UNL d   1      25.240 -15.428  -2.115  0.00  0.00     0.009 A 
ATOM     36  C   UNL d   1      26.560 -15.748  -2.495  0.00  0.00    -0.035 A 
ATOM     37  C   UNL d   1      27.122 -16.834  -1.636  0.00  0.00     0.050 C 
ENDBRANCH  27  30
ENDBRANCH  25  26
ENDBRANCH  24  25
ENDBRANCH   1  24
TORSDOF 8
ENDMDL
MODEL 7
REMARK VINA RESULT:    -7.318      1.911      2.814
REMARK INTER + INTRA:         -12.652
REMARK INTER:                  -9.704
REMARK INTRA:                  -2.948
REMARK CONF_INDEPENDENT:        2.386
REMARK UNBOUND:                -2.948
REMARK  8 active torsions:
REMARK  status: ('A' for Active; 'I' for Inactive)
REMARK    1  A    between atoms: C_8  and  N_9 
REMARK       I    between atoms: N_9  and  C_10 
REMARK    2  A    between atoms: C_10  and  C_12 
REMARK    3  A    between atoms: C_12  and  S_13 
REMARK    4  A    between atoms: S_13  and  C_14 
REMARK    5  A    between atoms: C_17  and  C_18 
REMARK    6  A    between atoms: N_19  and  N_20 
REMARK       I    between atoms: N_20  and  C_21 
REMARK    7  A    between atoms: C_21  and  C_23 
REMARK    8  A    between atoms: C_32  and  O_33 
ROOT
ATOM      1  C   UNL d   1      26.472 -11.325  -3.262  0.00  0.00     0.113 A 
ATOM      2  C   UNL d   1      26.661  -9.977  -3.044  0.00  0.00     0.047 A 
ATOM      3  C   UNL d   1      27.236  -9.862  -1.762  0.00  0.00     0.042 A 
ATOM      4  C   UNL d   1      27.331 -11.139  -1.245  0.00  0.00     0.096 A 
ATOM      5  O   UNL d   1      26.855 -12.037  -2.160  0.00  0.00    -0.302 OA
ENDROOT
BRANCH   4   6
ATOM      6  C   UNL d   1      27.841 -11.598   0.023  0.00  0.00     0.175 C 
ATOM      7  N   UNL d   1      27.294 -12.640   0.566  0.00  0.00    -0.181 NA
BRANCH   7   8
ATOM      8  N   UNL d   1      27.733 -13.076   1.789  0.00  0.00    -0.243 N 
ATOM      9  C   UNL d   1      27.443 -12.302   2.913  0.00  0.00     0.274 C 
ATOM     10  O   UNL d   1      26.801 -11.253   2.898  0.00  0.00    -0.266 OA
ATOM     11  H   UNL d   1      28.271 -13.932   1.873  0.00  0.00     0.192 HD
BRANCH   9  12
ATOM     12  C   UNL d   1      27.885 -12.833   4.235  0.00  0.00     0.067 A 
ATOM     13  C   UNL d   1      28.037 -11.913   5.287  0.00  0.00     0.032 A 
ATOM     14  C   UNL d   1      28.436 -12.323   6.574  0.00  0.00    -0.025 A 
ATOM     15  C   UNL d   1      28.530 -11.412   7.642  0.00  0.00     0.012 A 
ATOM     16  C   UNL d   1      28.740 -13.684   6.802  0.00  0.00    -0.023 A 
ATOM     17  C   UNL d   1      28.916 -11.830   8.918  0.00  0.00     0.001 A 
ATOM     18  C   UNL d   1      29.228 -13.166   9.143  0.00  0.00     0.001 A 
ATOM     19  C   UNL d   1      29.142 -14.087   8.093  0.00  0.00     0.012 A 
ATOM     20  C   UNL d   1      28.624 -14.597   5.732  0.00  0.00     0.049 A 
ATOM     21  C   UNL d   1      28.190 -14.175   4.465  0.00  0.00     0.082 A 
BRANCH  21  22
ATOM     22  O   UNL d   1      28.072 -15.088   3.453  0.00  0.00    -0.360 OA
ATOM     23  H   UNL d   1      28.918 -15.556   3.343  0.00  0.00     0.217 HD
ENDBRANCH  21  22
ENDBRANCH   9  12
ENDBRANCH   7   8
ENDBRANCH   4   6
BRANCH   1  24
ATOM     24  S   UNL d   1      25.671 -12.051  -4.591  0.00  0.00    -0.096 SA
BRANCH  24  25
ATOM     25  C   UNL d   1      24.700 -13.514  -3.922  0.00  0.00     0.184 C 
BRANCH  25  26
ATOM     26  C   UNL d   1      25.743 -14.618  -3.698  0.00  0.00     0.231 C 
ATOM     27  N   UNL d   1      26.721 -14.529  -2.710  0.00  0.00    -0.326 N 
ATOM     28  H   UNL d   1      26.761 -13.669  -2.176  0.00  0.00     0.169 HD
ATOM     29  O   UNL d   1      25.646 -15.556  -4.487  0.00  0.00    -0.272 OA
BRANCH  27  30
ATOM     30  C   UNL d   1      27.737 -15.531  -2.358  0.00  0.00     0.046 A 
ATOM     31  C   UNL d   1      28.765 -15.853  -3.300  0.00  0.00    -0.035 A 
ATOM     32  C   UNL d   1      29.776 -16.802  -2.973  0.00  0.00     0.009 A 
ATOM     33  C   UNL d   1      28.886 -15.249  -4.677  0.00  0.00     0.050 C 
ATOM     34  C   UNL d   1      29.806 -17.449  -1.750  0.00  0.00     0.001 A 
ATOM     35  C   UNL d   1      28.823 -17.163  -0.835  0.00  0.00     0.009 A 
ATOM     36  C   UNL d   1      27.805 -16.228  -1.114  0.00  0.00    -0.035 A 
ATOM     37  C   UNL d   1      26.862 -16.095   0.039  0.00  0.00     0.050 C 
ENDBRANCH  27  30
ENDBRANCH  25  26
ENDBRANCH  24  25
ENDBRANCH   1  24
TORSDOF 8
ENDMDL
MODEL 8
REMARK VINA RESULT:    -6.893      2.547      4.734
REMARK INTER + INTRA:         -13.044
REMARK INTER:                  -9.280
REMARK INTRA:                  -3.764
REMARK CONF_INDEPENDENT:        2.386
REMARK UNBOUND:                -3.764
REMARK  8 active torsions:
REMARK  status: ('A' for Active; 'I' for Inactive)
REMARK    1  A    between atoms: C_8  and  N_9 
REMARK       I    between atoms: N_9  and  C_10 
REMARK    2  A    between atoms: C_10  and  C_12 
REMARK    3  A    between atoms: C_12  and  S_13 
REMARK    4  A    between atoms: S_13  and  C_14 
REMARK    5  A    between atoms: C_17  and  C_18 
REMARK    6  A    between atoms: N_19  and  N_20 
REMARK       I    between atoms: N_20  and  C_21 
REMARK    7  A    between atoms: C_21  and  C_23 
REMARK    8  A    between atoms: C_32  and  O_33 
ROOT
ATOM      1  C   UNL d   1      26.946 -11.214  -6.142  0.00  0.00     0.113 A 
ATOM      2  C   UNL d   1      25.822 -10.421  -6.233  0.00  0.00     0.047 A 
ATOM      3  C   UNL d   1      25.532  -9.995  -4.922  0.00  0.00     0.042 A 
ATOM      4  C   UNL d   1      26.467 -10.580  -4.090  0.00  0.00     0.096 A 
ATOM      5  O   UNL d   1      27.329 -11.334  -4.835  0.00  0.00    -0.302 OA
ENDROOT
BRANCH   4   6
ATOM      6  C   UNL d   1      26.636 -10.485  -2.661  0.00  0.00     0.175 C 
ATOM      7  N   UNL d   1      27.389 -11.359  -2.071  0.00  0.00    -0.181 NA
BRANCH   7   8
ATOM      8  N   UNL d   1      27.537 -11.317  -0.709  0.00  0.00    -0.243 N 
ATOM      9  C   UNL d   1      27.121 -12.419   0.039  0.00  0.00     0.274 C 
ATOM     10  O   UNL d   1      26.641 -13.448  -0.433  0.00  0.00    -0.266 OA
ATOM     11  H   UNL d   1      27.924 -10.498  -0.254  0.00  0.00     0.192 HD
BRANCH   9  12
ATOM     12  C   UNL d   1      27.348 -12.363   1.512  0.00  0.00     0.067 A 
ATOM     13  C   UNL d   1      27.607 -13.576   2.176  0.00  0.00     0.032 A 
ATOM     14  C   UNL d   1      27.848 -13.621   3.563  0.00  0.00    -0.025 A 
ATOM     15  C   UNL d   1      28.166 -14.825   4.217  0.00  0.00     0.012 A 
ATOM     16  C   UNL d   1      27.781 -12.427   4.315  0.00  0.00    -0.023 A 
ATOM     17  C   UNL d   1      28.414 -14.859   5.591  0.00  0.00     0.001 A 
ATOM     18  C   UNL d   1      28.337 -13.688   6.336  0.00  0.00     0.001 A 
ATOM     19  C   UNL d   1      28.021 -12.481   5.704  0.00  0.00     0.012 A 
ATOM     20  C   UNL d   1      27.483 -11.218   3.650  0.00  0.00     0.049 A 
ATOM     21  C   UNL d   1      27.280 -11.188   2.260  0.00  0.00     0.082 A 
BRANCH  21  22
ATOM     22  O   UNL d   1      27.009  -9.998   1.643  0.00  0.00    -0.360 OA
ATOM     23  H   UNL d   1      27.634  -9.323   1.960  0.00  0.00     0.217 HD
ENDBRANCH  21  22
ENDBRANCH   9  12
ENDBRANCH   7   8
ENDBRANCH   4   6
BRANCH   1  24
ATOM     24  S   UNL d   1      27.669 -12.127  -7.398  0.00  0.00    -0.096 SA
BRANCH  24  25
ATOM     25  C   UNL d   1      28.912 -13.286  -6.598  0.00  0.00     0.184 C 
BRANCH  25  26
ATOM     26  C   UNL d   1      28.077 -14.212  -5.704  0.00  0.00     0.231 C 
ATOM     27  N   UNL d   1      27.762 -13.890  -4.385  0.00  0.00    -0.326 N 
ATOM     28  H   UNL d   1      28.163 -13.039  -4.010  0.00  0.00     0.169 HD
ATOM     29  O   UNL d   1      27.747 -15.263  -6.252  0.00  0.00    -0.272 OA
BRANCH  27  30
ATOM     30  C   UNL d   1      26.933 -14.658  -3.446  0.00  0.00     0.046 A 
ATOM     31  C   UNL d   1      27.556 -15.575  -2.542  0.00  0.00    -0.035 A 
ATOM     32  C   UNL d   1      26.776 -16.312  -1.605  0.00  0.00     0.009 A 
ATOM     33  C   UNL d   1      29.038 -15.848  -2.484  0.00  0.00     0.050 C 
ATOM     34  C   UNL d   1      25.401 -16.179  -1.531  0.00  0.00     0.001 A 
ATOM     35  C   UNL d   1      24.781 -15.312  -2.396  0.00  0.00     0.009 A 
ATOM     36  C   UNL d   1      25.512 -14.559  -3.337  0.00  0.00    -0.035 A 
ATOM     37  C   UNL d   1      24.610 -13.694  -4.157  0.00  0.00     0.050 C 
ENDBRANCH  27  30
ENDBRANCH  25  26
ENDBRANCH  24  25
ENDBRANCH   1  24
TORSDOF 8
ENDMDL
MODEL 9
REMARK VINA RESULT:    -6.496      3.883      9.690
REMARK INTER + INTRA:         -12.509
REMARK INTER:                  -8.883
REMARK INTRA:                  -3.626
REMARK CONF_INDEPENDENT:        2.386
REMARK UNBOUND:                -3.626
REMARK  8 active torsions:
REMARK  status: ('A' for Active; 'I' for Inactive)
REMARK    1  A    between atoms: C_8  and  N_9 
REMARK       I    between atoms: N_9  and  C_10 
REMARK    2  A    between atoms: C_10  and  C_12 
REMARK    3  A    between atoms: C_12  and  S_13 
REMARK    4  A    between atoms: S_13  and  C_14 
REMARK    5  A    between atoms: C_17  and  C_18 
REMARK    6  A    between atoms: N_19  and  N_20 
REMARK       I    between atoms: N_20  and  C_21 
REMARK    7  A    between atoms: C_21  and  C_23 
REMARK    8  A    between atoms: C_32  and  O_33 
ROOT
ATOM      1  C   UNL d   1      28.959 -12.680   7.679  0.00  0.00     0.113 A 
ATOM      2  C   UNL d   1      29.963 -13.611   7.829  0.00  0.00     0.047 A 
ATOM      3  C   UNL d   1      29.897 -14.450   6.699  0.00  0.00     0.042 A 
ATOM      4  C   UNL d   1      28.830 -14.016   5.936  0.00  0.00     0.096 A 
ATOM      5  O   UNL d   1      28.249 -12.936   6.539  0.00  0.00    -0.302 OA
ENDROOT
BRANCH   4   6
ATOM      6  C   UNL d   1      28.315 -14.512   4.684  0.00  0.00     0.175 C 
ATOM      7  N   UNL d   1      29.053 -14.394   3.625  0.00  0.00    -0.181 NA
BRANCH   7   8
ATOM      8  N   UNL d   1      28.574 -14.820   2.414  0.00  0.00    -0.243 N 
ATOM      9  C   UNL d   1      27.579 -14.067   1.791  0.00  0.00     0.274 C 
ATOM     10  O   UNL d   1      27.102 -13.025   2.238  0.00  0.00    -0.266 OA
ATOM     11  H   UNL d   1      28.921 -15.673   1.989  0.00  0.00     0.192 HD
BRANCH   9  12
ATOM     12  C   UNL d   1      27.120 -14.527   0.448  0.00  0.00     0.067 A 
ATOM     13  C   UNL d   1      26.715 -13.544  -0.472  0.00  0.00     0.032 A 
ATOM     14  C   UNL d   1      26.280 -13.882  -1.769  0.00  0.00    -0.025 A 
ATOM     15  C   UNL d   1      25.932 -12.896  -2.709  0.00  0.00     0.012 A 
ATOM     16  C   UNL d   1      26.202 -15.243  -2.138  0.00  0.00    -0.023 A 
ATOM     17  C   UNL d   1      25.512 -13.240  -3.997  0.00  0.00     0.001 A 
ATOM     18  C   UNL d   1      25.422 -14.578  -4.360  0.00  0.00     0.001 A 
ATOM     19  C   UNL d   1      25.762 -15.574  -3.437  0.00  0.00     0.012 A 
ATOM     20  C   UNL d   1      26.573 -16.227  -1.197  0.00  0.00     0.049 A 
ATOM     21  C   UNL d   1      27.038 -15.870   0.079  0.00  0.00     0.082 A 
BRANCH  21  22
ATOM     22  O   UNL d   1      27.405 -16.847   0.962  0.00  0.00    -0.360 OA
ATOM     23  H   UNL d   1      28.358 -16.775   1.143  0.00  0.00     0.217 HD
ENDBRANCH  21  22
ENDBRANCH   9  12
ENDBRANCH   7   8
ENDBRANCH   4   6
BRANCH   1  24
ATOM     24  S   UNL d   1      28.470 -11.498   8.819  0.00  0.00    -0.096 SA
BRANCH  24  25
ATOM     25  C   UNL d   1      29.280  -9.878   8.320  0.00  0.00     0.184 C 
BRANCH  25  26
ATOM     26  C   UNL d   1      29.629 -10.045   6.835  0.00  0.00     0.231 C 
ATOM     27  N   UNL d   1      28.708 -10.516   5.902  0.00  0.00    -0.326 N 
ATOM     28  H   UNL d   1      27.804 -10.809   6.253  0.00  0.00     0.169 HD
ATOM     29  O   UNL d   1      30.794  -9.755   6.566  0.00  0.00    -0.272 OA
BRANCH  27  30
ATOM     30  C   UNL d   1      28.897 -10.672   4.453  0.00  0.00     0.046 A 
ATOM     31  C   UNL d   1      27.918 -10.142   3.553  0.00  0.00    -0.035 A 
ATOM     32  C   UNL d   1      28.091 -10.257   2.144  0.00  0.00     0.009 A 
ATOM     33  C   UNL d   1      26.655  -9.436   3.980  0.00  0.00     0.050 C 
ATOM     34  C   UNL d   1      29.194 -10.881   1.589  0.00  0.00     0.001 A 
ATOM     35  C   UNL d   1      30.141 -11.405   2.434  0.00  0.00     0.009 A 
ATOM     36  C   UNL d   1      30.014 -11.312   3.835  0.00  0.00    -0.035 A 
ATOM     37  C   UNL d   1      31.171 -11.956   4.528  0.00  0.00     0.050 C 
ENDBRANCH  27  30
ENDBRANCH  25  26
ENDBRANCH  24  25
ENDBRANCH   1  24
TORSDOF 8
ENDMDL
