MODEL 1
REMARK VINA RESULT:    -8.911      0.000      0.000
REMARK INTER + INTRA:         -10.725
REMARK INTER:                 -10.105
REMARK INTRA:                  -0.621
REMARK CONF_INDEPENDENT:        1.193
REMARK UNBOUND:                -0.621
REMARK  4 active torsions:
REMARK  status: ('A' for Active; 'I' for Inactive)
REMARK       I    between atoms: N_1  and  C_2 
REMARK    1  A    between atoms: C_2  and  C_4 
REMARK    2  A    between atoms: C_7  and  N_8 
REMARK       I    between atoms: N_8  and  C_9 
REMARK       I    between atoms: C_9  and  N_11 
REMARK    3  A    between atoms: N_11  and  C_12 
REMARK    4  A    between atoms: C_16  and  C_17 
ROOT
ATOM      1  N   UNL d   1      22.432 -17.321  -0.607  0.00  0.00    -0.309 N 
ATOM      2  C   UNL d   1      23.810 -17.597  -0.531  0.00  0.00     0.325 C 
ATOM      3  O   UNL d   1      24.223 -18.722  -0.261  0.00  0.00    -0.247 OA
ATOM      4  N   UNL d   1      24.727 -16.553  -0.735  0.00  0.00    -0.309 N 
ATOM      5  H   UNL d   1      22.102 -16.365  -0.644  0.00  0.00     0.170 HD
ATOM      6  H   UNL d   1      24.398 -15.613  -0.906  0.00  0.00     0.170 HD
ENDROOT
BRANCH   1   7
ATOM      7  C   UNL d   1      21.414 -18.339  -0.322  0.00  0.00     0.036 A 
ATOM      8  C   UNL d   1      20.448 -18.732  -1.269  0.00  0.00     0.030 A 
ATOM      9  C   UNL d   1      19.378 -19.606  -0.910  0.00  0.00     0.019 A 
ATOM     10  C   UNL d   1      19.300 -20.162   0.375  0.00  0.00     0.032 A 
ATOM     11  C   UNL d   1      20.277 -19.825   1.296  0.00  0.00     0.019 A 
ATOM     12  C   UNL d   1      21.313 -18.953   0.937  0.00  0.00     0.030 A 
BRANCH  10  13
ATOM     13  C   UNL d   1      18.316 -21.220   0.721  0.00  0.00     0.249 C 
ATOM     14  N   UNL d   1      17.288 -21.453  -0.147  0.00  0.00    -0.366 N 
ATOM     15  H   UNL d   1      16.595 -22.147   0.110  0.00  0.00     0.159 HD
ATOM     16  H   UNL d   1      17.211 -21.026  -1.060  0.00  0.00     0.159 HD
ATOM     17  O   UNL d   1      18.402 -21.843   1.786  0.00  0.00    -0.268 OA
ENDBRANCH  10  13
ENDBRANCH   1   7
BRANCH   4  18
ATOM     18  C   UNL d   1      26.183 -16.778  -0.903  0.00  0.00     0.036 C 
ATOM     19  C   UNL d   1      27.076 -16.993   0.121  0.00  0.00     0.029 C 
ATOM     20  C   UNL d   1      28.475 -16.831  -0.106  0.00  0.00     0.003 C 
ATOM     21  C   UNL d   1      28.989 -16.309  -1.310  0.00  0.00     0.009 C 
ATOM     22  C   UNL d   1      28.102 -16.048  -2.340  0.00  0.00    -0.033 C 
ATOM     23  C   UNL d   1      26.794 -16.544  -2.137  0.00  0.00     0.038 C 
BRANCH  22  24
ATOM     24  C   UNL d   1      28.359 -14.899  -3.349  0.00  0.00     0.141 C 
ATOM     25  S   UNL d   1      27.764 -14.996  -5.070  0.00  0.00    -0.149 SA
ATOM     26  C   UNL d   1      26.014 -15.311  -4.792  0.00  0.00     0.076 C 
ATOM     27  C   UNL d   1      25.298 -14.293  -3.856  0.00  0.00     0.020 C 
ATOM     28  C   UNL d   1      25.910 -13.797  -2.527  0.00  0.00     0.076 C 
ATOM     29  S   UNL d   1      27.664 -13.318  -2.629  0.00  0.00    -0.149 SA
ENDBRANCH  22  24
ENDBRANCH   4  18
TORSDOF 4
ENDMDL
MODEL 2
REMARK VINA RESULT:    -8.770      7.047      9.910
REMARK INTER + INTRA:         -10.568
REMARK INTER:                  -9.963
REMARK INTRA:                  -0.605
REMARK CONF_INDEPENDENT:        1.193
REMARK UNBOUND:                -0.605
REMARK  4 active torsions:
REMARK  status: ('A' for Active; 'I' for Inactive)
REMARK       I    between atoms: N_1  and  C_2 
REMARK    1  A    between atoms: C_2  and  C_4 
REMARK    2  A    between atoms: C_7  and  N_8 
REMARK       I    between atoms: N_8  and  C_9 
REMARK       I    between atoms: C_9  and  N_11 
REMARK    3  A    between atoms: N_11  and  C_12 
REMARK    4  A    between atoms: C_16  and  C_17 
ROOT
ATOM      1  N   UNL d   1      27.819 -15.185   1.251  0.00  0.00    -0.309 N 
ATOM      2  C   UNL d   1      27.682 -14.219   2.264  0.00  0.00     0.325 C 
ATOM      3  O   UNL d   1      27.036 -13.190   2.083  0.00  0.00    -0.247 OA
ATOM      4  N   UNL d   1      28.327 -14.424   3.495  0.00  0.00    -0.309 N 
ATOM      5  H   UNL d   1      28.498 -15.930   1.343  0.00  0.00     0.170 HD
ATOM      6  H   UNL d   1      28.905 -15.241   3.637  0.00  0.00     0.170 HD
ENDROOT
BRANCH   1   7
ATOM      7  C   UNL d   1      27.247 -15.002  -0.087  0.00  0.00     0.036 A 
ATOM      8  C   UNL d   1      27.616 -13.935  -0.931  0.00  0.00     0.030 A 
ATOM      9  C   UNL d   1      26.928 -13.695  -2.158  0.00  0.00     0.019 A 
ATOM     10  C   UNL d   1      25.917 -14.560  -2.600  0.00  0.00     0.032 A 
ATOM     11  C   UNL d   1      25.585 -15.644  -1.805  0.00  0.00     0.019 A 
ATOM     12  C   UNL d   1      26.257 -15.859  -0.593  0.00  0.00     0.030 A 
BRANCH  10  13
ATOM     13  C   UNL d   1      25.319 -14.452  -3.956  0.00  0.00     0.249 C 
ATOM     14  N   UNL d   1      24.527 -13.374  -4.227  0.00  0.00    -0.366 N 
ATOM     15  H   UNL d   1      24.086 -13.322  -5.138  0.00  0.00     0.159 HD
ATOM     16  H   UNL d   1      24.405 -12.589  -3.599  0.00  0.00     0.159 HD
ATOM     17  O   UNL d   1      25.498 -15.337  -4.802  0.00  0.00    -0.268 OA
ENDBRANCH  10  13
ENDBRANCH   1   7
BRANCH   4  18
ATOM     18  C   UNL d   1      28.064 -13.592   4.694  0.00  0.00     0.036 C 
ATOM     19  C   UNL d   1      27.889 -12.228   4.691  0.00  0.00     0.029 C 
ATOM     20  C   UNL d   1      28.010 -11.489   5.905  0.00  0.00     0.003 C 
ATOM     21  C   UNL d   1      28.452 -12.079   7.106  0.00  0.00     0.009 C 
ATOM     22  C   UNL d   1      28.672 -13.445   7.120  0.00  0.00    -0.033 C 
ATOM     23  C   UNL d   1      28.214 -14.132   5.973  0.00  0.00     0.038 C 
BRANCH  22  24
ATOM     24  C   UNL d   1      29.756 -14.075   8.033  0.00  0.00     0.141 C 
ATOM     25  S   UNL d   1      31.141 -13.083   8.686  0.00  0.00    -0.149 SA
ATOM     26  C   UNL d   1      30.236 -11.747   9.484  0.00  0.00     0.076 C 
ATOM     27  C   UNL d   1      29.151 -12.200  10.505  0.00  0.00     0.020 C 
ATOM     28  C   UNL d   1      28.155 -13.347  10.223  0.00  0.00     0.076 C 
ATOM     29  S   UNL d   1      28.905 -14.846   9.510  0.00  0.00    -0.149 SA
ENDBRANCH  22  24
ENDBRANCH   4  18
TORSDOF 4
ENDMDL
MODEL 3
REMARK VINA RESULT:    -8.299      2.729      4.406
REMARK INTER + INTRA:         -10.312
REMARK INTER:                  -9.493
REMARK INTRA:                  -0.819
REMARK CONF_INDEPENDENT:        1.193
REMARK UNBOUND:                -0.819
REMARK  4 active torsions:
REMARK  status: ('A' for Active; 'I' for Inactive)
REMARK       I    between atoms: N_1  and  C_2 
REMARK    1  A    between atoms: C_2  and  C_4 
REMARK    2  A    between atoms: C_7  and  N_8 
REMARK       I    between atoms: N_8  and  C_9 
REMARK       I    between atoms: C_9  and  N_11 
REMARK    3  A    between atoms: N_11  and  C_12 
REMARK    4  A    between atoms: C_16  and  C_17 
ROOT
ATOM      1  N   UNL d   1      25.378 -16.185  -0.854  0.00  0.00    -0.309 N 
ATOM      2  C   UNL d   1      25.524 -15.301  -1.940  0.00  0.00     0.325 C 
ATOM      3  O   UNL d   1      24.661 -15.208  -2.809  0.00  0.00    -0.247 OA
ATOM      4  N   UNL d   1      26.697 -14.537  -2.043  0.00  0.00    -0.309 N 
ATOM      5  H   UNL d   1      26.164 -16.391  -0.252  0.00  0.00     0.170 HD
ATOM      6  H   UNL d   1      27.437 -14.643  -1.363  0.00  0.00     0.170 HD
ENDROOT
BRANCH   1   7
ATOM      7  C   UNL d   1      24.221 -17.078  -0.724  0.00  0.00     0.036 A 
ATOM      8  C   UNL d   1      24.353 -18.461  -0.485  0.00  0.00     0.030 A 
ATOM      9  C   UNL d   1      23.217 -19.325  -0.520  0.00  0.00     0.019 A 
ATOM     10  C   UNL d   1      21.926 -18.814  -0.716  0.00  0.00     0.032 A 
ATOM     11  C   UNL d   1      21.780 -17.449  -0.895  0.00  0.00     0.019 A 
ATOM     12  C   UNL d   1      22.905 -16.612  -0.875  0.00  0.00     0.030 A 
BRANCH  10  13
ATOM     13  C   UNL d   1      20.711 -19.655  -0.564  0.00  0.00     0.249 C 
ATOM     14  N   UNL d   1      20.589 -20.414   0.564  0.00  0.00    -0.366 N 
ATOM     15  H   UNL d   1      19.779 -21.019   0.647  0.00  0.00     0.159 HD
ATOM     16  H   UNL d   1      21.221 -20.361   1.352  0.00  0.00     0.159 HD
ATOM     17  O   UNL d   1      19.854 -19.700  -1.456  0.00  0.00    -0.268 OA
ENDBRANCH  10  13
ENDBRANCH   1   7
BRANCH   4  18
ATOM     18  C   UNL d   1      26.852 -13.420  -3.008  0.00  0.00     0.036 C 
ATOM     19  C   UNL d   1      25.967 -12.379  -3.165  0.00  0.00     0.029 C 
ATOM     20  C   UNL d   1      26.011 -11.577  -4.344  0.00  0.00     0.003 C 
ATOM     21  C   UNL d   1      26.835 -11.894  -5.442  0.00  0.00     0.009 C 
ATOM     22  C   UNL d   1      27.705 -12.963  -5.318  0.00  0.00    -0.033 C 
ATOM     23  C   UNL d   1      27.821 -13.485  -4.010  0.00  0.00     0.038 C 
BRANCH  22  24
ATOM     24  C   UNL d   1      28.100 -13.823  -6.547  0.00  0.00     0.141 C 
ATOM     25  S   UNL d   1      28.904 -13.081  -8.007  0.00  0.00    -0.149 SA
ATOM     26  C   UNL d   1      30.313 -12.276  -7.228  0.00  0.00     0.076 C 
ATOM     27  C   UNL d   1      31.191 -13.198  -6.333  0.00  0.00     0.020 C 
ATOM     28  C   UNL d   1      30.598 -14.202  -5.320  0.00  0.00     0.076 C 
ATOM     29  S   UNL d   1      29.218 -15.204  -5.963  0.00  0.00    -0.149 SA
ENDBRANCH  22  24
ENDBRANCH   4  18
TORSDOF 4
ENDMDL
MODEL 4
REMARK VINA RESULT:    -8.075      2.270      3.332
REMARK INTER + INTRA:         -10.472
REMARK INTER:                  -9.268
REMARK INTRA:                  -1.204
REMARK CONF_INDEPENDENT:        1.193
REMARK UNBOUND:                -1.204
REMARK  4 active torsions:
REMARK  status: ('A' for Active; 'I' for Inactive)
REMARK       I    between atoms: N_1  and  C_2 
REMARK    1  A    between atoms: C_2  and  C_4 
REMARK    2  A    between atoms: C_7  and  N_8 
REMARK       I    between atoms: N_8  and  C_9 
REMARK       I    between atoms: C_9  and  N_11 
REMARK    3  A    between atoms: N_11  and  C_12 
REMARK    4  A    between atoms: C_16  and  C_17 
ROOT
ATOM      1  N   UNL d   1      25.624 -16.845  -0.305  0.00  0.00    -0.309 N 
ATOM      2  C   UNL d   1      26.105 -15.734  -1.022  0.00  0.00     0.325 C 
ATOM      3  O   UNL d   1      25.400 -15.145  -1.837  0.00  0.00    -0.247 OA
ATOM      4  N   UNL d   1      27.430 -15.314  -0.821  0.00  0.00    -0.309 N 
ATOM      5  H   UNL d   1      26.262 -17.431   0.218  0.00  0.00     0.170 HD
ATOM      6  H   UNL d   1      28.036 -15.822  -0.192  0.00  0.00     0.170 HD
ENDROOT
BRANCH   1   7
ATOM      7  C   UNL d   1      24.282 -17.395  -0.523  0.00  0.00     0.036 A 
ATOM      8  C   UNL d   1      23.174 -16.586  -0.845  0.00  0.00     0.030 A 
ATOM      9  C   UNL d   1      21.855 -17.130  -0.895  0.00  0.00     0.019 A 
ATOM     10  C   UNL d   1      21.632 -18.501  -0.703  0.00  0.00     0.032 A 
ATOM     11  C   UNL d   1      22.722 -19.314  -0.442  0.00  0.00     0.019 A 
ATOM     12  C   UNL d   1      24.010 -18.765  -0.379  0.00  0.00     0.030 A 
BRANCH  10  13
ATOM     13  C   UNL d   1      20.306 -19.128  -0.941  0.00  0.00     0.249 C 
ATOM     14  N   UNL d   1      19.389 -19.098   0.070  0.00  0.00    -0.366 N 
ATOM     15  H   UNL d   1      18.500 -19.562  -0.078  0.00  0.00     0.159 HD
ATOM     16  H   UNL d   1      19.514 -18.584   0.933  0.00  0.00     0.159 HD
ATOM     17  O   UNL d   1      20.055 -19.700  -2.009  0.00  0.00    -0.268 OA
ENDBRANCH  10  13
ENDBRANCH   1   7
BRANCH   4  18
ATOM     18  C   UNL d   1      27.960 -14.031  -1.345  0.00  0.00     0.036 C 
ATOM     19  C   UNL d   1      27.708 -12.790  -0.809  0.00  0.00     0.029 C 
ATOM     20  C   UNL d   1      27.949 -11.616  -1.581  0.00  0.00     0.003 C 
ATOM     21  C   UNL d   1      28.301 -11.669  -2.945  0.00  0.00     0.009 C 
ATOM     22  C   UNL d   1      28.521 -12.911  -3.515  0.00  0.00    -0.033 C 
ATOM     23  C   UNL d   1      28.578 -13.983  -2.596  0.00  0.00     0.038 C 
BRANCH  22  24
ATOM     24  C   UNL d   1      28.213 -13.173  -5.012  0.00  0.00     0.141 C 
ATOM     25  S   UNL d   1      27.742 -14.831  -5.608  0.00  0.00    -0.149 SA
ATOM     26  C   UNL d   1      26.343 -15.179  -4.530  0.00  0.00     0.076 C 
ATOM     27  C   UNL d   1      25.229 -14.092  -4.518  0.00  0.00     0.020 C 
ATOM     28  C   UNL d   1      25.530 -12.579  -4.435  0.00  0.00     0.076 C 
ATOM     29  S   UNL d   1      26.854 -12.004  -5.546  0.00  0.00    -0.149 SA
ENDBRANCH  22  24
ENDBRANCH   4  18
TORSDOF 4
ENDMDL
MODEL 5
REMARK VINA RESULT:    -8.052      2.805      4.436
REMARK INTER + INTRA:         -10.114
REMARK INTER:                  -9.245
REMARK INTRA:                  -0.869
REMARK CONF_INDEPENDENT:        1.193
REMARK UNBOUND:                -0.869
REMARK  4 active torsions:
REMARK  status: ('A' for Active; 'I' for Inactive)
REMARK       I    between atoms: N_1  and  C_2 
REMARK    1  A    between atoms: C_2  and  C_4 
REMARK    2  A    between atoms: C_7  and  N_8 
REMARK       I    between atoms: N_8  and  C_9 
REMARK       I    between atoms: C_9  and  N_11 
REMARK    3  A    between atoms: N_11  and  C_12 
REMARK    4  A    between atoms: C_16  and  C_17 
ROOT
ATOM      1  N   UNL d   1      25.348 -16.239  -0.883  0.00  0.00    -0.309 N 
ATOM      2  C   UNL d   1      25.926 -15.974  -2.138  0.00  0.00     0.325 C 
ATOM      3  O   UNL d   1      25.458 -16.446  -3.171  0.00  0.00    -0.247 OA
ATOM      4  N   UNL d   1      27.083 -15.180  -2.202  0.00  0.00    -0.309 N 
ATOM      5  H   UNL d   1      25.842 -16.004  -0.032  0.00  0.00     0.170 HD
ATOM      6  H   UNL d   1      27.508 -14.829  -1.355  0.00  0.00     0.170 HD
ENDROOT
BRANCH   1   7
ATOM      7  C   UNL d   1      24.191 -17.128  -0.727  0.00  0.00     0.036 A 
ATOM      8  C   UNL d   1      24.323 -18.502  -0.443  0.00  0.00     0.030 A 
ATOM      9  C   UNL d   1      23.188 -19.368  -0.455  0.00  0.00     0.019 A 
ATOM     10  C   UNL d   1      21.897 -18.864  -0.670  0.00  0.00     0.032 A 
ATOM     11  C   UNL d   1      21.752 -17.506  -0.894  0.00  0.00     0.019 A 
ATOM     12  C   UNL d   1      22.875 -16.668  -0.898  0.00  0.00     0.030 A 
BRANCH  10  13
ATOM     13  C   UNL d   1      20.682 -19.701  -0.496  0.00  0.00     0.249 C 
ATOM     14  N   UNL d   1      20.607 -20.507   0.604  0.00  0.00    -0.366 N 
ATOM     15  H   UNL d   1      19.796 -21.108   0.700  0.00  0.00     0.159 HD
ATOM     16  H   UNL d   1      21.277 -20.493   1.362  0.00  0.00     0.159 HD
ATOM     17  O   UNL d   1      19.783 -19.700  -1.346  0.00  0.00    -0.268 OA
ENDBRANCH  10  13
ENDBRANCH   1   7
BRANCH   4  18
ATOM     18  C   UNL d   1      27.634 -14.655  -3.475  0.00  0.00     0.036 C 
ATOM     19  C   UNL d   1      26.950 -13.865  -4.370  0.00  0.00     0.029 C 
ATOM     20  C   UNL d   1      27.426 -13.723  -5.707  0.00  0.00     0.003 C 
ATOM     21  C   UNL d   1      28.501 -14.483  -6.210  0.00  0.00     0.009 C 
ATOM     22  C   UNL d   1      29.178 -15.315  -5.335  0.00  0.00    -0.033 C 
ATOM     23  C   UNL d   1      28.845 -15.141  -3.972  0.00  0.00     0.038 C 
BRANCH  22  24
ATOM     24  C   UNL d   1      29.827 -16.636  -5.823  0.00  0.00     0.141 C 
ATOM     25  S   UNL d   1      31.017 -16.655  -7.205  0.00  0.00    -0.149 SA
ATOM     26  C   UNL d   1      32.221 -15.455  -6.614  0.00  0.00     0.076 C 
ATOM     27  C   UNL d   1      32.789 -15.732  -5.192  0.00  0.00     0.020 C 
ATOM     28  C   UNL d   1      31.902 -16.145  -3.996  0.00  0.00     0.076 C 
ATOM     29  S   UNL d   1      30.681 -17.444  -4.368  0.00  0.00    -0.149 SA
ENDBRANCH  22  24
ENDBRANCH   4  18
TORSDOF 4
ENDMDL
MODEL 6
REMARK VINA RESULT:    -7.805      5.926      8.888
REMARK INTER + INTRA:          -9.693
REMARK INTER:                  -8.998
REMARK INTRA:                  -0.695
REMARK CONF_INDEPENDENT:        1.193
REMARK UNBOUND:                -0.695
REMARK  4 active torsions:
REMARK  status: ('A' for Active; 'I' for Inactive)
REMARK       I    between atoms: N_1  and  C_2 
REMARK    1  A    between atoms: C_2  and  C_4 
REMARK    2  A    between atoms: C_7  and  N_8 
REMARK       I    between atoms: N_8  and  C_9 
REMARK       I    between atoms: C_9  and  N_11 
REMARK    3  A    between atoms: N_11  and  C_12 
REMARK    4  A    between atoms: C_16  and  C_17 
ROOT
ATOM      1  N   UNL d   1      29.089 -14.581   3.681  0.00  0.00    -0.309 N 
ATOM      2  C   UNL d   1      27.999 -14.652   2.793  0.00  0.00     0.325 C 
ATOM      3  O   UNL d   1      26.942 -14.075   3.031  0.00  0.00    -0.247 OA
ATOM      4  N   UNL d   1      28.117 -15.429   1.628  0.00  0.00    -0.309 N 
ATOM      5  H   UNL d   1      29.879 -15.203   3.571  0.00  0.00     0.170 HD
ATOM      6  H   UNL d   1      28.964 -15.951   1.448  0.00  0.00     0.170 HD
ENDROOT
BRANCH   1   7
ATOM      7  C   UNL d   1      29.011 -13.862   4.956  0.00  0.00     0.036 A 
ATOM      8  C   UNL d   1      29.560 -14.372   6.150  0.00  0.00     0.030 A 
ATOM      9  C   UNL d   1      29.330 -13.724   7.401  0.00  0.00     0.019 A 
ATOM     10  C   UNL d   1      28.620 -12.518   7.471  0.00  0.00     0.032 A 
ATOM     11  C   UNL d   1      28.125 -11.978   6.295  0.00  0.00     0.019 A 
ATOM     12  C   UNL d   1      28.342 -12.633   5.074  0.00  0.00     0.030 A 
BRANCH  10  13
ATOM     13  C   UNL d   1      28.532 -11.722   8.722  0.00  0.00     0.249 C 
ATOM     14  N   UNL d   1      29.103 -10.482   8.738  0.00  0.00    -0.366 N 
ATOM     15  H   UNL d   1      29.079  -9.957   9.605  0.00  0.00     0.159 HD
ATOM     16  H   UNL d   1      29.490 -10.027   7.921  0.00  0.00     0.159 HD
ATOM     17  O   UNL d   1      27.995 -12.187   9.735  0.00  0.00    -0.268 OA
ENDBRANCH  10  13
ENDBRANCH   1   7
BRANCH   4  18
ATOM     18  C   UNL d   1      27.126 -15.388   0.526  0.00  0.00     0.036 C 
ATOM     19  C   UNL d   1      26.229 -16.387   0.228  0.00  0.00     0.029 C 
ATOM     20  C   UNL d   1      25.588 -16.415  -1.046  0.00  0.00     0.003 C 
ATOM     21  C   UNL d   1      25.944 -15.537  -2.089  0.00  0.00     0.009 C 
ATOM     22  C   UNL d   1      26.876 -14.549  -1.822  0.00  0.00    -0.033 C 
ATOM     23  C   UNL d   1      27.205 -14.398  -0.456  0.00  0.00     0.038 C 
BRANCH  22  24
ATOM     24  C   UNL d   1      27.835 -14.030  -2.924  0.00  0.00     0.141 C 
ATOM     25  S   UNL d   1      27.780 -14.697  -4.621  0.00  0.00    -0.149 SA
ATOM     26  C   UNL d   1      26.045 -14.434  -5.018  0.00  0.00     0.076 C 
ATOM     27  C   UNL d   1      25.532 -12.978  -4.816  0.00  0.00     0.020 C 
ATOM     28  C   UNL d   1      25.868 -12.132  -3.568  0.00  0.00     0.076 C 
ATOM     29  S   UNL d   1      27.619 -12.178  -3.068  0.00  0.00    -0.149 SA
ENDBRANCH  22  24
ENDBRANCH   4  18
TORSDOF 4
ENDMDL
MODEL 7
REMARK VINA RESULT:    -7.453      4.612      9.135
REMARK INTER + INTRA:          -9.572
REMARK INTER:                  -8.647
REMARK INTRA:                  -0.925
REMARK CONF_INDEPENDENT:        1.193
REMARK UNBOUND:                -0.925
REMARK  4 active torsions:
REMARK  status: ('A' for Active; 'I' for Inactive)
REMARK       I    between atoms: N_1  and  C_2 
REMARK    1  A    between atoms: C_2  and  C_4 
REMARK    2  A    between atoms: C_7  and  N_8 
REMARK       I    between atoms: N_8  and  C_9 
REMARK       I    between atoms: C_9  and  N_11 
REMARK    3  A    between atoms: N_11  and  C_12 
REMARK    4  A    between atoms: C_16  and  C_17 
ROOT
ATOM      1  N   UNL d   1      25.370 -12.909  -4.224  0.00  0.00    -0.309 N 
ATOM      2  C   UNL d   1      25.307 -14.234  -3.753  0.00  0.00     0.325 C 
ATOM      3  O   UNL d   1      26.019 -15.115  -4.226  0.00  0.00    -0.247 OA
ATOM      4  N   UNL d   1      24.384 -14.556  -2.744  0.00  0.00    -0.309 N 
ATOM      5  H   UNL d   1      24.658 -12.239  -3.963  0.00  0.00     0.170 HD
ATOM      6  H   UNL d   1      23.756 -13.851  -2.384  0.00  0.00     0.170 HD
ENDROOT
BRANCH   1   7
ATOM      7  C   UNL d   1      26.246 -12.515  -5.332  0.00  0.00     0.036 A 
ATOM      8  C   UNL d   1      25.994 -11.382  -6.132  0.00  0.00     0.030 A 
ATOM      9  C   UNL d   1      26.775 -11.117  -7.298  0.00  0.00     0.019 A 
ATOM     10  C   UNL d   1      27.865 -11.929  -7.638  0.00  0.00     0.032 A 
ATOM     11  C   UNL d   1      28.155 -13.013  -6.826  0.00  0.00     0.019 A 
ATOM     12  C   UNL d   1      27.371 -13.274  -5.693  0.00  0.00     0.030 A 
BRANCH  10  13
ATOM     13  C   UNL d   1      28.811 -11.571  -8.726  0.00  0.00     0.249 C 
ATOM     14  N   UNL d   1      29.518 -12.575  -9.322  0.00  0.00    -0.366 N 
ATOM     15  H   UNL d   1      30.194 -12.324 -10.035  0.00  0.00     0.159 HD
ATOM     16  H   UNL d   1      29.362 -13.559  -9.145  0.00  0.00     0.159 HD
ATOM     17  O   UNL d   1      28.986 -10.390  -9.052  0.00  0.00    -0.268 OA
ENDBRANCH  10  13
ENDBRANCH   1   7
BRANCH   4  18
ATOM     18  C   UNL d   1      24.394 -15.852  -2.023  0.00  0.00     0.036 C 
ATOM     19  C   UNL d   1      23.370 -16.334  -1.241  0.00  0.00     0.029 C 
ATOM     20  C   UNL d   1      23.615 -17.388  -0.314  0.00  0.00     0.003 C 
ATOM     21  C   UNL d   1      24.911 -17.873  -0.047  0.00  0.00     0.009 C 
ATOM     22  C   UNL d   1      25.962 -17.373  -0.797  0.00  0.00    -0.033 C 
ATOM     23  C   UNL d   1      25.578 -16.582  -1.903  0.00  0.00     0.038 C 
BRANCH  22  24
ATOM     24  C   UNL d   1      27.388 -17.250  -0.199  0.00  0.00     0.141 C 
ATOM     25  S   UNL d   1      28.855 -17.075  -1.269  0.00  0.00    -0.149 SA
ATOM     26  C   UNL d   1      28.375 -15.642  -2.247  0.00  0.00     0.076 C 
ATOM     27  C   UNL d   1      27.949 -14.391  -1.424  0.00  0.00     0.020 C 
ATOM     28  C   UNL d   1      27.011 -14.467  -0.199  0.00  0.00     0.076 C 
ATOM     29  S   UNL d   1      27.407 -15.798   0.980  0.00  0.00    -0.149 SA
ENDBRANCH  22  24
ENDBRANCH   4  18
TORSDOF 4
ENDMDL
MODEL 8
REMARK VINA RESULT:    -7.368      2.354      3.808
REMARK INTER + INTRA:          -9.683
REMARK INTER:                  -8.561
REMARK INTRA:                  -1.122
REMARK CONF_INDEPENDENT:        1.193
REMARK UNBOUND:                -1.122
REMARK  4 active torsions:
REMARK  status: ('A' for Active; 'I' for Inactive)
REMARK       I    between atoms: N_1  and  C_2 
REMARK    1  A    between atoms: C_2  and  C_4 
REMARK    2  A    between atoms: C_7  and  N_8 
REMARK       I    between atoms: N_8  and  C_9 
REMARK       I    between atoms: C_9  and  N_11 
REMARK    3  A    between atoms: N_11  and  C_12 
REMARK    4  A    between atoms: C_16  and  C_17 
ROOT
ATOM      1  N   UNL d   1      26.201 -16.641  -0.485  0.00  0.00    -0.309 N 
ATOM      2  C   UNL d   1      26.776 -16.260  -1.713  0.00  0.00     0.325 C 
ATOM      3  O   UNL d   1      26.163 -16.382  -2.770  0.00  0.00    -0.247 OA
ATOM      4  N   UNL d   1      28.089 -15.762  -1.726  0.00  0.00    -0.309 N 
ATOM      5  H   UNL d   1      26.772 -16.711   0.347  0.00  0.00     0.170 HD
ATOM      6  H   UNL d   1      28.622 -15.707  -0.869  0.00  0.00     0.170 HD
ENDROOT
BRANCH   1   7
ATOM      7  C   UNL d   1      24.868 -17.247  -0.401  0.00  0.00     0.036 A 
ATOM      8  C   UNL d   1      24.674 -18.618  -0.141  0.00  0.00     0.030 A 
ATOM      9  C   UNL d   1      23.375 -19.206  -0.222  0.00  0.00     0.019 A 
ATOM     10  C   UNL d   1      22.243 -18.422  -0.485  0.00  0.00     0.032 A 
ATOM     11  C   UNL d   1      22.417 -17.064  -0.686  0.00  0.00     0.019 A 
ATOM     12  C   UNL d   1      23.699 -16.501  -0.621  0.00  0.00     0.030 A 
BRANCH  10  13
ATOM     13  C   UNL d   1      20.864 -18.965  -0.383  0.00  0.00     0.249 C 
ATOM     14  N   UNL d   1      20.688 -20.167   0.241  0.00  0.00    -0.366 N 
ATOM     15  H   UNL d   1      19.752 -20.556   0.273  0.00  0.00     0.159 HD
ATOM     16  H   UNL d   1      21.422 -20.662   0.731  0.00  0.00     0.159 HD
ATOM     17  O   UNL d   1      19.906 -18.365  -0.888  0.00  0.00    -0.268 OA
ENDBRANCH  10  13
ENDBRANCH   1   7
BRANCH   4  18
ATOM     18  C   UNL d   1      28.700 -15.125  -2.918  0.00  0.00     0.036 C 
ATOM     19  C   UNL d   1      29.935 -14.521  -2.949  0.00  0.00     0.029 C 
ATOM     20  C   UNL d   1      30.268 -13.632  -4.014  0.00  0.00     0.003 C 
ATOM     21  C   UNL d   1      29.324 -13.219  -4.975  0.00  0.00     0.009 C 
ATOM     22  C   UNL d   1      28.062 -13.787  -4.938  0.00  0.00    -0.033 C 
ATOM     23  C   UNL d   1      27.933 -14.887  -4.060  0.00  0.00     0.038 C 
BRANCH  22  24
ATOM     24  C   UNL d   1      26.811 -12.992  -5.394  0.00  0.00     0.141 C 
ATOM     25  S   UNL d   1      25.174 -13.289  -4.646  0.00  0.00    -0.149 SA
ATOM     26  C   UNL d   1      25.563 -13.052  -2.905  0.00  0.00     0.076 C 
ATOM     27  C   UNL d   1      26.261 -11.704  -2.560  0.00  0.00     0.020 C 
ATOM     28  C   UNL d   1      27.425 -11.121  -3.392  0.00  0.00     0.076 C 
ATOM     29  S   UNL d   1      27.169 -11.167  -5.195  0.00  0.00    -0.149 SA
ENDBRANCH  22  24
ENDBRANCH   4  18
TORSDOF 4
ENDMDL
MODEL 9
REMARK VINA RESULT:    -7.168      6.024      8.346
REMARK INTER + INTRA:          -9.666
REMARK INTER:                  -8.362
REMARK INTRA:                  -1.305
REMARK CONF_INDEPENDENT:        1.193
REMARK UNBOUND:                -1.305
REMARK  4 active torsions:
REMARK  status: ('A' for Active; 'I' for Inactive)
REMARK       I    between atoms: N_1  and  C_2 
REMARK    1  A    between atoms: C_2  and  C_4 
REMARK    2  A    between atoms: C_7  and  N_8 
REMARK       I    between atoms: N_8  and  C_9 
REMARK       I    between atoms: C_9  and  N_11 
REMARK    3  A    between atoms: N_11  and  C_12 
REMARK    4  A    between atoms: C_16  and  C_17 
ROOT
ATOM      1  N   UNL d   1      28.150 -15.409   0.959  0.00  0.00    -0.309 N 
ATOM      2  C   UNL d   1      28.117 -14.472   2.009  0.00  0.00     0.325 C 
ATOM      3  O   UNL d   1      27.491 -13.421   1.907  0.00  0.00    -0.247 OA
ATOM      4  N   UNL d   1      28.845 -14.735   3.181  0.00  0.00    -0.309 N 
ATOM      5  H   UNL d   1      28.811 -16.176   0.978  0.00  0.00     0.170 HD
ATOM      6  H   UNL d   1      29.406 -15.573   3.255  0.00  0.00     0.170 HD
ENDROOT
BRANCH   1   7
ATOM      7  C   UNL d   1      27.487 -15.167  -0.327  0.00  0.00     0.036 A 
ATOM      8  C   UNL d   1      27.788 -14.055  -1.138  0.00  0.00     0.030 A 
ATOM      9  C   UNL d   1      27.016 -13.763  -2.303  0.00  0.00     0.019 A 
ATOM     10  C   UNL d   1      25.985 -14.617  -2.719  0.00  0.00     0.032 A 
ATOM     11  C   UNL d   1      25.719 -15.743  -1.959  0.00  0.00     0.019 A 
ATOM     12  C   UNL d   1      26.473 -16.011  -0.808  0.00  0.00     0.030 A 
BRANCH  10  13
ATOM     13  C   UNL d   1      25.296 -14.449  -4.024  0.00  0.00     0.249 C 
ATOM     14  N   UNL d   1      24.456 -13.384  -4.177  0.00  0.00    -0.366 N 
ATOM     15  H   UNL d   1      23.955 -13.293  -5.054  0.00  0.00     0.159 HD
ATOM     16  H   UNL d   1      24.354 -12.642  -3.497  0.00  0.00     0.159 HD
ATOM     17  O   UNL d   1      25.446 -15.276  -4.933  0.00  0.00    -0.268 OA
ENDBRANCH  10  13
ENDBRANCH   1   7
BRANCH   4  18
ATOM     18  C   UNL d   1      28.696 -13.935   4.421  0.00  0.00     0.036 C 
ATOM     19  C   UNL d   1      27.627 -14.000   5.283  0.00  0.00     0.029 C 
ATOM     20  C   UNL d   1      27.404 -12.951   6.224  0.00  0.00     0.003 C 
ATOM     21  C   UNL d   1      28.154 -11.759   6.216  0.00  0.00     0.009 C 
ATOM     22  C   UNL d   1      29.211 -11.657   5.328  0.00  0.00    -0.033 C 
ATOM     23  C   UNL d   1      29.553 -12.862   4.674  0.00  0.00     0.038 C 
BRANCH  22  24
ATOM     24  C   UNL d   1      29.625 -10.290   4.726  0.00  0.00     0.141 C 
ATOM     25  S   UNL d   1      30.312 -10.164   3.041  0.00  0.00    -0.149 SA
ATOM     26  C   UNL d   1      29.016 -10.984   2.099  0.00  0.00     0.076 C 
ATOM     27  C   UNL d   1      27.580 -10.423   2.320  0.00  0.00     0.020 C 
ATOM     28  C   UNL d   1      27.013 -10.085   3.716  0.00  0.00     0.076 C 
ATOM     29  S   UNL d   1      28.146  -9.147   4.790  0.00  0.00    -0.149 SA
ENDBRANCH  22  24
ENDBRANCH   4  18
TORSDOF 4
ENDMDL
