MODEL 1
REMARK VINA RESULT:    -7.123      0.000      0.000
REMARK INTER + INTRA:          -9.311
REMARK INTER:                  -8.614
REMARK INTRA:                  -0.696
REMARK CONF_INDEPENDENT:        1.492
REMARK UNBOUND:                -0.696
REMARK  5 active torsions:
REMARK  status: ('A' for Active; 'I' for Inactive)
REMARK    1  A    between atoms: C_4  and  S_5 
REMARK    2  A    between atoms: S_5  and  C_6 
REMARK    3  A    between atoms: C_12  and  N_13 
REMARK    4  A    between atoms: N_13  and  C_14 
REMARK    5  A    between atoms: C_14  and  C_16 
REMARK       I    between atoms: C_16  and  N_18 
REMARK       I    between atoms: N_18  and  C_19 
REMARK       I    between atoms: C_19  and  N_20 
ROOT
ATOM      1  N   UNL d   1      23.653 -16.412  -0.998  0.00  0.00    -0.377 N 
ATOM      2  H   UNL d   1      23.018 -15.745  -0.556  0.00  0.00     0.160 HD
ENDROOT
BRANCH   1   3
ATOM      3  C   UNL d   1      24.854 -15.954  -1.509  0.00  0.00     0.034 A 
ATOM      4  C   UNL d   1      24.769 -14.954  -2.486  0.00  0.00     0.031 A 
ATOM      5  C   UNL d   1      25.908 -14.408  -3.073  0.00  0.00     0.021 A 
ATOM      6  C   UNL d   1      27.185 -14.812  -2.714  0.00  0.00     0.002 A 
ATOM      7  C   UNL d   1      27.281 -15.805  -1.741  0.00  0.00     0.027 A 
ATOM      8  C   UNL d   1      26.147 -16.414  -1.162  0.00  0.00    -0.034 A 
ATOM      9  C   UNL d   1      26.464 -17.575  -0.250  0.00  0.00     0.050 C 
BRANCH   6  10
ATOM     10  S   UNL d   1      28.732 -14.230  -3.391  0.00  0.00    -0.121 SA
BRANCH  10  11
ATOM     11  C   UNL d   1      28.792 -14.807  -5.144  0.00  0.00     0.002 C 
ATOM     12  C   UNL d   1      27.389 -14.825  -5.770  0.00  0.00     0.026 C 
ATOM     13  C   UNL d   1      29.824 -13.998  -5.943  0.00  0.00     0.026 C 
ATOM     14  C   UNL d   1      29.289 -16.267  -5.113  0.00  0.00     0.026 C 
ENDBRANCH  10  11
ENDBRANCH   6  10
ENDBRANCH   1   3
BRANCH   1  15
ATOM     15  C   UNL d   1      23.318 -17.813  -0.789  0.00  0.00     0.170 C 
ATOM     16  C   UNL d   1      23.752 -18.267   0.605  0.00  0.00     0.042 C 
BRANCH  15  17
ATOM     17  C   UNL d   1      21.808 -18.035  -0.910  0.00  0.00     0.247 C 
ATOM     18  O   UNL d   1      21.048 -17.136  -1.270  0.00  0.00    -0.271 OA
ATOM     19  N   UNL d   1      21.392 -19.320  -0.580  0.00  0.00    -0.278 N 
ATOM     20  C   UNL d   1      20.101 -19.755  -0.518  0.00  0.00     0.320 C 
ATOM     21  H   UNL d   1      22.064 -20.030  -0.322  0.00  0.00     0.173 HD
ATOM     22  N   UNL d   1      19.152 -18.855  -0.829  0.00  0.00    -0.352 N 
ATOM     23  O   UNL d   1      19.825 -20.910  -0.184  0.00  0.00    -0.247 OA
ATOM     24  H   UNL d   1      19.426 -17.915  -1.112  0.00  0.00     0.160 HD
ATOM     25  H   UNL d   1      18.175 -19.101  -0.816  0.00  0.00     0.160 HD
ENDBRANCH  15  17
ENDBRANCH   1  15
TORSDOF 5
ENDMDL
MODEL 2
REMARK VINA RESULT:    -6.869      1.344      1.724
REMARK INTER + INTRA:          -9.484
REMARK INTER:                  -8.361
REMARK INTRA:                  -1.123
REMARK CONF_INDEPENDENT:        1.492
REMARK UNBOUND:                -1.123
REMARK  5 active torsions:
REMARK  status: ('A' for Active; 'I' for Inactive)
REMARK    1  A    between atoms: C_4  and  S_5 
REMARK    2  A    between atoms: S_5  and  C_6 
REMARK    3  A    between atoms: C_12  and  N_13 
REMARK    4  A    between atoms: N_13  and  C_14 
REMARK    5  A    between atoms: C_14  and  C_16 
REMARK       I    between atoms: C_16  and  N_18 
REMARK       I    between atoms: N_18  and  C_19 
REMARK       I    between atoms: C_19  and  N_20 
ROOT
ATOM      1  N   UNL d   1      23.933 -18.390  -1.011  0.00  0.00    -0.377 N 
ATOM      2  H   UNL d   1      23.774 -19.200  -1.614  0.00  0.00     0.160 HD
ENDROOT
BRANCH   1   3
ATOM      3  C   UNL d   1      25.009 -17.561  -1.274  0.00  0.00     0.034 A 
ATOM      4  C   UNL d   1      24.889 -16.731  -2.395  0.00  0.00     0.031 A 
ATOM      5  C   UNL d   1      25.903 -15.848  -2.762  0.00  0.00     0.021 A 
ATOM      6  C   UNL d   1      27.075 -15.732  -2.030  0.00  0.00     0.002 A 
ATOM      7  C   UNL d   1      27.203 -16.552  -0.910  0.00  0.00     0.027 A 
ATOM      8  C   UNL d   1      26.217 -17.492  -0.540  0.00  0.00    -0.034 A 
ATOM      9  C   UNL d   1      26.617 -18.391   0.605  0.00  0.00     0.050 C 
BRANCH   6  10
ATOM     10  S   UNL d   1      28.468 -14.672  -2.385  0.00  0.00    -0.121 SA
BRANCH  10  11
ATOM     11  C   UNL d   1      28.897 -14.940  -4.162  0.00  0.00     0.002 C 
ATOM     12  C   UNL d   1      29.517 -16.328  -4.379  0.00  0.00     0.026 C 
ATOM     13  C   UNL d   1      27.686 -14.647  -5.059  0.00  0.00     0.026 C 
ATOM     14  C   UNL d   1      29.983 -13.902  -4.516  0.00  0.00     0.026 C 
ENDBRANCH  10  11
ENDBRANCH   6  10
ENDBRANCH   1   3
BRANCH   1  15
ATOM     15  C   UNL d   1      22.837 -18.070  -0.108  0.00  0.00     0.170 C 
ATOM     16  C   UNL d   1      22.530 -16.573  -0.145  0.00  0.00     0.042 C 
BRANCH  15  17
ATOM     17  C   UNL d   1      21.566 -18.823  -0.508  0.00  0.00     0.247 C 
ATOM     18  O   UNL d   1      21.406 -19.268  -1.645  0.00  0.00    -0.271 OA
ATOM     19  N   UNL d   1      20.632 -18.950   0.515  0.00  0.00    -0.278 N 
ATOM     20  C   UNL d   1      19.387 -19.495   0.402  0.00  0.00     0.320 C 
ATOM     21  H   UNL d   1      20.829 -18.593   1.440  0.00  0.00     0.173 HD
ATOM     22  N   UNL d   1      19.050 -19.971  -0.810  0.00  0.00    -0.352 N 
ATOM     23  O   UNL d   1      18.613 -19.536   1.361  0.00  0.00    -0.247 OA
ATOM     24  H   UNL d   1      19.726 -19.927  -1.571  0.00  0.00     0.160 HD
ATOM     25  H   UNL d   1      18.152 -20.397  -0.971  0.00  0.00     0.160 HD
ENDBRANCH  15  17
ENDBRANCH   1  15
TORSDOF 5
ENDMDL
MODEL 3
REMARK VINA RESULT:    -6.803      2.534      3.443
REMARK INTER + INTRA:          -9.358
REMARK INTER:                  -8.294
REMARK INTRA:                  -1.064
REMARK CONF_INDEPENDENT:        1.492
REMARK UNBOUND:                -1.064
REMARK  5 active torsions:
REMARK  status: ('A' for Active; 'I' for Inactive)
REMARK    1  A    between atoms: C_4  and  S_5 
REMARK    2  A    between atoms: S_5  and  C_6 
REMARK    3  A    between atoms: C_12  and  N_13 
REMARK    4  A    between atoms: N_13  and  C_14 
REMARK    5  A    between atoms: C_14  and  C_16 
REMARK       I    between atoms: C_16  and  N_18 
REMARK       I    between atoms: N_18  and  C_19 
REMARK       I    between atoms: C_19  and  N_20 
ROOT
ATOM      1  N   UNL d   1      23.722 -18.218  -1.643  0.00  0.00    -0.377 N 
ATOM      2  H   UNL d   1      23.247 -18.276  -2.546  0.00  0.00     0.160 HD
ENDROOT
BRANCH   1   3
ATOM      3  C   UNL d   1      24.663 -17.225  -1.445  0.00  0.00     0.034 A 
ATOM      4  C   UNL d   1      24.457 -16.030  -2.144  0.00  0.00     0.031 A 
ATOM      5  C   UNL d   1      25.332 -14.952  -2.025  0.00  0.00     0.021 A 
ATOM      6  C   UNL d   1      26.445 -14.999  -1.198  0.00  0.00     0.002 A 
ATOM      7  C   UNL d   1      26.658 -16.183  -0.495  0.00  0.00     0.027 A 
ATOM      8  C   UNL d   1      25.818 -17.309  -0.631  0.00  0.00    -0.034 A 
ATOM      9  C   UNL d   1      26.311 -18.541   0.090  0.00  0.00     0.050 C 
BRANCH   6  10
ATOM     10  S   UNL d   1      27.667 -13.719  -0.961  0.00  0.00    -0.121 SA
BRANCH  10  11
ATOM     11  C   UNL d   1      27.740 -13.387   0.855  0.00  0.00     0.002 C 
ATOM     12  C   UNL d   1      28.410 -14.548   1.604  0.00  0.00     0.026 C 
ATOM     13  C   UNL d   1      28.375 -12.016   1.128  0.00  0.00     0.026 C 
ATOM     14  C   UNL d   1      26.280 -13.315   1.350  0.00  0.00     0.026 C 
ENDBRANCH  10  11
ENDBRANCH   6  10
ENDBRANCH   1   3
BRANCH   1  15
ATOM     15  C   UNL d   1      23.141 -19.036  -0.588  0.00  0.00     0.170 C 
ATOM     16  C   UNL d   1      23.229 -18.319   0.760  0.00  0.00     0.042 C 
BRANCH  15  17
ATOM     17  C   UNL d   1      21.665 -19.324  -0.874  0.00  0.00     0.247 C 
ATOM     18  O   UNL d   1      21.215 -19.325  -2.020  0.00  0.00    -0.271 OA
ATOM     19  N   UNL d   1      20.902 -19.576   0.261  0.00  0.00    -0.278 N 
ATOM     20  C   UNL d   1      19.553 -19.772   0.294  0.00  0.00     0.320 C 
ATOM     21  H   UNL d   1      21.330 -19.595   1.177  0.00  0.00     0.173 HD
ATOM     22  N   UNL d   1      18.914 -19.739  -0.889  0.00  0.00    -0.352 N 
ATOM     23  O   UNL d   1      18.955 -19.959   1.357  0.00  0.00    -0.247 OA
ATOM     24  H   UNL d   1      19.450 -19.593  -1.743  0.00  0.00     0.160 HD
ATOM     25  H   UNL d   1      17.919 -19.884  -0.949  0.00  0.00     0.160 HD
ENDBRANCH  15  17
ENDBRANCH   1  15
TORSDOF 5
ENDMDL
MODEL 4
REMARK VINA RESULT:    -6.761      2.000      3.470
REMARK INTER + INTRA:          -9.457
REMARK INTER:                  -8.253
REMARK INTRA:                  -1.204
REMARK CONF_INDEPENDENT:        1.492
REMARK UNBOUND:                -1.204
REMARK  5 active torsions:
REMARK  status: ('A' for Active; 'I' for Inactive)
REMARK    1  A    between atoms: C_4  and  S_5 
REMARK    2  A    between atoms: S_5  and  C_6 
REMARK    3  A    between atoms: C_12  and  N_13 
REMARK    4  A    between atoms: N_13  and  C_14 
REMARK    5  A    between atoms: C_14  and  C_16 
REMARK       I    between atoms: C_16  and  N_18 
REMARK       I    between atoms: N_18  and  C_19 
REMARK       I    between atoms: C_19  and  N_20 
ROOT
ATOM      1  N   UNL d   1      22.230 -18.668   0.491  0.00  0.00    -0.377 N 
ATOM      2  H   UNL d   1      22.342 -19.288   1.295  0.00  0.00     0.160 HD
ENDROOT
BRANCH   1   3
ATOM      3  C   UNL d   1      23.339 -18.007  -0.004  0.00  0.00     0.034 A 
ATOM      4  C   UNL d   1      24.576 -18.624   0.219  0.00  0.00     0.031 A 
ATOM      5  C   UNL d   1      25.767 -18.061  -0.236  0.00  0.00     0.021 A 
ATOM      6  C   UNL d   1      25.791 -16.868  -0.943  0.00  0.00     0.002 A 
ATOM      7  C   UNL d   1      24.565 -16.246  -1.173  0.00  0.00     0.027 A 
ATOM      8  C   UNL d   1      23.346 -16.766  -0.684  0.00  0.00    -0.034 A 
ATOM      9  C   UNL d   1      22.156 -15.863  -0.901  0.00  0.00     0.050 C 
BRANCH   6  10
ATOM     10  S   UNL d   1      27.229 -16.010  -1.564  0.00  0.00    -0.121 SA
BRANCH  10  11
ATOM     11  C   UNL d   1      26.629 -14.842  -2.862  0.00  0.00     0.002 C 
ATOM     12  C   UNL d   1      25.818 -15.578  -3.939  0.00  0.00     0.026 C 
ATOM     13  C   UNL d   1      25.891 -13.657  -2.222  0.00  0.00     0.026 C 
ATOM     14  C   UNL d   1      27.883 -14.270  -3.557  0.00  0.00     0.026 C 
ENDBRANCH  10  11
ENDBRANCH   6  10
ENDBRANCH   1   3
BRANCH   1  15
ATOM     15  C   UNL d   1      20.950 -18.773  -0.195  0.00  0.00     0.170 C 
ATOM     16  C   UNL d   1      21.149 -19.243  -1.636  0.00  0.00     0.042 C 
BRANCH  15  17
ATOM     17  C   UNL d   1      20.038 -19.781   0.510  0.00  0.00     0.247 C 
ATOM     18  O   UNL d   1      20.338 -20.280   1.594  0.00  0.00    -0.271 OA
ATOM     19  N   UNL d   1      18.866 -20.071  -0.182  0.00  0.00    -0.278 N 
ATOM     20  C   UNL d   1      17.930 -20.994   0.177  0.00  0.00     0.320 C 
ATOM     21  H   UNL d   1      18.654 -19.607  -1.055  0.00  0.00     0.173 HD
ATOM     22  N   UNL d   1      18.160 -21.666   1.320  0.00  0.00    -0.352 N 
ATOM     23  O   UNL d   1      16.933 -21.206  -0.518  0.00  0.00    -0.247 OA
ATOM     24  H   UNL d   1      18.990 -21.450   1.870  0.00  0.00     0.160 HD
ATOM     25  H   UNL d   1      17.510 -22.358   1.658  0.00  0.00     0.160 HD
ENDBRANCH  15  17
ENDBRANCH   1  15
TORSDOF 5
ENDMDL
MODEL 5
REMARK VINA RESULT:    -6.666      2.560      3.722
REMARK INTER + INTRA:          -9.441
REMARK INTER:                  -8.157
REMARK INTRA:                  -1.284
REMARK CONF_INDEPENDENT:        1.492
REMARK UNBOUND:                -1.284
REMARK  5 active torsions:
REMARK  status: ('A' for Active; 'I' for Inactive)
REMARK    1  A    between atoms: C_4  and  S_5 
REMARK    2  A    between atoms: S_5  and  C_6 
REMARK    3  A    between atoms: C_12  and  N_13 
REMARK    4  A    between atoms: N_13  and  C_14 
REMARK    5  A    between atoms: C_14  and  C_16 
REMARK       I    between atoms: C_16  and  N_18 
REMARK       I    between atoms: N_18  and  C_19 
REMARK       I    between atoms: C_19  and  N_20 
ROOT
ATOM      1  N   UNL d   1      23.952 -18.371  -0.912  0.00  0.00    -0.377 N 
ATOM      2  H   UNL d   1      23.715 -18.919  -1.741  0.00  0.00     0.160 HD
ENDROOT
BRANCH   1   3
ATOM      3  C   UNL d   1      25.217 -17.821  -0.812  0.00  0.00     0.034 A 
ATOM      4  C   UNL d   1      26.101 -18.462   0.064  0.00  0.00     0.031 A 
ATOM      5  C   UNL d   1      27.405 -18.007   0.248  0.00  0.00     0.021 A 
ATOM      6  C   UNL d   1      27.902 -16.907  -0.436  0.00  0.00     0.002 A 
ATOM      7  C   UNL d   1      27.031 -16.264  -1.312  0.00  0.00     0.027 A 
ATOM      8  C   UNL d   1      25.690 -16.670  -1.485  0.00  0.00    -0.034 A 
ATOM      9  C   UNL d   1      24.870 -15.747  -2.355  0.00  0.00     0.050 C 
BRANCH   6  10
ATOM     10  S   UNL d   1      29.531 -16.191  -0.288  0.00  0.00    -0.121 SA
BRANCH  10  11
ATOM     11  C   UNL d   1      29.335 -14.620   0.662  0.00  0.00     0.002 C 
ATOM     12  C   UNL d   1      30.559 -14.353   1.550  0.00  0.00     0.026 C 
ATOM     13  C   UNL d   1      28.979 -13.461  -0.280  0.00  0.00     0.026 C 
ATOM     14  C   UNL d   1      28.130 -14.821   1.605  0.00  0.00     0.026 C 
ENDBRANCH  10  11
ENDBRANCH   6  10
ENDBRANCH   1   3
BRANCH   1  15
ATOM     15  C   UNL d   1      22.822 -18.020  -0.063  0.00  0.00     0.170 C 
ATOM     16  C   UNL d   1      22.529 -16.522  -0.150  0.00  0.00     0.042 C 
BRANCH  15  17
ATOM     17  C   UNL d   1      21.562 -18.774  -0.495  0.00  0.00     0.247 C 
ATOM     18  O   UNL d   1      21.411 -19.177  -1.649  0.00  0.00    -0.271 OA
ATOM     19  N   UNL d   1      20.627 -18.952   0.519  0.00  0.00    -0.278 N 
ATOM     20  C   UNL d   1      19.390 -19.508   0.382  0.00  0.00     0.320 C 
ATOM     21  H   UNL d   1      20.817 -18.628   1.458  0.00  0.00     0.173 HD
ATOM     22  N   UNL d   1      19.062 -19.942  -0.848  0.00  0.00    -0.352 N 
ATOM     23  O   UNL d   1      18.613 -19.596   1.336  0.00  0.00    -0.247 OA
ATOM     24  H   UNL d   1      19.740 -19.860  -1.605  0.00  0.00     0.160 HD
ATOM     25  H   UNL d   1      18.170 -20.373  -1.029  0.00  0.00     0.160 HD
ENDBRANCH  15  17
ENDBRANCH   1  15
TORSDOF 5
ENDMDL
MODEL 6
REMARK VINA RESULT:    -6.655      2.241      3.251
REMARK INTER + INTRA:          -9.370
REMARK INTER:                  -8.146
REMARK INTRA:                  -1.224
REMARK CONF_INDEPENDENT:        1.492
REMARK UNBOUND:                -1.224
REMARK  5 active torsions:
REMARK  status: ('A' for Active; 'I' for Inactive)
REMARK    1  A    between atoms: C_4  and  S_5 
REMARK    2  A    between atoms: S_5  and  C_6 
REMARK    3  A    between atoms: C_12  and  N_13 
REMARK    4  A    between atoms: N_13  and  C_14 
REMARK    5  A    between atoms: C_14  and  C_16 
REMARK       I    between atoms: C_16  and  N_18 
REMARK       I    between atoms: N_18  and  C_19 
REMARK       I    between atoms: C_19  and  N_20 
ROOT
ATOM      1  N   UNL d   1      23.932 -18.395  -0.902  0.00  0.00    -0.377 N 
ATOM      2  H   UNL d   1      23.693 -18.960  -1.719  0.00  0.00     0.160 HD
ENDROOT
BRANCH   1   3
ATOM      3  C   UNL d   1      25.197 -17.844  -0.817  0.00  0.00     0.034 A 
ATOM      4  C   UNL d   1      26.088 -18.475   0.060  0.00  0.00     0.031 A 
ATOM      5  C   UNL d   1      27.394 -18.018   0.230  0.00  0.00     0.021 A 
ATOM      6  C   UNL d   1      27.885 -16.925  -0.469  0.00  0.00     0.002 A 
ATOM      7  C   UNL d   1      27.007 -16.291  -1.346  0.00  0.00     0.027 A 
ATOM      8  C   UNL d   1      25.665 -16.699  -1.505  0.00  0.00    -0.034 A 
ATOM      9  C   UNL d   1      24.839 -15.786  -2.379  0.00  0.00     0.050 C 
BRANCH   6  10
ATOM     10  S   UNL d   1      29.515 -16.207  -0.341  0.00  0.00    -0.121 SA
BRANCH  10  11
ATOM     11  C   UNL d   1      30.607 -17.168  -1.479  0.00  0.00     0.002 C 
ATOM     12  C   UNL d   1      30.795 -18.609  -0.982  0.00  0.00     0.026 C 
ATOM     13  C   UNL d   1      30.103 -17.064  -2.925  0.00  0.00     0.026 C 
ATOM     14  C   UNL d   1      31.995 -16.493  -1.435  0.00  0.00     0.026 C 
ENDBRANCH  10  11
ENDBRANCH   6  10
ENDBRANCH   1   3
BRANCH   1  15
ATOM     15  C   UNL d   1      22.805 -18.026  -0.057  0.00  0.00     0.170 C 
ATOM     16  C   UNL d   1      22.530 -16.526  -0.152  0.00  0.00     0.042 C 
BRANCH  15  17
ATOM     17  C   UNL d   1      21.537 -18.768  -0.488  0.00  0.00     0.247 C 
ATOM     18  O   UNL d   1      21.376 -19.158  -1.645  0.00  0.00    -0.271 OA
ATOM     19  N   UNL d   1      20.608 -18.951   0.531  0.00  0.00    -0.278 N 
ATOM     20  C   UNL d   1      19.367 -19.497   0.396  0.00  0.00     0.320 C 
ATOM     21  H   UNL d   1      20.807 -18.638   1.472  0.00  0.00     0.173 HD
ATOM     22  N   UNL d   1      19.027 -19.916  -0.836  0.00  0.00    -0.352 N 
ATOM     23  O   UNL d   1      18.596 -19.591   1.355  0.00  0.00    -0.247 OA
ATOM     24  H   UNL d   1      19.700 -19.830  -1.597  0.00  0.00     0.160 HD
ATOM     25  H   UNL d   1      18.131 -20.339  -1.015  0.00  0.00     0.160 HD
ENDBRANCH  15  17
ENDBRANCH   1  15
TORSDOF 5
ENDMDL
MODEL 7
REMARK VINA RESULT:    -6.587      0.949      2.040
REMARK INTER + INTRA:          -9.169
REMARK INTER:                  -8.079
REMARK INTRA:                  -1.090
REMARK CONF_INDEPENDENT:        1.492
REMARK UNBOUND:                -1.090
REMARK  5 active torsions:
REMARK  status: ('A' for Active; 'I' for Inactive)
REMARK    1  A    between atoms: C_4  and  S_5 
REMARK    2  A    between atoms: S_5  and  C_6 
REMARK    3  A    between atoms: C_12  and  N_13 
REMARK    4  A    between atoms: N_13  and  C_14 
REMARK    5  A    between atoms: C_14  and  C_16 
REMARK       I    between atoms: C_16  and  N_18 
REMARK       I    between atoms: N_18  and  C_19 
REMARK       I    between atoms: C_19  and  N_20 
ROOT
ATOM      1  N   UNL d   1      23.812 -16.672  -1.315  0.00  0.00    -0.377 N 
ATOM      2  H   UNL d   1      23.120 -15.927  -1.214  0.00  0.00     0.160 HD
ENDROOT
BRANCH   1   3
ATOM      3  C   UNL d   1      25.117 -16.336  -1.626  0.00  0.00     0.034 A 
ATOM      4  C   UNL d   1      26.115 -17.091  -0.999  0.00  0.00     0.031 A 
ATOM      5  C   UNL d   1      27.468 -16.853  -1.234  0.00  0.00     0.021 A 
ATOM      6  C   UNL d   1      27.898 -15.868  -2.112  0.00  0.00     0.002 A 
ATOM      7  C   UNL d   1      26.912 -15.113  -2.743  0.00  0.00     0.027 A 
ATOM      8  C   UNL d   1      25.535 -15.296  -2.490  0.00  0.00    -0.034 A 
ATOM      9  C   UNL d   1      24.642 -14.273  -3.150  0.00  0.00     0.050 C 
BRANCH   6  10
ATOM     10  S   UNL d   1      29.585 -15.427  -2.496  0.00  0.00    -0.121 SA
BRANCH  10  11
ATOM     11  C   UNL d   1      29.997 -16.253  -4.095  0.00  0.00     0.002 C 
ATOM     12  C   UNL d   1      30.130 -17.773  -3.915  0.00  0.00     0.026 C 
ATOM     13  C   UNL d   1      29.004 -15.836  -5.189  0.00  0.00     0.026 C 
ATOM     14  C   UNL d   1      31.385 -15.728  -4.520  0.00  0.00     0.026 C 
ENDBRANCH  10  11
ENDBRANCH   6  10
ENDBRANCH   1   3
BRANCH   1  15
ATOM     15  C   UNL d   1      23.378 -17.982  -0.849  0.00  0.00     0.170 C 
ATOM     16  C   UNL d   1      23.795 -18.201   0.605  0.00  0.00     0.042 C 
BRANCH  15  17
ATOM     17  C   UNL d   1      21.855 -18.110  -0.929  0.00  0.00     0.247 C 
ATOM     18  O   UNL d   1      21.142 -17.165  -1.270  0.00  0.00    -0.271 OA
ATOM     19  N   UNL d   1      21.369 -19.366  -0.585  0.00  0.00    -0.278 N 
ATOM     20  C   UNL d   1      20.056 -19.720  -0.487  0.00  0.00     0.320 C 
ATOM     21  H   UNL d   1      22.003 -20.116  -0.344  0.00  0.00     0.173 HD
ATOM     22  N   UNL d   1      19.155 -18.763  -0.774  0.00  0.00    -0.352 N 
ATOM     23  O   UNL d   1      19.718 -20.856  -0.144  0.00  0.00    -0.247 OA
ATOM     24  H   UNL d   1      19.480 -17.842  -1.066  0.00  0.00     0.160 HD
ATOM     25  H   UNL d   1      18.166 -18.949  -0.734  0.00  0.00     0.160 HD
ENDBRANCH  15  17
ENDBRANCH   1  15
TORSDOF 5
ENDMDL
MODEL 8
REMARK VINA RESULT:    -6.543      5.499      7.449
REMARK INTER + INTRA:          -8.799
REMARK INTER:                  -8.035
REMARK INTRA:                  -0.764
REMARK CONF_INDEPENDENT:        1.492
REMARK UNBOUND:                -0.764
REMARK  5 active torsions:
REMARK  status: ('A' for Active; 'I' for Inactive)
REMARK    1  A    between atoms: C_4  and  S_5 
REMARK    2  A    between atoms: S_5  and  C_6 
REMARK    3  A    between atoms: C_12  and  N_13 
REMARK    4  A    between atoms: N_13  and  C_14 
REMARK    5  A    between atoms: C_14  and  C_16 
REMARK       I    between atoms: C_16  and  N_18 
REMARK       I    between atoms: N_18  and  C_19 
REMARK       I    between atoms: C_19  and  N_20 
ROOT
ATOM      1  N   UNL d   1      29.445 -15.188   1.215  0.00  0.00    -0.377 N 
ATOM      2  H   UNL d   1      30.049 -15.868   1.680  0.00  0.00     0.160 HD
ENDROOT
BRANCH   1   3
ATOM      3  C   UNL d   1      28.415 -15.645   0.414  0.00  0.00     0.034 A 
ATOM      4  C   UNL d   1      27.163 -15.053   0.620  0.00  0.00     0.031 A 
ATOM      5  C   UNL d   1      26.047 -15.424  -0.128  0.00  0.00     0.021 A 
ATOM      6  C   UNL d   1      26.118 -16.386  -1.124  0.00  0.00     0.002 A 
ATOM      7  C   UNL d   1      27.361 -16.980  -1.339  0.00  0.00     0.027 A 
ATOM      8  C   UNL d   1      28.498 -16.662  -0.567  0.00  0.00    -0.034 A 
ATOM      9  C   UNL d   1      29.702 -17.529  -0.850  0.00  0.00     0.050 C 
BRANCH   6  10
ATOM     10  S   UNL d   1      24.780 -16.986  -2.143  0.00  0.00    -0.121 SA
BRANCH  10  11
ATOM     11  C   UNL d   1      23.528 -17.715  -0.997  0.00  0.00     0.002 C 
ATOM     12  C   UNL d   1      22.530 -16.650  -0.517  0.00  0.00     0.026 C 
ATOM     13  C   UNL d   1      22.872 -18.950  -1.630  0.00  0.00     0.026 C 
ATOM     14  C   UNL d   1      24.299 -18.201   0.248  0.00  0.00     0.026 C 
ENDBRANCH  10  11
ENDBRANCH   6  10
ENDBRANCH   1   3
BRANCH   1  15
ATOM     15  C   UNL d   1      29.592 -13.816   1.679  0.00  0.00     0.170 C 
ATOM     16  C   UNL d   1      29.170 -12.831   0.589  0.00  0.00     0.042 C 
BRANCH  15  17
ATOM     17  C   UNL d   1      28.718 -13.562   2.911  0.00  0.00     0.247 C 
ATOM     18  O   UNL d   1      28.091 -12.512   3.055  0.00  0.00    -0.271 OA
ATOM     19  N   UNL d   1      28.706 -14.608   3.827  0.00  0.00    -0.278 N 
ATOM     20  C   UNL d   1      28.085 -14.604   5.041  0.00  0.00     0.320 C 
ATOM     21  H   UNL d   1      29.215 -15.462   3.642  0.00  0.00     0.173 HD
ATOM     22  N   UNL d   1      27.405 -13.489   5.362  0.00  0.00    -0.352 N 
ATOM     23  O   UNL d   1      28.155 -15.571   5.803  0.00  0.00    -0.247 OA
ATOM     24  H   UNL d   1      27.364 -12.718   4.696  0.00  0.00     0.160 HD
ATOM     25  H   UNL d   1      26.912 -13.412   6.237  0.00  0.00     0.160 HD
ENDBRANCH  15  17
ENDBRANCH   1  15
TORSDOF 5
ENDMDL
MODEL 9
REMARK VINA RESULT:    -6.353      4.233      6.890
REMARK INTER + INTRA:          -8.882
REMARK INTER:                  -7.845
REMARK INTRA:                  -1.037
REMARK CONF_INDEPENDENT:        1.492
REMARK UNBOUND:                -1.037
REMARK  5 active torsions:
REMARK  status: ('A' for Active; 'I' for Inactive)
REMARK    1  A    between atoms: C_4  and  S_5 
REMARK    2  A    between atoms: S_5  and  C_6 
REMARK    3  A    between atoms: C_12  and  N_13 
REMARK    4  A    between atoms: N_13  and  C_14 
REMARK    5  A    between atoms: C_14  and  C_16 
REMARK       I    between atoms: C_16  and  N_18 
REMARK       I    between atoms: N_18  and  C_19 
REMARK       I    between atoms: C_19  and  N_20 
ROOT
ATOM      1  N   UNL d   1      28.748 -14.803  -1.545  0.00  0.00    -0.377 N 
ATOM      2  H   UNL d   1      29.215 -14.160  -0.903  0.00  0.00     0.160 HD
ENDROOT
BRANCH   1   3
ATOM      3  C   UNL d   1      27.781 -15.658  -1.049  0.00  0.00     0.034 A 
ATOM      4  C   UNL d   1      26.517 -15.100  -0.830  0.00  0.00     0.031 A 
ATOM      5  C   UNL d   1      25.457 -15.860  -0.337  0.00  0.00     0.021 A 
ATOM      6  C   UNL d   1      25.594 -17.210  -0.053  0.00  0.00     0.002 A 
ATOM      7  C   UNL d   1      26.848 -17.777  -0.271  0.00  0.00     0.027 A 
ATOM      8  C   UNL d   1      27.954 -17.024  -0.722  0.00  0.00    -0.034 A 
ATOM      9  C   UNL d   1      29.257 -17.787  -0.740  0.00  0.00     0.050 C 
BRANCH   6  10
ATOM     10  S   UNL d   1      24.345 -18.305   0.605  0.00  0.00    -0.121 SA
BRANCH  10  11
ATOM     11  C   UNL d   1      22.894 -18.196  -0.532  0.00  0.00     0.002 C 
ATOM     12  C   UNL d   1      22.449 -16.738  -0.723  0.00  0.00     0.026 C 
ATOM     13  C   UNL d   1      23.177 -18.942  -1.843  0.00  0.00     0.026 C 
ATOM     14  C   UNL d   1      21.730 -18.933   0.165  0.00  0.00     0.026 C 
ENDBRANCH  10  11
ENDBRANCH   6  10
ENDBRANCH   1   3
BRANCH   1  15
ATOM     15  C   UNL d   1      28.982 -14.541  -2.958  0.00  0.00     0.170 C 
ATOM     16  C   UNL d   1      29.007 -15.848  -3.751  0.00  0.00     0.042 C 
BRANCH  15  17
ATOM     17  C   UNL d   1      27.875 -13.657  -3.538  0.00  0.00     0.247 C 
ATOM     18  O   UNL d   1      28.040 -12.452  -3.727  0.00  0.00    -0.271 OA
ATOM     19  N   UNL d   1      26.693 -14.334  -3.820  0.00  0.00    -0.278 N 
ATOM     20  C   UNL d   1      25.531 -13.771  -4.256  0.00  0.00     0.320 C 
ATOM     21  H   UNL d   1      26.623 -15.332  -3.674  0.00  0.00     0.173 HD
ATOM     22  N   UNL d   1      25.546 -12.440  -4.451  0.00  0.00    -0.352 N 
ATOM     23  O   UNL d   1      24.519 -14.450  -4.451  0.00  0.00    -0.247 OA
ATOM     24  H   UNL d   1      26.408 -11.921  -4.289  0.00  0.00     0.160 HD
ATOM     25  H   UNL d   1      24.730 -11.952  -4.782  0.00  0.00     0.160 HD
ENDBRANCH  15  17
ENDBRANCH   1  15
TORSDOF 5
ENDMDL
