MODEL 1
REMARK VINA RESULT:   -32.339      0.000      0.000
REMARK INTER + INTRA:         -36.670
REMARK INTER:                 -35.024
REMARK INTRA:                  -1.647
REMARK CONF_INDEPENDENT:        2.685
REMARK UNBOUND:                -1.647
REMARK  9 active torsions:
REMARK  status: ('A' for Active; 'I' for Inactive)
REMARK    1  A    between atoms: C_2  and  O_3 
REMARK    2  A    between atoms: O_3  and  C_4 
REMARK    3  A    between atoms: C_4  and  C_6 
REMARK    4  A    between atoms: C_7  and  N_8 
REMARK    5  A    between atoms: N_8  and  C_9 
REMARK    6  A    between atoms: C_9  and  N_11 
REMARK       I    between atoms: N_11  and  C_12 
REMARK    7  A    between atoms: C_12  and  C_14 
REMARK    8  A    between atoms: C_21  and  C_22 
REMARK       I    between atoms: C_22  and  N_24 
REMARK    9  A    between atoms: N_24  and  C_25 
ROOT
ATOM      1  C   UNL d   1      26.423 -15.003  -3.421  0.00  0.00     0.080 C 
ATOM      2  C   UNL d   1      26.478 -15.906  -2.362  0.00  0.00     0.094 C 
ATOM      3  S   UNL d   1      28.083 -16.634  -2.345  0.00  0.00    -0.065 SA
ATOM      4  C   UNL d   1      28.533 -16.040  -3.919  0.00  0.00     0.082 C 
ATOM      5  C   UNL d   1      27.542 -15.170  -4.373  0.00  0.00    -0.020 C 
ATOM      6  C   UNL d   1      27.558 -14.425  -5.702  0.00  0.00     0.051 C 
ENDROOT
BRANCH   2   7
ATOM      7  N   UNL d   1      25.556 -16.230  -1.273  0.00  0.00    -0.326 N 
ATOM      8  H   UNL d   1      24.834 -15.535  -1.120  0.00  0.00     0.169 HD
BRANCH   7   9
ATOM      9  C   UNL d   1      25.691 -17.359  -0.371  0.00  0.00     0.179 C 
ATOM     10  S   UNL d   1      27.185 -17.877   0.221  0.00  0.00    -0.040 SA
BRANCH   9  11
ATOM     11  N   UNL d   1      24.451 -18.079  -0.049  0.00  0.00    -0.299 N 
ATOM     12  C   UNL d   1      23.097 -17.673  -0.419  0.00  0.00     0.259 C 
ATOM     13  O   UNL d   1      22.807 -16.574  -0.906  0.00  0.00    -0.267 OA
ATOM     14  H   UNL d   1      24.504 -18.886   0.554  0.00  0.00     0.171 HD
BRANCH  12  15
ATOM     15  C   UNL d   1      21.864 -18.441  -0.130  0.00  0.00     0.050 C 
ATOM     16  C   UNL d   1      21.416 -18.952   1.083  0.00  0.00     0.020 C 
ATOM     17  C   UNL d   1      20.262 -19.751   1.074  0.00  0.00     0.020 C 
ATOM     18  C   UNL d   1      19.570 -19.938  -0.120  0.00  0.00     0.116 C 
ATOM     19  N   UNL d   1      19.890 -19.324  -1.270  0.00  0.00    -0.272 NA
ATOM     20  C   UNL d   1      21.011 -18.575  -1.239  0.00  0.00     0.133 C 
ENDBRANCH  12  15
ENDBRANCH   9  11
ENDBRANCH   7   9
ENDBRANCH   2   7
BRANCH   1  21
ATOM     21  C   UNL d   1      25.398 -13.985  -3.710  0.00  0.00     0.296 C 
ATOM     22  O   UNL d   1      24.590 -14.130  -4.603  0.00  0.00    -0.259 OA
BRANCH  21  23
ATOM     23  O   UNL d   1      25.432 -12.781  -3.077  0.00  0.00    -0.318 OA
BRANCH  23  24
ATOM     24  C   UNL d   1      26.080 -11.544  -3.408  0.00  0.00     0.174 C 
ATOM     25  C   UNL d   1      27.009 -11.299  -2.266  0.00  0.00     0.034 C 
ENDBRANCH  23  24
ENDBRANCH  21  23
ENDBRANCH   1  21
BRANCH   4  26
ATOM     26  C   UNL d   1      29.749 -16.382  -4.723  0.00  0.00     0.263 C 
ATOM     27  O   UNL d   1      30.839 -16.504  -4.162  0.00  0.00    -0.267 OA
ATOM     28  N   UNL d   1      29.712 -16.526  -6.113  0.00  0.00    -0.322 N 
ATOM     29  H   UNL d   1      29.017 -15.985  -6.603  0.00  0.00     0.169 HD
BRANCH  28  30
ATOM     30  C   UNL d   1      30.895 -16.928  -6.835  0.00  0.00     0.041 A 
ATOM     31  C   UNL d   1      31.670 -15.950  -7.483  0.00  0.00     0.030 A 
ATOM     32  C   UNL d   1      32.828 -16.300  -8.198  0.00  0.00     0.002 A 
ATOM     33  C   UNL d   1      33.218 -17.632  -8.300  0.00  0.00     0.001 A 
ATOM     34  C   UNL d   1      32.453 -18.615  -7.681  0.00  0.00     0.009 A 
ATOM     35  C   UNL d   1      31.293 -18.284  -6.948  0.00  0.00    -0.035 A 
ATOM     36  C   UNL d   1      30.482 -19.427  -6.395  0.00  0.00     0.050 C 
ENDBRANCH  28  30
ENDBRANCH   4  26
TORSDOF 9
ENDMDL
MODEL 2
REMARK VINA RESULT:   -32.078      3.242      6.954
REMARK INTER + INTRA:         -36.397
REMARK INTER:                 -34.763
REMARK INTRA:                  -1.634
REMARK CONF_INDEPENDENT:        2.685
REMARK UNBOUND:                -1.634
REMARK  9 active torsions:
REMARK  status: ('A' for Active; 'I' for Inactive)
REMARK    1  A    between atoms: C_2  and  O_3 
REMARK    2  A    between atoms: O_3  and  C_4 
REMARK    3  A    between atoms: C_4  and  C_6 
REMARK    4  A    between atoms: C_7  and  N_8 
REMARK    5  A    between atoms: N_8  and  C_9 
REMARK    6  A    between atoms: C_9  and  N_11 
REMARK       I    between atoms: N_11  and  C_12 
REMARK    7  A    between atoms: C_12  and  C_14 
REMARK    8  A    between atoms: C_21  and  C_22 
REMARK       I    between atoms: C_22  and  N_24 
REMARK    9  A    between atoms: N_24  and  C_25 
ROOT
ATOM      1  C   UNL d   1      25.692 -14.436  -2.343  0.00  0.00     0.080 C 
ATOM      2  C   UNL d   1      25.749 -15.528  -1.480  0.00  0.00     0.094 C 
ATOM      3  S   UNL d   1      26.162 -14.934   0.127  0.00  0.00    -0.065 SA
ATOM      4  C   UNL d   1      26.616 -13.343  -0.414  0.00  0.00     0.082 C 
ATOM      5  C   UNL d   1      26.301 -13.219  -1.767  0.00  0.00    -0.020 C 
ATOM      6  C   UNL d   1      26.527 -11.977  -2.619  0.00  0.00     0.051 C 
ENDROOT
BRANCH   2   7
ATOM      7  N   UNL d   1      25.423 -16.946  -1.636  0.00  0.00    -0.326 N 
ATOM      8  H   UNL d   1      25.084 -17.195  -2.558  0.00  0.00     0.169 HD
BRANCH   7   9
ATOM      9  C   UNL d   1      25.434 -17.928  -0.567  0.00  0.00     0.179 C 
ATOM     10  S   UNL d   1      26.845 -18.377   0.243  0.00  0.00    -0.040 SA
BRANCH   9  11
ATOM     11  N   UNL d   1      24.145 -18.571  -0.270  0.00  0.00    -0.299 N 
ATOM     12  C   UNL d   1      22.833 -17.930  -0.305  0.00  0.00     0.259 C 
ATOM     13  O   UNL d   1      22.655 -16.712  -0.422  0.00  0.00    -0.267 OA
ATOM     14  H   UNL d   1      24.147 -19.520   0.073  0.00  0.00     0.171 HD
BRANCH  12  15
ATOM     15  C   UNL d   1      21.542 -18.609  -0.054  0.00  0.00     0.050 C 
ATOM     16  C   UNL d   1      21.033 -19.106   1.141  0.00  0.00     0.020 C 
ATOM     17  C   UNL d   1      19.824 -19.817   1.095  0.00  0.00     0.020 C 
ATOM     18  C   UNL d   1      19.144 -19.932  -0.115  0.00  0.00     0.116 C 
ATOM     19  N   UNL d   1      19.531 -19.325  -1.247  0.00  0.00    -0.272 NA
ATOM     20  C   UNL d   1      20.704 -18.661  -1.181  0.00  0.00     0.133 C 
ENDBRANCH  12  15
ENDBRANCH   9  11
ENDBRANCH   7   9
ENDBRANCH   2   7
BRANCH   1  21
ATOM     21  C   UNL d   1      25.163 -14.376  -3.718  0.00  0.00     0.296 C 
ATOM     22  O   UNL d   1      24.137 -13.785  -3.980  0.00  0.00    -0.259 OA
BRANCH  21  23
ATOM     23  O   UNL d   1      25.736 -15.117  -4.704  0.00  0.00    -0.318 OA
BRANCH  23  24
ATOM     24  C   UNL d   1      27.101 -15.481  -4.957  0.00  0.00     0.174 C 
ATOM     25  C   UNL d   1      27.860 -14.209  -4.778  0.00  0.00     0.034 C 
ENDBRANCH  23  24
ENDBRANCH  21  23
ENDBRANCH   1  21
BRANCH   4  26
ATOM     26  C   UNL d   1      27.264 -12.248   0.376  0.00  0.00     0.263 C 
ATOM     27  O   UNL d   1      28.342 -11.780   0.003  0.00  0.00    -0.267 OA
ATOM     28  N   UNL d   1      26.716 -11.755   1.564  0.00  0.00    -0.322 N 
ATOM     29  H   UNL d   1      26.164 -12.400   2.106  0.00  0.00     0.169 HD
BRANCH  28  30
ATOM     30  C   UNL d   1      27.340 -10.650   2.249  0.00  0.00     0.041 A 
ATOM     31  C   UNL d   1      27.079  -9.337   1.819  0.00  0.00     0.030 A 
ATOM     32  C   UNL d   1      27.669  -8.233   2.458  0.00  0.00     0.002 A 
ATOM     33  C   UNL d   1      28.549  -8.421   3.520  0.00  0.00     0.001 A 
ATOM     34  C   UNL d   1      28.834  -9.713   3.947  0.00  0.00     0.009 A 
ATOM     35  C   UNL d   1      28.243 -10.835   3.327  0.00  0.00    -0.035 A 
ATOM     36  C   UNL d   1      28.688 -12.194   3.801  0.00  0.00     0.050 C 
ENDBRANCH  28  30
ENDBRANCH   4  26
TORSDOF 9
ENDMDL
MODEL 3
REMARK VINA RESULT:   -31.960      2.747      4.033
REMARK INTER + INTRA:         -36.713
REMARK INTER:                 -34.645
REMARK INTRA:                  -2.068
REMARK CONF_INDEPENDENT:        2.685
REMARK UNBOUND:                -2.068
REMARK  9 active torsions:
REMARK  status: ('A' for Active; 'I' for Inactive)
REMARK    1  A    between atoms: C_2  and  O_3 
REMARK    2  A    between atoms: O_3  and  C_4 
REMARK    3  A    between atoms: C_4  and  C_6 
REMARK    4  A    between atoms: C_7  and  N_8 
REMARK    5  A    between atoms: N_8  and  C_9 
REMARK    6  A    between atoms: C_9  and  N_11 
REMARK       I    between atoms: N_11  and  C_12 
REMARK    7  A    between atoms: C_12  and  C_14 
REMARK    8  A    between atoms: C_21  and  C_22 
REMARK       I    between atoms: C_22  and  N_24 
REMARK    9  A    between atoms: N_24  and  C_25 
ROOT
ATOM      1  C   UNL d   1      27.643 -15.719  -1.538  0.00  0.00     0.080 C 
ATOM      2  C   UNL d   1      26.291 -16.047  -1.600  0.00  0.00     0.094 C 
ATOM      3  S   UNL d   1      25.773 -15.920  -3.280  0.00  0.00    -0.065 SA
ATOM      4  C   UNL d   1      27.208 -15.094  -3.817  0.00  0.00     0.082 C 
ATOM      5  C   UNL d   1      28.130 -15.063  -2.770  0.00  0.00    -0.020 C 
ATOM      6  C   UNL d   1      29.520 -14.442  -2.831  0.00  0.00     0.051 C 
ENDROOT
BRANCH   2   7
ATOM      7  N   UNL d   1      25.339 -16.561  -0.616  0.00  0.00    -0.326 N 
ATOM      8  H   UNL d   1      24.663 -15.877  -0.295  0.00  0.00     0.169 HD
BRANCH   7   9
ATOM      9  C   UNL d   1      25.392 -17.880  -0.012  0.00  0.00     0.179 C 
ATOM     10  S   UNL d   1      26.844 -18.636   0.398  0.00  0.00    -0.040 SA
BRANCH   9  11
ATOM     11  N   UNL d   1      24.100 -18.560   0.165  0.00  0.00    -0.299 N 
ATOM     12  C   UNL d   1      22.780 -17.978  -0.065  0.00  0.00     0.259 C 
ATOM     13  O   UNL d   1      22.575 -16.776  -0.274  0.00  0.00    -0.267 OA
ATOM     14  H   UNL d   1      24.094 -19.488   0.560  0.00  0.00     0.171 HD
BRANCH  12  15
ATOM     15  C   UNL d   1      21.493 -18.697   0.067  0.00  0.00     0.050 C 
ATOM     16  C   UNL d   1      20.947 -19.312   1.188  0.00  0.00     0.020 C 
ATOM     17  C   UNL d   1      19.753 -20.034   1.025  0.00  0.00     0.020 C 
ATOM     18  C   UNL d   1      19.124 -20.043  -0.218  0.00  0.00     0.116 C 
ATOM     19  N   UNL d   1      19.545 -19.325  -1.270  0.00  0.00    -0.272 NA
ATOM     20  C   UNL d   1      20.701 -18.653  -1.094  0.00  0.00     0.133 C 
ENDBRANCH  12  15
ENDBRANCH   9  11
ENDBRANCH   7   9
ENDBRANCH   2   7
BRANCH   1  21
ATOM     21  C   UNL d   1      28.584 -15.900  -0.418  0.00  0.00     0.296 C 
ATOM     22  O   UNL d   1      29.346 -16.843  -0.373  0.00  0.00    -0.259 OA
BRANCH  21  23
ATOM     23  O   UNL d   1      28.511 -15.092   0.673  0.00  0.00    -0.318 OA
BRANCH  23  24
ATOM     24  C   UNL d   1      27.435 -14.795   1.574  0.00  0.00     0.174 C 
ATOM     25  C   UNL d   1      27.202 -13.331   1.399  0.00  0.00     0.034 C 
ENDBRANCH  23  24
ENDBRANCH  21  23
ENDBRANCH   1  21
BRANCH   4  26
ATOM     26  C   UNL d   1      27.471 -14.470  -5.153  0.00  0.00     0.263 C 
ATOM     27  O   UNL d   1      27.352 -15.145  -6.177  0.00  0.00    -0.267 OA
ATOM     28  N   UNL d   1      27.897 -13.146  -5.291  0.00  0.00    -0.322 N 
ATOM     29  H   UNL d   1      28.440 -12.767  -4.532  0.00  0.00     0.169 HD
BRANCH  28  30
ATOM     30  C   UNL d   1      28.067 -12.570  -6.603  0.00  0.00     0.041 A 
ATOM     31  C   UNL d   1      27.124 -11.639  -7.071  0.00  0.00     0.030 A 
ATOM     32  C   UNL d   1      27.251 -11.055  -8.344  0.00  0.00     0.002 A 
ATOM     33  C   UNL d   1      28.306 -11.410  -9.180  0.00  0.00     0.001 A 
ATOM     34  C   UNL d   1      29.238 -12.344  -8.741  0.00  0.00     0.009 A 
ATOM     35  C   UNL d   1      29.135 -12.933  -7.461  0.00  0.00    -0.035 A 
ATOM     36  C   UNL d   1      30.139 -14.001  -7.116  0.00  0.00     0.050 C 
ENDBRANCH  28  30
ENDBRANCH   4  26
TORSDOF 9
ENDMDL
MODEL 4
REMARK VINA RESULT:   -31.667      2.447      5.877
REMARK INTER + INTRA:         -36.215
REMARK INTER:                 -34.352
REMARK INTRA:                  -1.864
REMARK CONF_INDEPENDENT:        2.685
REMARK UNBOUND:                -1.864
REMARK  9 active torsions:
REMARK  status: ('A' for Active; 'I' for Inactive)
REMARK    1  A    between atoms: C_2  and  O_3 
REMARK    2  A    between atoms: O_3  and  C_4 
REMARK    3  A    between atoms: C_4  and  C_6 
REMARK    4  A    between atoms: C_7  and  N_8 
REMARK    5  A    between atoms: N_8  and  C_9 
REMARK    6  A    between atoms: C_9  and  N_11 
REMARK       I    between atoms: N_11  and  C_12 
REMARK    7  A    between atoms: C_12  and  C_14 
REMARK    8  A    between atoms: C_21  and  C_22 
REMARK       I    between atoms: C_22  and  N_24 
REMARK    9  A    between atoms: N_24  and  C_25 
ROOT
ATOM      1  C   UNL d   1      27.675 -15.543  -2.722  0.00  0.00     0.080 C 
ATOM      2  C   UNL d   1      26.340 -15.890  -2.522  0.00  0.00     0.094 C 
ATOM      3  S   UNL d   1      25.335 -14.648  -3.266  0.00  0.00    -0.065 SA
ATOM      4  C   UNL d   1      26.639 -13.519  -3.498  0.00  0.00     0.082 C 
ATOM      5  C   UNL d   1      27.842 -14.143  -3.166  0.00  0.00    -0.020 C 
ATOM      6  C   UNL d   1      29.223 -13.504  -3.242  0.00  0.00     0.051 C 
ENDROOT
BRANCH   2   7
ATOM      7  N   UNL d   1      25.686 -17.073  -1.964  0.00  0.00    -0.326 N 
ATOM      8  H   UNL d   1      25.248 -17.671  -2.656  0.00  0.00     0.169 HD
BRANCH   7   9
ATOM      9  C   UNL d   1      25.526 -17.350  -0.548  0.00  0.00     0.179 C 
ATOM     10  S   UNL d   1      26.829 -17.395   0.524  0.00  0.00    -0.040 SA
BRANCH   9  11
ATOM     11  N   UNL d   1      24.160 -17.662  -0.103  0.00  0.00    -0.299 N 
ATOM     12  C   UNL d   1      23.177 -18.462  -0.830  0.00  0.00     0.259 C 
ATOM     13  O   UNL d   1      23.313 -18.840  -1.999  0.00  0.00    -0.267 OA
ATOM     14  H   UNL d   1      23.815 -17.225   0.738  0.00  0.00     0.171 HD
BRANCH  12  15
ATOM     15  C   UNL d   1      21.824 -18.809  -0.339  0.00  0.00     0.050 C 
ATOM     16  C   UNL d   1      21.380 -18.954   0.970  0.00  0.00     0.020 C 
ATOM     17  C   UNL d   1      20.066 -19.405   1.173  0.00  0.00     0.020 C 
ATOM     18  C   UNL d   1      19.238 -19.613   0.072  0.00  0.00     0.116 C 
ATOM     19  N   UNL d   1      19.591 -19.325  -1.190  0.00  0.00    -0.272 NA
ATOM     20  C   UNL d   1      20.862 -18.908  -1.360  0.00  0.00     0.133 C 
ENDBRANCH  12  15
ENDBRANCH   9  11
ENDBRANCH   7   9
ENDBRANCH   2   7
BRANCH   1  21
ATOM     21  C   UNL d   1      28.881 -16.361  -2.503  0.00  0.00     0.296 C 
ATOM     22  O   UNL d   1      29.082 -16.932  -1.451  0.00  0.00    -0.259 OA
BRANCH  21  23
ATOM     23  O   UNL d   1      29.879 -16.369  -3.427  0.00  0.00    -0.318 OA
BRANCH  23  24
ATOM     24  C   UNL d   1      30.065 -17.133  -4.627  0.00  0.00     0.174 C 
ATOM     25  C   UNL d   1      29.669 -16.200  -5.722  0.00  0.00     0.034 C 
ENDBRANCH  23  24
ENDBRANCH  21  23
ENDBRANCH   1  21
BRANCH   4  26
ATOM     26  C   UNL d   1      26.559 -12.093  -3.950  0.00  0.00     0.263 C 
ATOM     27  O   UNL d   1      27.285 -11.245  -3.430  0.00  0.00    -0.267 OA
ATOM     28  N   UNL d   1      25.648 -11.665  -4.920  0.00  0.00    -0.322 N 
ATOM     29  H   UNL d   1      24.784 -12.180  -4.984  0.00  0.00     0.169 HD
BRANCH  28  30
ATOM     30  C   UNL d   1      25.659 -10.295  -5.373  0.00  0.00     0.041 A 
ATOM     31  C   UNL d   1      25.142  -9.290  -4.537  0.00  0.00     0.030 A 
ATOM     32  C   UNL d   1      25.132  -7.944  -4.942  0.00  0.00     0.002 A 
ATOM     33  C   UNL d   1      25.613  -7.582  -6.197  0.00  0.00     0.001 A 
ATOM     34  C   UNL d   1      26.110  -8.565  -7.046  0.00  0.00     0.009 A 
ATOM     35  C   UNL d   1      26.141  -9.922  -6.653  0.00  0.00    -0.035 A 
ATOM     36  C   UNL d   1      26.611 -10.921  -7.678  0.00  0.00     0.050 C 
ENDBRANCH  28  30
ENDBRANCH   4  26
TORSDOF 9
ENDMDL
MODEL 5
REMARK VINA RESULT:   -31.616      4.111      5.511
REMARK INTER + INTRA:         -35.957
REMARK INTER:                 -34.301
REMARK INTRA:                  -1.657
REMARK CONF_INDEPENDENT:        2.685
REMARK UNBOUND:                -1.657
REMARK  9 active torsions:
REMARK  status: ('A' for Active; 'I' for Inactive)
REMARK    1  A    between atoms: C_2  and  O_3 
REMARK    2  A    between atoms: O_3  and  C_4 
REMARK    3  A    between atoms: C_4  and  C_6 
REMARK    4  A    between atoms: C_7  and  N_8 
REMARK    5  A    between atoms: N_8  and  C_9 
REMARK    6  A    between atoms: C_9  and  N_11 
REMARK       I    between atoms: N_11  and  C_12 
REMARK    7  A    between atoms: C_12  and  C_14 
REMARK    8  A    between atoms: C_21  and  C_22 
REMARK       I    between atoms: C_22  and  N_24 
REMARK    9  A    between atoms: N_24  and  C_25 
ROOT
ATOM      1  C   UNL d   1      26.616 -14.408  -1.594  0.00  0.00     0.080 C 
ATOM      2  C   UNL d   1      26.105 -15.466  -2.341  0.00  0.00     0.094 C 
ATOM      3  S   UNL d   1      26.338 -15.094  -4.048  0.00  0.00    -0.065 SA
ATOM      4  C   UNL d   1      26.752 -13.424  -3.782  0.00  0.00     0.082 C 
ATOM      5  C   UNL d   1      26.870 -13.201  -2.409  0.00  0.00    -0.020 C 
ATOM      6  C   UNL d   1      27.232 -11.874  -1.755  0.00  0.00     0.051 C 
ENDROOT
BRANCH   2   7
ATOM      7  N   UNL d   1      25.573 -16.781  -1.982  0.00  0.00    -0.326 N 
ATOM      8  H   UNL d   1      25.180 -17.296  -2.761  0.00  0.00     0.169 HD
BRANCH   7   9
ATOM      9  C   UNL d   1      25.465 -17.298  -0.630  0.00  0.00     0.179 C 
ATOM     10  S   UNL d   1      26.813 -17.599   0.340  0.00  0.00    -0.040 SA
BRANCH   9  11
ATOM     11  N   UNL d   1      24.105 -17.613  -0.167  0.00  0.00    -0.299 N 
ATOM     12  C   UNL d   1      23.132 -18.455  -0.860  0.00  0.00     0.259 C 
ATOM     13  O   UNL d   1      23.269 -18.872  -2.016  0.00  0.00    -0.267 OA
ATOM     14  H   UNL d   1      23.758 -17.152   0.659  0.00  0.00     0.171 HD
BRANCH  12  15
ATOM     15  C   UNL d   1      21.787 -18.804  -0.351  0.00  0.00     0.050 C 
ATOM     16  C   UNL d   1      21.361 -18.950   0.964  0.00  0.00     0.020 C 
ATOM     17  C   UNL d   1      20.050 -19.403   1.184  0.00  0.00     0.020 C 
ATOM     18  C   UNL d   1      19.208 -19.613   0.095  0.00  0.00     0.116 C 
ATOM     19  N   UNL d   1      19.543 -19.325  -1.172  0.00  0.00    -0.272 NA
ATOM     20  C   UNL d   1      20.812 -18.905  -1.359  0.00  0.00     0.133 C 
ENDBRANCH  12  15
ENDBRANCH   9  11
ENDBRANCH   7   9
ENDBRANCH   2   7
BRANCH   1  21
ATOM     21  C   UNL d   1      26.872 -14.343  -0.143  0.00  0.00     0.296 C 
ATOM     22  O   UNL d   1      25.969 -14.214   0.657  0.00  0.00    -0.259 OA
BRANCH  21  23
ATOM     23  O   UNL d   1      28.147 -14.273   0.323  0.00  0.00    -0.318 OA
BRANCH  23  24
ATOM     24  C   UNL d   1      28.942 -15.198   1.079  0.00  0.00     0.174 C 
ATOM     25  C   UNL d   1      30.282 -15.153   0.424  0.00  0.00     0.034 C 
ENDBRANCH  23  24
ENDBRANCH  21  23
ENDBRANCH   1  21
BRANCH   4  26
ATOM     26  C   UNL d   1      26.940 -12.344  -4.802  0.00  0.00     0.263 C 
ATOM     27  O   UNL d   1      28.078 -12.016  -5.143  0.00  0.00    -0.267 OA
ATOM     28  N   UNL d   1      25.866 -11.647  -5.361  0.00  0.00    -0.322 N 
ATOM     29  H   UNL d   1      25.045 -11.549  -4.786  0.00  0.00     0.169 HD
BRANCH  28  30
ATOM     30  C   UNL d   1      26.094 -10.665  -6.394  0.00  0.00     0.041 A 
ATOM     31  C   UNL d   1      26.621 -11.078  -7.630  0.00  0.00     0.030 A 
ATOM     32  C   UNL d   1      26.860 -10.153  -8.662  0.00  0.00     0.002 A 
ATOM     33  C   UNL d   1      26.603  -8.799  -8.468  0.00  0.00     0.001 A 
ATOM     34  C   UNL d   1      26.100  -8.370  -7.245  0.00  0.00     0.009 A 
ATOM     35  C   UNL d   1      25.841  -9.284  -6.200  0.00  0.00    -0.035 A 
ATOM     36  C   UNL d   1      25.387  -8.709  -4.884  0.00  0.00     0.050 C 
ENDBRANCH  28  30
ENDBRANCH   4  26
TORSDOF 9
ENDMDL
MODEL 6
REMARK VINA RESULT:   -31.506      3.299      5.901
REMARK INTER + INTRA:         -36.005
REMARK INTER:                 -34.190
REMARK INTRA:                  -1.815
REMARK CONF_INDEPENDENT:        2.685
REMARK UNBOUND:                -1.815
REMARK  9 active torsions:
REMARK  status: ('A' for Active; 'I' for Inactive)
REMARK    1  A    between atoms: C_2  and  O_3 
REMARK    2  A    between atoms: O_3  and  C_4 
REMARK    3  A    between atoms: C_4  and  C_6 
REMARK    4  A    between atoms: C_7  and  N_8 
REMARK    5  A    between atoms: N_8  and  C_9 
REMARK    6  A    between atoms: C_9  and  N_11 
REMARK       I    between atoms: N_11  and  C_12 
REMARK    7  A    between atoms: C_12  and  C_14 
REMARK    8  A    between atoms: C_21  and  C_22 
REMARK       I    between atoms: C_22  and  N_24 
REMARK    9  A    between atoms: N_24  and  C_25 
ROOT
ATOM      1  C   UNL d   1      27.633 -15.559  -2.780  0.00  0.00     0.080 C 
ATOM      2  C   UNL d   1      26.282 -15.829  -2.576  0.00  0.00     0.094 C 
ATOM      3  S   UNL d   1      25.345 -14.575  -3.387  0.00  0.00    -0.065 SA
ATOM      4  C   UNL d   1      26.706 -13.525  -3.660  0.00  0.00     0.082 C 
ATOM      5  C   UNL d   1      27.874 -14.192  -3.288  0.00  0.00    -0.020 C 
ATOM      6  C   UNL d   1      29.285 -13.627  -3.383  0.00  0.00     0.051 C 
ENDROOT
BRANCH   2   7
ATOM      7  N   UNL d   1      25.565 -16.950  -1.969  0.00  0.00    -0.326 N 
ATOM      8  H   UNL d   1      25.103 -17.558  -2.636  0.00  0.00     0.169 HD
BRANCH   7   9
ATOM      9  C   UNL d   1      25.381 -17.151  -0.543  0.00  0.00     0.179 C 
ATOM     10  S   UNL d   1      26.657 -17.074   0.559  0.00  0.00    -0.040 SA
BRANCH   9  11
ATOM     11  N   UNL d   1      24.019 -17.498  -0.112  0.00  0.00    -0.299 N 
ATOM     12  C   UNL d   1      23.106 -18.414  -0.790  0.00  0.00     0.259 C 
ATOM     13  O   UNL d   1      23.302 -18.887  -1.916  0.00  0.00    -0.267 OA
ATOM     14  H   UNL d   1      23.623 -17.008   0.676  0.00  0.00     0.171 HD
BRANCH  12  15
ATOM     15  C   UNL d   1      21.757 -18.791  -0.310  0.00  0.00     0.050 C 
ATOM     16  C   UNL d   1      21.313 -18.969   0.995  0.00  0.00     0.020 C 
ATOM     17  C   UNL d   1      20.005 -19.444   1.185  0.00  0.00     0.020 C 
ATOM     18  C   UNL d   1      19.183 -19.643   0.078  0.00  0.00     0.116 C 
ATOM     19  N   UNL d   1      19.535 -19.325  -1.177  0.00  0.00    -0.272 NA
ATOM     20  C   UNL d   1      20.800 -18.885  -1.335  0.00  0.00     0.133 C 
ENDBRANCH  12  15
ENDBRANCH   9  11
ENDBRANCH   7   9
ENDBRANCH   2   7
BRANCH   1  21
ATOM     21  C   UNL d   1      28.796 -16.425  -2.513  0.00  0.00     0.296 C 
ATOM     22  O   UNL d   1      29.471 -16.881  -3.411  0.00  0.00    -0.259 OA
BRANCH  21  23
ATOM     23  O   UNL d   1      29.047 -16.861  -1.249  0.00  0.00    -0.318 OA
BRANCH  23  24
ATOM     24  C   UNL d   1      30.082 -16.533  -0.311  0.00  0.00     0.174 C 
ATOM     25  C   UNL d   1      31.253 -17.342  -0.758  0.00  0.00     0.034 C 
ENDBRANCH  23  24
ENDBRANCH  21  23
ENDBRANCH   1  21
BRANCH   4  26
ATOM     26  C   UNL d   1      26.700 -12.120  -4.179  0.00  0.00     0.263 C 
ATOM     27  O   UNL d   1      27.729 -11.443  -4.124  0.00  0.00    -0.267 OA
ATOM     28  N   UNL d   1      25.549 -11.515  -4.691  0.00  0.00    -0.322 N 
ATOM     29  H   UNL d   1      24.670 -11.832  -4.315  0.00  0.00     0.169 HD
BRANCH  28  30
ATOM     30  C   UNL d   1      25.612 -10.185  -5.246  0.00  0.00     0.041 A 
ATOM     31  C   UNL d   1      25.041  -9.115  -4.534  0.00  0.00     0.030 A 
ATOM     32  C   UNL d   1      25.079  -7.804  -5.041  0.00  0.00     0.002 A 
ATOM     33  C   UNL d   1      25.663  -7.543  -6.276  0.00  0.00     0.001 A 
ATOM     34  C   UNL d   1      26.216  -8.591  -7.003  0.00  0.00     0.009 A 
ATOM     35  C   UNL d   1      26.200  -9.914  -6.507  0.00  0.00    -0.035 A 
ATOM     36  C   UNL d   1      26.740 -10.991  -7.410  0.00  0.00     0.050 C 
ENDBRANCH  28  30
ENDBRANCH   4  26
TORSDOF 9
ENDMDL
MODEL 7
REMARK VINA RESULT:   -31.165      4.698      7.764
REMARK INTER + INTRA:         -35.679
REMARK INTER:                 -33.850
REMARK INTRA:                  -1.829
REMARK CONF_INDEPENDENT:        2.685
REMARK UNBOUND:                -1.829
REMARK  9 active torsions:
REMARK  status: ('A' for Active; 'I' for Inactive)
REMARK    1  A    between atoms: C_2  and  O_3 
REMARK    2  A    between atoms: O_3  and  C_4 
REMARK    3  A    between atoms: C_4  and  C_6 
REMARK    4  A    between atoms: C_7  and  N_8 
REMARK    5  A    between atoms: N_8  and  C_9 
REMARK    6  A    between atoms: C_9  and  N_11 
REMARK       I    between atoms: N_11  and  C_12 
REMARK    7  A    between atoms: C_12  and  C_14 
REMARK    8  A    between atoms: C_21  and  C_22 
REMARK       I    between atoms: C_22  and  N_24 
REMARK    9  A    between atoms: N_24  and  C_25 
ROOT
ATOM      1  C   UNL d   1      28.128 -16.207  -0.558  0.00  0.00     0.080 C 
ATOM      2  C   UNL d   1      26.738 -16.111  -0.543  0.00  0.00     0.094 C 
ATOM      3  S   UNL d   1      26.291 -14.814   0.562  0.00  0.00    -0.065 SA
ATOM      4  C   UNL d   1      27.877 -14.663   1.265  0.00  0.00     0.082 C 
ATOM      5  C   UNL d   1      28.764 -15.472   0.555  0.00  0.00    -0.020 C 
ATOM      6  C   UNL d   1      30.254 -15.616   0.841  0.00  0.00     0.051 C 
ENDROOT
BRANCH   2   7
ATOM      7  N   UNL d   1      25.681 -16.759  -1.320  0.00  0.00    -0.326 N 
ATOM      8  H   UNL d   1      25.900 -17.706  -1.609  0.00  0.00     0.169 HD
BRANCH   7   9
ATOM      9  C   UNL d   1      24.468 -16.111  -1.784  0.00  0.00     0.179 C 
ATOM     10  S   UNL d   1      24.487 -14.711  -2.726  0.00  0.00    -0.040 SA
BRANCH   9  11
ATOM     11  N   UNL d   1      23.204 -16.707  -1.327  0.00  0.00    -0.299 N 
ATOM     12  C   UNL d   1      23.031 -18.055  -0.789  0.00  0.00     0.259 C 
ATOM     13  O   UNL d   1      23.903 -18.931  -0.810  0.00  0.00    -0.267 OA
ATOM     14  H   UNL d   1      22.349 -16.190  -1.465  0.00  0.00     0.171 HD
BRANCH  12  15
ATOM     15  C   UNL d   1      21.758 -18.618  -0.285  0.00  0.00     0.050 C 
ATOM     16  C   UNL d   1      21.405 -18.950   1.018  0.00  0.00     0.020 C 
ATOM     17  C   UNL d   1      20.168 -19.582   1.223  0.00  0.00     0.020 C 
ATOM     18  C   UNL d   1      19.315 -19.781   0.141  0.00  0.00     0.116 C 
ATOM     19  N   UNL d   1      19.563 -19.325  -1.096  0.00  0.00    -0.272 NA
ATOM     20  C   UNL d   1      20.763 -18.735  -1.271  0.00  0.00     0.133 C 
ENDBRANCH  12  15
ENDBRANCH   9  11
ENDBRANCH   7   9
ENDBRANCH   2   7
BRANCH   1  21
ATOM     21  C   UNL d   1      28.989 -16.964  -1.485  0.00  0.00     0.296 C 
ATOM     22  O   UNL d   1      29.879 -17.684  -1.084  0.00  0.00    -0.259 OA
BRANCH  21  23
ATOM     23  O   UNL d   1      28.903 -16.751  -2.826  0.00  0.00    -0.318 OA
BRANCH  23  24
ATOM     24  C   UNL d   1      28.493 -15.607  -3.589  0.00  0.00     0.174 C 
ATOM     25  C   UNL d   1      29.422 -14.523  -3.153  0.00  0.00     0.034 C 
ENDBRANCH  23  24
ENDBRANCH  21  23
ENDBRANCH   1  21
BRANCH   4  26
ATOM     26  C   UNL d   1      28.289 -13.844   2.449  0.00  0.00     0.263 C 
ATOM     27  O   UNL d   1      28.237 -12.614   2.390  0.00  0.00    -0.267 OA
ATOM     28  N   UNL d   1      28.784 -14.419   3.622  0.00  0.00    -0.322 N 
ATOM     29  H   UNL d   1      29.270 -15.296   3.523  0.00  0.00     0.169 HD
BRANCH  28  30
ATOM     30  C   UNL d   1      29.099 -13.592   4.762  0.00  0.00     0.041 A 
ATOM     31  C   UNL d   1      28.160 -13.463   5.799  0.00  0.00     0.030 A 
ATOM     32  C   UNL d   1      28.427 -12.665   6.925  0.00  0.00     0.002 A 
ATOM     33  C   UNL d   1      29.624 -11.962   7.023  0.00  0.00     0.001 A 
ATOM     34  C   UNL d   1      30.558 -12.062   5.997  0.00  0.00     0.009 A 
ATOM     35  C   UNL d   1      30.315 -12.868   4.863  0.00  0.00    -0.035 A 
ATOM     36  C   UNL d   1      31.345 -12.836   3.765  0.00  0.00     0.050 C 
ENDBRANCH  28  30
ENDBRANCH   4  26
TORSDOF 9
ENDMDL
MODEL 8
REMARK VINA RESULT:   -30.959      2.584      2.920
REMARK INTER + INTRA:         -35.619
REMARK INTER:                 -33.644
REMARK INTRA:                  -1.975
REMARK CONF_INDEPENDENT:        2.685
REMARK UNBOUND:                -1.975
REMARK  9 active torsions:
REMARK  status: ('A' for Active; 'I' for Inactive)
REMARK    1  A    between atoms: C_2  and  O_3 
REMARK    2  A    between atoms: O_3  and  C_4 
REMARK    3  A    between atoms: C_4  and  C_6 
REMARK    4  A    between atoms: C_7  and  N_8 
REMARK    5  A    between atoms: N_8  and  C_9 
REMARK    6  A    between atoms: C_9  and  N_11 
REMARK       I    between atoms: N_11  and  C_12 
REMARK    7  A    between atoms: C_12  and  C_14 
REMARK    8  A    between atoms: C_21  and  C_22 
REMARK       I    between atoms: C_22  and  N_24 
REMARK    9  A    between atoms: N_24  and  C_25 
ROOT
ATOM      1  C   UNL d   1      26.702 -15.617  -3.228  0.00  0.00     0.080 C 
ATOM      2  C   UNL d   1      26.663 -16.061  -1.908  0.00  0.00     0.094 C 
ATOM      3  S   UNL d   1      28.286 -15.920  -1.235  0.00  0.00    -0.065 SA
ATOM      4  C   UNL d   1      29.061 -15.643  -2.770  0.00  0.00     0.082 C 
ATOM      5  C   UNL d   1      28.080 -15.497  -3.751  0.00  0.00    -0.020 C 
ATOM      6  C   UNL d   1      28.338 -15.228  -5.228  0.00  0.00     0.051 C 
ENDROOT
BRANCH   2   7
ATOM      7  N   UNL d   1      25.574 -16.464  -1.020  0.00  0.00    -0.326 N 
ATOM      8  H   UNL d   1      24.795 -15.816  -0.997  0.00  0.00     0.169 HD
BRANCH   7   9
ATOM      9  C   UNL d   1      25.606 -17.605  -0.122  0.00  0.00     0.179 C 
ATOM     10  S   UNL d   1      27.045 -18.257   0.470  0.00  0.00    -0.040 SA
BRANCH   9  11
ATOM     11  N   UNL d   1      24.305 -18.213   0.193  0.00  0.00    -0.299 N 
ATOM     12  C   UNL d   1      23.022 -17.870  -0.415  0.00  0.00     0.259 C 
ATOM     13  O   UNL d   1      22.840 -16.897  -1.157  0.00  0.00    -0.267 OA
ATOM     14  H   UNL d   1      24.252 -18.871   0.956  0.00  0.00     0.171 HD
BRANCH  12  15
ATOM     15  C   UNL d   1      21.731 -18.532  -0.121  0.00  0.00     0.050 C 
ATOM     16  C   UNL d   1      21.223 -18.951   1.103  0.00  0.00     0.020 C 
ATOM     17  C   UNL d   1      20.013 -19.665   1.103  0.00  0.00     0.020 C 
ATOM     18  C   UNL d   1      19.333 -19.857  -0.097  0.00  0.00     0.116 C 
ATOM     19  N   UNL d   1      19.720 -19.323  -1.265  0.00  0.00    -0.272 NA
ATOM     20  C   UNL d   1      20.892 -18.656  -1.243  0.00  0.00     0.133 C 
ENDBRANCH  12  15
ENDBRANCH   9  11
ENDBRANCH   7   9
ENDBRANCH   2   7
BRANCH   1  21
ATOM     21  C   UNL d   1      25.577 -15.317  -4.133  0.00  0.00     0.296 C 
ATOM     22  O   UNL d   1      25.390 -15.953  -5.149  0.00  0.00    -0.259 OA
BRANCH  21  23
ATOM     23  O   UNL d   1      24.809 -14.214  -3.925  0.00  0.00    -0.318 OA
BRANCH  23  24
ATOM     24  C   UNL d   1      25.147 -12.866  -3.570  0.00  0.00     0.174 C 
ATOM     25  C   UNL d   1      25.791 -12.312  -4.797  0.00  0.00     0.034 C 
ENDBRANCH  23  24
ENDBRANCH  21  23
ENDBRANCH   1  21
BRANCH   4  26
ATOM     26  C   UNL d   1      30.527 -15.584  -3.068  0.00  0.00     0.263 C 
ATOM     27  O   UNL d   1      30.999 -16.293  -3.959  0.00  0.00    -0.267 OA
ATOM     28  N   UNL d   1      31.409 -14.784  -2.337  0.00  0.00    -0.322 N 
ATOM     29  H   UNL d   1      31.164 -14.605  -1.377  0.00  0.00     0.169 HD
BRANCH  28  30
ATOM     30  C   UNL d   1      32.801 -14.707  -2.710  0.00  0.00     0.041 A 
ATOM     31  C   UNL d   1      33.243 -13.631  -3.500  0.00  0.00     0.030 A 
ATOM     32  C   UNL d   1      34.590 -13.520  -3.886  0.00  0.00     0.002 A 
ATOM     33  C   UNL d   1      35.512 -14.494  -3.515  0.00  0.00     0.001 A 
ATOM     34  C   UNL d   1      35.089 -15.576  -2.750  0.00  0.00     0.009 A 
ATOM     35  C   UNL d   1      33.743 -15.699  -2.340  0.00  0.00    -0.035 A 
ATOM     36  C   UNL d   1      33.366 -16.953  -1.596  0.00  0.00     0.050 C 
ENDBRANCH  28  30
ENDBRANCH   4  26
TORSDOF 9
ENDMDL
MODEL 9
REMARK VINA RESULT:   -30.798      3.720      4.614
REMARK INTER + INTRA:         -35.470
REMARK INTER:                 -33.482
REMARK INTRA:                  -1.987
REMARK CONF_INDEPENDENT:        2.685
REMARK UNBOUND:                -1.987
REMARK  9 active torsions:
REMARK  status: ('A' for Active; 'I' for Inactive)
REMARK    1  A    between atoms: C_2  and  O_3 
REMARK    2  A    between atoms: O_3  and  C_4 
REMARK    3  A    between atoms: C_4  and  C_6 
REMARK    4  A    between atoms: C_7  and  N_8 
REMARK    5  A    between atoms: N_8  and  C_9 
REMARK    6  A    between atoms: C_9  and  N_11 
REMARK       I    between atoms: N_11  and  C_12 
REMARK    7  A    between atoms: C_12  and  C_14 
REMARK    8  A    between atoms: C_21  and  C_22 
REMARK       I    between atoms: C_22  and  N_24 
REMARK    9  A    between atoms: N_24  and  C_25 
ROOT
ATOM      1  C   UNL d   1      27.278 -15.533  -2.743  0.00  0.00     0.080 C 
ATOM      2  C   UNL d   1      26.856 -16.039  -1.515  0.00  0.00     0.094 C 
ATOM      3  S   UNL d   1      28.020 -15.540  -0.289  0.00  0.00    -0.065 SA
ATOM      4  C   UNL d   1      29.220 -15.006  -1.431  0.00  0.00     0.082 C 
ATOM      5  C   UNL d   1      28.676 -15.054  -2.715  0.00  0.00    -0.020 C 
ATOM      6  C   UNL d   1      29.395 -14.657  -3.997  0.00  0.00     0.051 C 
ENDROOT
BRANCH   2   7
ATOM      7  N   UNL d   1      25.647 -16.740  -1.083  0.00  0.00    -0.326 N 
ATOM      8  H   UNL d   1      24.787 -16.354  -1.457  0.00  0.00     0.169 HD
BRANCH   7   9
ATOM      9  C   UNL d   1      25.606 -17.810  -0.103  0.00  0.00     0.179 C 
ATOM     10  S   UNL d   1      27.001 -18.484   0.567  0.00  0.00    -0.040 SA
BRANCH   9  11
ATOM     11  N   UNL d   1      24.272 -18.328   0.230  0.00  0.00    -0.299 N 
ATOM     12  C   UNL d   1      23.029 -18.028  -0.476  0.00  0.00     0.259 C 
ATOM     13  O   UNL d   1      22.914 -17.158  -1.347  0.00  0.00    -0.267 OA
ATOM     14  H   UNL d   1      24.163 -18.877   1.070  0.00  0.00     0.171 HD
BRANCH  12  15
ATOM     15  C   UNL d   1      21.702 -18.603  -0.157  0.00  0.00     0.050 C 
ATOM     16  C   UNL d   1      21.178 -18.956   1.081  0.00  0.00     0.020 C 
ATOM     17  C   UNL d   1      19.928 -19.595   1.108  0.00  0.00     0.020 C 
ATOM     18  C   UNL d   1      19.230 -19.782  -0.083  0.00  0.00     0.116 C 
ATOM     19  N   UNL d   1      19.641 -19.307  -1.269  0.00  0.00    -0.272 NA
ATOM     20  C   UNL d   1      20.851 -18.710  -1.271  0.00  0.00     0.133 C 
ENDBRANCH  12  15
ENDBRANCH   9  11
ENDBRANCH   7   9
ENDBRANCH   2   7
BRANCH   1  21
ATOM     21  C   UNL d   1      26.538 -15.472  -4.016  0.00  0.00     0.296 C 
ATOM     22  O   UNL d   1      27.081 -15.691  -5.079  0.00  0.00    -0.259 OA
BRANCH  21  23
ATOM     23  O   UNL d   1      25.257 -15.014  -4.042  0.00  0.00    -0.318 OA
BRANCH  23  24
ATOM     24  C   UNL d   1      24.638 -13.870  -3.437  0.00  0.00     0.174 C 
ATOM     25  C   UNL d   1      25.217 -12.707  -4.172  0.00  0.00     0.034 C 
ENDBRANCH  23  24
ENDBRANCH  21  23
ENDBRANCH   1  21
BRANCH   4  26
ATOM     26  C   UNL d   1      30.629 -14.576  -1.158  0.00  0.00     0.263 C 
ATOM     27  O   UNL d   1      31.091 -13.592  -1.738  0.00  0.00    -0.267 OA
ATOM     28  N   UNL d   1      31.474 -15.281  -0.297  0.00  0.00    -0.322 N 
ATOM     29  H   UNL d   1      31.309 -16.272  -0.216  0.00  0.00     0.169 HD
BRANCH  28  30
ATOM     30  C   UNL d   1      32.799 -14.786  -0.011  0.00  0.00     0.041 A 
ATOM     31  C   UNL d   1      33.809 -14.928  -0.979  0.00  0.00     0.030 A 
ATOM     32  C   UNL d   1      35.113 -14.461  -0.739  0.00  0.00     0.002 A 
ATOM     33  C   UNL d   1      35.437 -13.870   0.478  0.00  0.00     0.001 A 
ATOM     34  C   UNL d   1      34.456 -13.738   1.455  0.00  0.00     0.009 A 
ATOM     35  C   UNL d   1      33.136 -14.189   1.230  0.00  0.00    -0.035 A 
ATOM     36  C   UNL d   1      32.171 -14.087   2.381  0.00  0.00     0.050 C 
ENDBRANCH  28  30
ENDBRANCH   4  26
TORSDOF 9
ENDMDL
