MODEL 1
REMARK VINA RESULT:   -34.212      0.000      0.000
REMARK INTER + INTRA:         -40.450
REMARK INTER:                 -37.493
REMARK INTRA:                  -2.957
REMARK CONF_INDEPENDENT:        3.281
REMARK UNBOUND:                -2.957
REMARK  11 active torsions:
REMARK  status: ('A' for Active; 'I' for Inactive)
REMARK    1  A    between atoms: O_2  and  C_3 
REMARK    2  A    between atoms: C_6  and  C_7 
REMARK    3  A    between atoms: C_7  and  N_8 
REMARK       I    between atoms: N_8  and  C_9 
REMARK    4  A    between atoms: C_9  and  C_11 
REMARK    5  A    between atoms: C_11  and  O_12 
REMARK    6  A    between atoms: O_12  and  C_13 
REMARK    7  A    between atoms: C_15  and  C_13 
REMARK    8  A    between atoms: C_15  and  N_26 
REMARK    9  A    between atoms: C_15  and  C_16 
REMARK   10  A    between atoms: C_16  and  C_17 
REMARK       I    between atoms: N_26  and  C_27 
REMARK   11  A    between atoms: C_27  and  C_29 
ROOT
ATOM      1  C   UNL d   1      24.305 -16.874  -0.752  0.00  0.00     0.188 C 
ENDROOT
BRANCH   1   2
ATOM      2  N   UNL d   1      25.201 -16.147  -1.849  0.00  0.00    -0.343 N 
ATOM      3  C   UNL d   1      24.782 -15.055  -2.706  0.00  0.00     0.252 C 
ATOM      4  O   UNL d   1      23.653 -14.618  -2.771  0.00  0.00    -0.268 OA
ATOM      5  H   UNL d   1      26.176 -16.381  -1.875  0.00  0.00     0.163 HD
BRANCH   3   6
ATOM      6  C   UNL d   1      25.810 -14.395  -3.637  0.00  0.00     0.032 A 
ATOM      7  C   UNL d   1      25.632 -13.083  -4.155  0.00  0.00     0.018 A 
ATOM      8  C   UNL d   1      26.454 -12.581  -5.193  0.00  0.00     0.025 A 
ATOM      9  C   UNL d   1      27.497 -13.360  -5.683  0.00  0.00     0.034 A 
ATOM     10 CL   UNL d   1      28.569 -12.734  -6.877  0.00  0.00    -0.084 Cl
ATOM     11  C   UNL d   1      27.687 -14.648  -5.183  0.00  0.00     0.025 A 
ATOM     12  C   UNL d   1      26.846 -15.160  -4.174  0.00  0.00     0.018 A 
ENDBRANCH   3   6
ENDBRANCH   1   2
BRANCH   1  13
ATOM     13  C   UNL d   1      22.887 -17.974  -1.253  0.00  0.00     0.072 C 
BRANCH  13  14
ATOM     14  C   UNL d   1      21.359 -18.570  -0.465  0.00  0.00    -0.046 C 
ATOM     15  C   UNL d   1      21.002 -19.642  -1.253  0.00  0.00     0.112 C 
ATOM     16  N   UNL d   1      19.655 -19.324  -1.269  0.00  0.00    -0.282 NA
ATOM     17  C   UNL d   1      19.236 -19.761  -0.048  0.00  0.00     0.019 A 
ATOM     18  H   UNL d   1      19.281 -18.428  -1.539  0.00  0.00     0.128 HD
ATOM     19  C   UNL d   1      18.113 -20.591   0.156  0.00  0.00     0.024 A 
ATOM     20  C   UNL d   1      20.297 -19.324   0.774  0.00  0.00    -0.011 A 
ATOM     21  C   UNL d   1      17.846 -21.219   1.340  0.00  0.00     0.002 A 
ATOM     22  C   UNL d   1      18.778 -20.969   2.327  0.00  0.00     0.001 A 
ATOM     23  C   UNL d   1      19.981 -20.009   2.118  0.00  0.00     0.013 A 
ENDBRANCH  13  14
ENDBRANCH   1  13
BRANCH   1  24
ATOM     24  C   UNL d   1      25.456 -17.818  -0.018  0.00  0.00     0.282 C 
ATOM     25  O   UNL d   1      25.325 -18.478   0.984  0.00  0.00    -0.263 OA
BRANCH  24  26
ATOM     26  O   UNL d   1      26.653 -17.789  -0.687  0.00  0.00    -0.310 OA
BRANCH  26  27
ATOM     27  C   UNL d   1      27.795 -17.304   0.078  0.00  0.00     0.281 C 
BRANCH  27  28
ATOM     28  C   UNL d   1      27.562 -15.800   0.350  0.00  0.00     0.242 C 
ATOM     29  N   UNL d   1      27.770 -15.380   1.651  0.00  0.00    -0.355 N 
ATOM     30  H   UNL d   1      28.114 -16.048   2.319  0.00  0.00     0.162 HD
ATOM     31  O   UNL d   1      27.204 -15.023  -0.524  0.00  0.00    -0.271 OA
BRANCH  29  32
ATOM     32  C   UNL d   1      27.589 -13.980   2.045  0.00  0.00     0.161 C 
BRANCH  32  33
ATOM     33  C   UNL d   1      27.932 -13.658   3.489  0.00  0.00    -0.040 A 
ATOM     34  C   UNL d   1      28.193 -14.694   4.410  0.00  0.00     0.011 A 
ATOM     35  C   UNL d   1      28.362 -14.418   5.779  0.00  0.00     0.037 A 
ATOM     36  C   UNL d   1      28.342 -13.102   6.241  0.00  0.00     0.068 A 
ATOM     37  C   UNL d   1      28.166 -12.073   5.327  0.00  0.00     0.037 A 
ATOM     38  C   UNL d   1      27.961 -12.348   3.978  0.00  0.00     0.011 A 
BRANCH  36  39
ATOM     39  O   UNL d   1      28.587 -12.888   7.570  0.00  0.00    -0.356 OA
ATOM     40  C   UNL d   1      29.038 -14.038   8.287  0.00  0.00     0.210 C 
ENDBRANCH  36  39
ENDBRANCH  32  33
ENDBRANCH  29  32
ENDBRANCH  27  28
ENDBRANCH  26  27
ENDBRANCH  24  26
ENDBRANCH   1  24
TORSDOF 11
ENDMDL
MODEL 2
REMARK VINA RESULT:   -33.412      3.517      6.163
REMARK INTER + INTRA:         -40.372
REMARK INTER:                 -36.694
REMARK INTRA:                  -3.678
REMARK CONF_INDEPENDENT:        3.281
REMARK UNBOUND:                -3.678
REMARK  11 active torsions:
REMARK  status: ('A' for Active; 'I' for Inactive)
REMARK    1  A    between atoms: O_2  and  C_3 
REMARK    2  A    between atoms: C_6  and  C_7 
REMARK    3  A    between atoms: C_7  and  N_8 
REMARK       I    between atoms: N_8  and  C_9 
REMARK    4  A    between atoms: C_9  and  C_11 
REMARK    5  A    between atoms: C_11  and  O_12 
REMARK    6  A    between atoms: O_12  and  C_13 
REMARK    7  A    between atoms: C_15  and  C_13 
REMARK    8  A    between atoms: C_15  and  N_26 
REMARK    9  A    between atoms: C_15  and  C_16 
REMARK   10  A    between atoms: C_16  and  C_17 
REMARK       I    between atoms: N_26  and  C_27 
REMARK   11  A    between atoms: C_27  and  C_29 
ROOT
ATOM      1  C   UNL d   1      24.562 -16.685  -0.709  0.00  0.00     0.188 C 
ENDROOT
BRANCH   1   2
ATOM      2  N   UNL d   1      25.643 -16.164  -1.757  0.00  0.00    -0.343 N 
ATOM      3  C   UNL d   1      25.401 -15.230  -2.840  0.00  0.00     0.252 C 
ATOM      4  O   UNL d   1      24.313 -14.800  -3.154  0.00  0.00    -0.268 OA
ATOM      5  H   UNL d   1      26.601 -16.410  -1.589  0.00  0.00     0.163 HD
BRANCH   3   6
ATOM      6  C   UNL d   1      26.584 -14.750  -3.693  0.00  0.00     0.032 A 
ATOM      7  C   UNL d   1      26.727 -15.109  -5.062  0.00  0.00     0.018 A 
ATOM      8  C   UNL d   1      27.931 -14.867  -5.767  0.00  0.00     0.025 A 
ATOM      9  C   UNL d   1      28.981 -14.213  -5.131  0.00  0.00     0.034 A 
ATOM     10 CL   UNL d   1      30.419 -13.822  -5.996  0.00  0.00    -0.084 Cl
ATOM     11  C   UNL d   1      28.856 -13.853  -3.790  0.00  0.00     0.025 A 
ATOM     12  C   UNL d   1      27.670 -14.125  -3.079  0.00  0.00     0.018 A 
ENDBRANCH   3   6
ENDBRANCH   1   2
BRANCH   1  13
ATOM     13  C   UNL d   1      23.018 -17.555  -1.282  0.00  0.00     0.072 C 
BRANCH  13  14
ATOM     14  C   UNL d   1      21.538 -18.245  -0.480  0.00  0.00    -0.046 C 
ATOM     15  C   UNL d   1      21.229 -19.325  -1.277  0.00  0.00     0.112 C 
ATOM     16  N   UNL d   1      19.866 -19.082  -1.269  0.00  0.00    -0.282 NA
ATOM     17  C   UNL d   1      19.490 -19.557  -0.048  0.00  0.00     0.019 A 
ATOM     18  H   UNL d   1      19.439 -18.205  -1.522  0.00  0.00     0.128 HD
ATOM     19  C   UNL d   1      18.418 -20.450   0.161  0.00  0.00     0.024 A 
ATOM     20  C   UNL d   1      20.538 -19.072   0.764  0.00  0.00    -0.011 A 
ATOM     21  C   UNL d   1      18.204 -21.107   1.340  0.00  0.00     0.002 A 
ATOM     22  C   UNL d   1      19.136 -20.818   2.316  0.00  0.00     0.001 A 
ATOM     23  C   UNL d   1      20.280 -19.790   2.103  0.00  0.00     0.013 A 
ENDBRANCH  13  14
ENDBRANCH   1  13
BRANCH   1  24
ATOM     24  C   UNL d   1      25.484 -17.773   0.140  0.00  0.00     0.282 C 
ATOM     25  O   UNL d   1      25.173 -18.360   1.148  0.00  0.00    -0.263 OA
BRANCH  24  26
ATOM     26  O   UNL d   1      26.714 -17.969  -0.435  0.00  0.00    -0.310 OA
BRANCH  26  27
ATOM     27  C   UNL d   1      27.853 -17.450   0.313  0.00  0.00     0.281 C 
BRANCH  27  28
ATOM     28  C   UNL d   1      28.919 -17.012  -0.717  0.00  0.00     0.242 C 
ATOM     29  N   UNL d   1      30.082 -17.759  -0.741  0.00  0.00    -0.355 N 
ATOM     30  H   UNL d   1      30.143 -18.566  -0.145  0.00  0.00     0.162 HD
ATOM     31  O   UNL d   1      28.756 -16.055  -1.462  0.00  0.00    -0.271 OA
BRANCH  29  32
ATOM     32  C   UNL d   1      31.173 -17.454  -1.671  0.00  0.00     0.161 C 
BRANCH  32  33
ATOM     33  C   UNL d   1      31.011 -18.015  -3.074  0.00  0.00    -0.040 A 
ATOM     34  C   UNL d   1      30.500 -17.208  -4.111  0.00  0.00     0.011 A 
ATOM     35  C   UNL d   1      30.204 -17.756  -5.374  0.00  0.00     0.037 A 
ATOM     36  C   UNL d   1      30.476 -19.097  -5.641  0.00  0.00     0.068 A 
ATOM     37  C   UNL d   1      31.053 -19.876  -4.648  0.00  0.00     0.037 A 
ATOM     38  C   UNL d   1      31.311 -19.344  -3.388  0.00  0.00     0.011 A 
BRANCH  36  39
ATOM     39  O   UNL d   1      30.237 -19.557  -6.907  0.00  0.00    -0.356 OA
ATOM     40  C   UNL d   1      31.103 -20.610  -7.334  0.00  0.00     0.210 C 
ENDBRANCH  36  39
ENDBRANCH  32  33
ENDBRANCH  29  32
ENDBRANCH  27  28
ENDBRANCH  26  27
ENDBRANCH  24  26
ENDBRANCH   1  24
TORSDOF 11
ENDMDL
MODEL 3
REMARK VINA RESULT:   -32.959      1.820      2.170
REMARK INTER + INTRA:         -39.608
REMARK INTER:                 -36.240
REMARK INTRA:                  -3.368
REMARK CONF_INDEPENDENT:        3.281
REMARK UNBOUND:                -3.368
REMARK  11 active torsions:
REMARK  status: ('A' for Active; 'I' for Inactive)
REMARK    1  A    between atoms: O_2  and  C_3 
REMARK    2  A    between atoms: C_6  and  C_7 
REMARK    3  A    between atoms: C_7  and  N_8 
REMARK       I    between atoms: N_8  and  C_9 
REMARK    4  A    between atoms: C_9  and  C_11 
REMARK    5  A    between atoms: C_11  and  O_12 
REMARK    6  A    between atoms: O_12  and  C_13 
REMARK    7  A    between atoms: C_15  and  C_13 
REMARK    8  A    between atoms: C_15  and  N_26 
REMARK    9  A    between atoms: C_15  and  C_16 
REMARK   10  A    between atoms: C_16  and  C_17 
REMARK       I    between atoms: N_26  and  C_27 
REMARK   11  A    between atoms: C_27  and  C_29 
ROOT
ATOM      1  C   UNL d   1      24.529 -16.638  -0.697  0.00  0.00     0.188 C 
ENDROOT
BRANCH   1   2
ATOM      2  N   UNL d   1      25.488 -15.910  -1.739  0.00  0.00    -0.343 N 
ATOM      3  C   UNL d   1      25.091 -14.905  -2.706  0.00  0.00     0.252 C 
ATOM      4  O   UNL d   1      23.949 -14.560  -2.918  0.00  0.00    -0.268 OA
ATOM      5  H   UNL d   1      26.474 -16.070  -1.645  0.00  0.00     0.163 HD
BRANCH   3   6
ATOM      6  C   UNL d   1      26.168 -14.224  -3.563  0.00  0.00     0.032 A 
ATOM      7  C   UNL d   1      26.272 -12.809  -3.669  0.00  0.00     0.018 A 
ATOM      8  C   UNL d   1      27.102 -12.200  -4.640  0.00  0.00     0.025 A 
ATOM      9  C   UNL d   1      27.879 -12.994  -5.477  0.00  0.00     0.034 A 
ATOM     10 CL   UNL d   1      28.967 -12.274  -6.602  0.00  0.00    -0.084 Cl
ATOM     11  C   UNL d   1      27.791 -14.383  -5.386  0.00  0.00     0.025 A 
ATOM     12  C   UNL d   1      26.938 -14.989  -4.441  0.00  0.00     0.018 A 
ENDBRANCH   3   6
ENDBRANCH   1   2
BRANCH   1  13
ATOM     13  C   UNL d   1      23.005 -17.542  -1.272  0.00  0.00     0.072 C 
BRANCH  13  14
ATOM     14  C   UNL d   1      21.526 -18.241  -0.476  0.00  0.00    -0.046 C 
ATOM     15  C   UNL d   1      21.229 -19.325  -1.270  0.00  0.00     0.112 C 
ATOM     16  N   UNL d   1      19.865 -19.092  -1.270  0.00  0.00    -0.282 NA
ATOM     17  C   UNL d   1      19.486 -19.566  -0.049  0.00  0.00     0.019 A 
ATOM     18  H   UNL d   1      19.432 -18.220  -1.528  0.00  0.00     0.128 HD
ATOM     19  C   UNL d   1      18.419 -20.467   0.157  0.00  0.00     0.024 A 
ATOM     20  C   UNL d   1      20.526 -19.071   0.767  0.00  0.00    -0.011 A 
ATOM     21  C   UNL d   1      18.205 -21.121   1.338  0.00  0.00     0.002 A 
ATOM     22  C   UNL d   1      19.129 -20.822   2.318  0.00  0.00     0.001 A 
ATOM     23  C   UNL d   1      20.267 -19.787   2.107  0.00  0.00     0.013 A 
ENDBRANCH  13  14
ENDBRANCH   1  13
BRANCH   1  24
ATOM     24  C   UNL d   1      25.583 -17.754  -0.064  0.00  0.00     0.282 C 
ATOM     25  O   UNL d   1      25.441 -18.398   0.947  0.00  0.00    -0.263 OA
BRANCH  24  26
ATOM     26  O   UNL d   1      26.708 -17.897  -0.835  0.00  0.00    -0.310 OA
BRANCH  26  27
ATOM     27  C   UNL d   1      27.979 -17.728  -0.139  0.00  0.00     0.281 C 
BRANCH  27  28
ATOM     28  C   UNL d   1      28.484 -16.299  -0.443  0.00  0.00     0.242 C 
ATOM     29  N   UNL d   1      29.014 -15.603   0.628  0.00  0.00    -0.355 N 
ATOM     30  H   UNL d   1      29.097 -16.077   1.511  0.00  0.00     0.162 HD
ATOM     31  O   UNL d   1      28.412 -15.802  -1.558  0.00  0.00    -0.271 OA
BRANCH  29  32
ATOM     32  C   UNL d   1      29.533 -14.241   0.478  0.00  0.00     0.161 C 
BRANCH  32  33
ATOM     33  C   UNL d   1      28.710 -13.151   1.144  0.00  0.00    -0.040 A 
ATOM     34  C   UNL d   1      29.064 -12.667   2.420  0.00  0.00     0.011 A 
ATOM     35  C   UNL d   1      28.228 -11.770   3.110  0.00  0.00     0.037 A 
ATOM     36  C   UNL d   1      27.063 -11.289   2.512  0.00  0.00     0.068 A 
ATOM     37  C   UNL d   1      26.752 -11.700   1.224  0.00  0.00     0.037 A 
ATOM     38  C   UNL d   1      27.559 -12.617   0.556  0.00  0.00     0.011 A 
BRANCH  36  39
ATOM     39  O   UNL d   1      26.328 -10.363   3.199  0.00  0.00    -0.356 OA
ATOM     40  C   UNL d   1      27.097  -9.336   3.827  0.00  0.00     0.210 C 
ENDBRANCH  36  39
ENDBRANCH  32  33
ENDBRANCH  29  32
ENDBRANCH  27  28
ENDBRANCH  26  27
ENDBRANCH  24  26
ENDBRANCH   1  24
TORSDOF 11
ENDMDL
MODEL 4
REMARK VINA RESULT:   -31.862      3.024      4.087
REMARK INTER + INTRA:         -37.751
REMARK INTER:                 -35.143
REMARK INTRA:                  -2.608
REMARK CONF_INDEPENDENT:        3.281
REMARK UNBOUND:                -2.608
REMARK  11 active torsions:
REMARK  status: ('A' for Active; 'I' for Inactive)
REMARK    1  A    between atoms: O_2  and  C_3 
REMARK    2  A    between atoms: C_6  and  C_7 
REMARK    3  A    between atoms: C_7  and  N_8 
REMARK       I    between atoms: N_8  and  C_9 
REMARK    4  A    between atoms: C_9  and  C_11 
REMARK    5  A    between atoms: C_11  and  O_12 
REMARK    6  A    between atoms: O_12  and  C_13 
REMARK    7  A    between atoms: C_15  and  C_13 
REMARK    8  A    between atoms: C_15  and  N_26 
REMARK    9  A    between atoms: C_15  and  C_16 
REMARK   10  A    between atoms: C_16  and  C_17 
REMARK       I    between atoms: N_26  and  C_27 
REMARK   11  A    between atoms: C_27  and  C_29 
ROOT
ATOM      1  C   UNL d   1      24.445 -16.787  -0.710  0.00  0.00     0.188 C 
ENDROOT
BRANCH   1   2
ATOM      2  N   UNL d   1      25.331 -16.068  -1.821  0.00  0.00    -0.343 N 
ATOM      3  C   UNL d   1      24.903 -14.983  -2.683  0.00  0.00     0.252 C 
ATOM      4  O   UNL d   1      23.774 -14.548  -2.741  0.00  0.00    -0.268 OA
ATOM      5  H   UNL d   1      26.306 -16.302  -1.853  0.00  0.00     0.163 HD
BRANCH   3   6
ATOM      6  C   UNL d   1      25.923 -14.330  -3.628  0.00  0.00     0.032 A 
ATOM      7  C   UNL d   1      25.930 -12.932  -3.887  0.00  0.00     0.018 A 
ATOM      8  C   UNL d   1      26.707 -12.379  -4.933  0.00  0.00     0.025 A 
ATOM      9  C   UNL d   1      27.528 -13.206  -5.692  0.00  0.00     0.034 A 
ATOM     10 CL   UNL d   1      28.554 -12.543  -6.907  0.00  0.00    -0.084 Cl
ATOM     11  C   UNL d   1      27.535 -14.579  -5.450  0.00  0.00     0.025 A 
ATOM     12  C   UNL d   1      26.735 -15.134  -4.430  0.00  0.00     0.018 A 
ENDBRANCH   3   6
ENDBRANCH   1   2
BRANCH   1  13
ATOM     13  C   UNL d   1      23.076 -17.956  -1.189  0.00  0.00     0.072 C 
BRANCH  13  14
ATOM     14  C   UNL d   1      21.526 -18.529  -0.428  0.00  0.00    -0.046 C 
ATOM     15  C   UNL d   1      21.118 -19.534  -1.276  0.00  0.00     0.112 C 
ATOM     16  N   UNL d   1      19.787 -19.155  -1.265  0.00  0.00    -0.282 NA
ATOM     17  C   UNL d   1      19.352 -19.645  -0.069  0.00  0.00     0.019 A 
ATOM     18  H   UNL d   1      19.453 -18.229  -1.479  0.00  0.00     0.128 HD
ATOM     19  C   UNL d   1      18.193 -20.433   0.092  0.00  0.00     0.024 A 
ATOM     20  C   UNL d   1      20.435 -19.306   0.771  0.00  0.00    -0.011 A 
ATOM     21  C   UNL d   1      17.902 -21.118   1.239  0.00  0.00     0.002 A 
ATOM     22  C   UNL d   1      18.849 -20.970   2.232  0.00  0.00     0.001 A 
ATOM     23  C   UNL d   1      20.092 -20.055   2.074  0.00  0.00     0.013 A 
ENDBRANCH  13  14
ENDBRANCH   1  13
BRANCH   1  24
ATOM     24  C   UNL d   1      25.619 -17.660   0.076  0.00  0.00     0.282 C 
ATOM     25  O   UNL d   1      25.452 -18.565   0.857  0.00  0.00    -0.263 OA
BRANCH  24  26
ATOM     26  O   UNL d   1      26.883 -17.245  -0.258  0.00  0.00    -0.310 OA
BRANCH  26  27
ATOM     27  C   UNL d   1      27.278 -15.939   0.258  0.00  0.00     0.281 C 
BRANCH  27  28
ATOM     28  C   UNL d   1      28.779 -15.754  -0.057  0.00  0.00     0.242 C 
ATOM     29  N   UNL d   1      29.545 -16.906  -0.056  0.00  0.00    -0.355 N 
ATOM     30  H   UNL d   1      29.082 -17.787   0.084  0.00  0.00     0.162 HD
ATOM     31  O   UNL d   1      29.272 -14.658  -0.285  0.00  0.00    -0.271 OA
BRANCH  29  32
ATOM     32  C   UNL d   1      30.982 -16.874  -0.344  0.00  0.00     0.161 C 
BRANCH  32  33
ATOM     33  C   UNL d   1      31.836 -17.818   0.484  0.00  0.00    -0.040 A 
ATOM     34  C   UNL d   1      32.075 -19.136   0.044  0.00  0.00     0.011 A 
ATOM     35  C   UNL d   1      32.735 -20.065   0.870  0.00  0.00     0.037 A 
ATOM     36  C   UNL d   1      33.226 -19.676   2.116  0.00  0.00     0.068 A 
ATOM     37  C   UNL d   1      33.064 -18.359   2.520  0.00  0.00     0.037 A 
ATOM     38  C   UNL d   1      32.379 -17.449   1.719  0.00  0.00     0.011 A 
BRANCH  36  39
ATOM     39  O   UNL d   1      33.924 -20.601   2.844  0.00  0.00    -0.356 OA
ATOM     40  C   UNL d   1      33.206 -21.163   3.943  0.00  0.00     0.210 C 
ENDBRANCH  36  39
ENDBRANCH  32  33
ENDBRANCH  29  32
ENDBRANCH  27  28
ENDBRANCH  26  27
ENDBRANCH  24  26
ENDBRANCH   1  24
TORSDOF 11
ENDMDL
MODEL 5
REMARK VINA RESULT:   -31.633      3.039      3.971
REMARK INTER + INTRA:         -39.269
REMARK INTER:                 -34.914
REMARK INTRA:                  -4.355
REMARK CONF_INDEPENDENT:        3.281
REMARK UNBOUND:                -4.355
REMARK  11 active torsions:
REMARK  status: ('A' for Active; 'I' for Inactive)
REMARK    1  A    between atoms: O_2  and  C_3 
REMARK    2  A    between atoms: C_6  and  C_7 
REMARK    3  A    between atoms: C_7  and  N_8 
REMARK       I    between atoms: N_8  and  C_9 
REMARK    4  A    between atoms: C_9  and  C_11 
REMARK    5  A    between atoms: C_11  and  O_12 
REMARK    6  A    between atoms: O_12  and  C_13 
REMARK    7  A    between atoms: C_15  and  C_13 
REMARK    8  A    between atoms: C_15  and  N_26 
REMARK    9  A    between atoms: C_15  and  C_16 
REMARK   10  A    between atoms: C_16  and  C_17 
REMARK       I    between atoms: N_26  and  C_27 
REMARK   11  A    between atoms: C_27  and  C_29 
ROOT
ATOM      1  C   UNL d   1      24.647 -16.661  -1.002  0.00  0.00     0.188 C 
ENDROOT
BRANCH   1   2
ATOM      2  N   UNL d   1      25.547 -16.028  -2.153  0.00  0.00    -0.343 N 
ATOM      3  C   UNL d   1      25.159 -14.954  -3.047  0.00  0.00     0.252 C 
ATOM      4  O   UNL d   1      24.052 -14.464  -3.102  0.00  0.00    -0.268 OA
ATOM      5  H   UNL d   1      26.509 -16.312  -2.193  0.00  0.00     0.163 HD
BRANCH   3   6
ATOM      6  C   UNL d   1      26.193 -14.389  -4.032  0.00  0.00     0.032 A 
ATOM      7  C   UNL d   1      27.294 -15.158  -4.501  0.00  0.00     0.018 A 
ATOM      8  C   UNL d   1      28.364 -14.560  -5.210  0.00  0.00     0.025 A 
ATOM      9  C   UNL d   1      28.319 -13.201  -5.506  0.00  0.00     0.034 A 
ATOM     10 CL   UNL d   1      29.563 -12.472  -6.448  0.00  0.00    -0.084 Cl
ATOM     11  C   UNL d   1      27.247 -12.433  -5.055  0.00  0.00     0.025 A 
ATOM     12  C   UNL d   1      26.198 -13.023  -4.320  0.00  0.00     0.018 A 
ENDBRANCH   3   6
ENDBRANCH   1   2
BRANCH   1  13
ATOM     13  C   UNL d   1      23.188 -17.741  -1.416  0.00  0.00     0.072 C 
BRANCH  13  14
ATOM     14  C   UNL d   1      21.681 -18.284  -0.552  0.00  0.00    -0.046 C 
ATOM     15  C   UNL d   1      21.233 -19.325  -1.334  0.00  0.00     0.112 C 
ATOM     16  N   UNL d   1      19.903 -18.948  -1.269  0.00  0.00    -0.282 NA
ATOM     17  C   UNL d   1      19.534 -19.387  -0.032  0.00  0.00     0.019 A 
ATOM     18  H   UNL d   1      19.555 -18.032  -1.504  0.00  0.00     0.128 HD
ATOM     19  C   UNL d   1      18.388 -20.170   0.222  0.00  0.00     0.024 A 
ATOM     20  C   UNL d   1      20.658 -19.011   0.735  0.00  0.00    -0.011 A 
ATOM     21  C   UNL d   1      18.160 -20.806   1.410  0.00  0.00     0.002 A 
ATOM     22  C   UNL d   1      19.156 -20.614   2.346  0.00  0.00     0.001 A 
ATOM     23  C   UNL d   1      20.386 -19.705   2.084  0.00  0.00     0.013 A 
ENDBRANCH  13  14
ENDBRANCH   1  13
BRANCH   1  24
ATOM     24  C   UNL d   1      25.781 -17.596  -0.230  0.00  0.00     0.282 C 
ATOM     25  O   UNL d   1      25.676 -18.123   0.851  0.00  0.00    -0.263 OA
BRANCH  24  26
ATOM     26  O   UNL d   1      26.927 -17.735  -0.970  0.00  0.00    -0.310 OA
BRANCH  26  27
ATOM     27  C   UNL d   1      28.177 -17.539  -0.244  0.00  0.00     0.281 C 
BRANCH  27  28
ATOM     28  C   UNL d   1      28.729 -16.152  -0.644  0.00  0.00     0.242 C 
ATOM     29  N   UNL d   1      29.462 -15.490   0.323  0.00  0.00    -0.355 N 
ATOM     30  H   UNL d   1      29.645 -15.963   1.191  0.00  0.00     0.162 HD
ATOM     31  O   UNL d   1      28.524 -15.657  -1.744  0.00  0.00    -0.271 OA
BRANCH  29  32
ATOM     32  C   UNL d   1      30.047 -14.168   0.075  0.00  0.00     0.161 C 
BRANCH  32  33
ATOM     33  C   UNL d   1      29.148 -13.182  -0.652  0.00  0.00    -0.040 A 
ATOM     34  C   UNL d   1      29.667 -12.363  -1.675  0.00  0.00     0.011 A 
ATOM     35  C   UNL d   1      28.886 -11.343  -2.250  0.00  0.00     0.037 A 
ATOM     36  C   UNL d   1      27.557 -11.169  -1.863  0.00  0.00     0.068 A 
ATOM     37  C   UNL d   1      27.018 -12.025  -0.913  0.00  0.00     0.037 A 
ATOM     38  C   UNL d   1      27.801 -13.010  -0.318  0.00  0.00     0.011 A 
BRANCH  36  39
ATOM     39  O   UNL d   1      26.824 -10.212  -2.508  0.00  0.00    -0.356 OA
ATOM     40  C   UNL d   1      27.572  -9.072  -2.933  0.00  0.00     0.210 C 
ENDBRANCH  36  39
ENDBRANCH  32  33
ENDBRANCH  29  32
ENDBRANCH  27  28
ENDBRANCH  26  27
ENDBRANCH  24  26
ENDBRANCH   1  24
TORSDOF 11
ENDMDL
MODEL 6
REMARK VINA RESULT:   -31.475      3.474      5.875
REMARK INTER + INTRA:         -36.987
REMARK INTER:                 -34.756
REMARK INTRA:                  -2.231
REMARK CONF_INDEPENDENT:        3.281
REMARK UNBOUND:                -2.231
REMARK  11 active torsions:
REMARK  status: ('A' for Active; 'I' for Inactive)
REMARK    1  A    between atoms: O_2  and  C_3 
REMARK    2  A    between atoms: C_6  and  C_7 
REMARK    3  A    between atoms: C_7  and  N_8 
REMARK       I    between atoms: N_8  and  C_9 
REMARK    4  A    between atoms: C_9  and  C_11 
REMARK    5  A    between atoms: C_11  and  O_12 
REMARK    6  A    between atoms: O_12  and  C_13 
REMARK    7  A    between atoms: C_15  and  C_13 
REMARK    8  A    between atoms: C_15  and  N_26 
REMARK    9  A    between atoms: C_15  and  C_16 
REMARK   10  A    between atoms: C_16  and  C_17 
REMARK       I    between atoms: N_26  and  C_27 
REMARK   11  A    between atoms: C_27  and  C_29 
ROOT
ATOM      1  C   UNL d   1      24.633 -16.727  -0.656  0.00  0.00     0.188 C 
ENDROOT
BRANCH   1   2
ATOM      2  N   UNL d   1      25.430 -15.748  -1.627  0.00  0.00    -0.343 N 
ATOM      3  C   UNL d   1      24.842 -14.790  -2.544  0.00  0.00     0.252 C 
ATOM      4  O   UNL d   1      23.656 -14.683  -2.767  0.00  0.00    -0.268 OA
ATOM      5  H   UNL d   1      26.426 -15.701  -1.515  0.00  0.00     0.163 HD
BRANCH   3   6
ATOM      6  C   UNL d   1      25.761 -13.844  -3.330  0.00  0.00     0.032 A 
ATOM      7  C   UNL d   1      26.911 -13.244  -2.745  0.00  0.00     0.018 A 
ATOM      8  C   UNL d   1      27.607 -12.196  -3.394  0.00  0.00     0.025 A 
ATOM      9  C   UNL d   1      27.198 -11.775  -4.655  0.00  0.00     0.034 A 
ATOM     10 CL   UNL d   1      28.087 -10.567  -5.504  0.00  0.00    -0.084 Cl
ATOM     11  C   UNL d   1      26.074 -12.354  -5.243  0.00  0.00     0.025 A 
ATOM     12  C   UNL d   1      25.361 -13.374  -4.582  0.00  0.00     0.018 A 
ENDBRANCH   3   6
ENDBRANCH   1   2
BRANCH   1  13
ATOM     13  C   UNL d   1      23.105 -17.617  -1.242  0.00  0.00     0.072 C 
BRANCH  13  14
ATOM     14  C   UNL d   1      21.599 -18.273  -0.459  0.00  0.00    -0.046 C 
ATOM     15  C   UNL d   1      21.257 -19.325  -1.278  0.00  0.00     0.112 C 
ATOM     16  N   UNL d   1      19.904 -19.037  -1.270  0.00  0.00    -0.282 NA
ATOM     17  C   UNL d   1      19.507 -19.524  -0.060  0.00  0.00     0.019 A 
ATOM     18  H   UNL d   1      19.507 -18.141  -1.506  0.00  0.00     0.128 HD
ATOM     19  C   UNL d   1      18.405 -20.385   0.127  0.00  0.00     0.024 A 
ATOM     20  C   UNL d   1      20.567 -19.091   0.765  0.00  0.00    -0.011 A 
ATOM     21  C   UNL d   1      18.165 -21.058   1.292  0.00  0.00     0.002 A 
ATOM     22  C   UNL d   1      19.102 -20.821   2.277  0.00  0.00     0.001 A 
ATOM     23  C   UNL d   1      20.281 -19.828   2.088  0.00  0.00     0.013 A 
ENDBRANCH  13  14
ENDBRANCH   1  13
BRANCH   1  24
ATOM     24  C   UNL d   1      25.809 -17.861  -0.360  0.00  0.00     0.282 C 
ATOM     25  O   UNL d   1      25.682 -18.904   0.233  0.00  0.00    -0.263 OA
BRANCH  24  26
ATOM     26  O   UNL d   1      27.024 -17.494  -0.882  0.00  0.00    -0.310 OA
BRANCH  26  27
ATOM     27  C   UNL d   1      27.878 -16.703  -0.004  0.00  0.00     0.281 C 
BRANCH  27  28
ATOM     28  C   UNL d   1      29.230 -16.510  -0.728  0.00  0.00     0.242 C 
ATOM     29  N   UNL d   1      30.175 -17.498  -0.521  0.00  0.00    -0.355 N 
ATOM     30  H   UNL d   1      29.914 -18.301   0.024  0.00  0.00     0.162 HD
ATOM     31  O   UNL d   1      29.463 -15.539  -1.434  0.00  0.00    -0.271 OA
BRANCH  29  32
ATOM     32  C   UNL d   1      31.497 -17.442  -1.151  0.00  0.00     0.161 C 
BRANCH  32  33
ATOM     33  C   UNL d   1      31.992 -18.747  -1.751  0.00  0.00    -0.040 A 
ATOM     34  C   UNL d   1      33.250 -19.269  -1.385  0.00  0.00     0.011 A 
ATOM     35  C   UNL d   1      33.784 -20.393  -2.042  0.00  0.00     0.037 A 
ATOM     36  C   UNL d   1      33.046 -21.052  -3.025  0.00  0.00     0.068 A 
ATOM     37  C   UNL d   1      31.774 -20.590  -3.331  0.00  0.00     0.037 A 
ATOM     38  C   UNL d   1      31.260 -19.457  -2.708  0.00  0.00     0.011 A 
BRANCH  36  39
ATOM     39  O   UNL d   1      33.584 -22.182  -3.577  0.00  0.00    -0.356 OA
ATOM     40  C   UNL d   1      33.579 -23.326  -2.722  0.00  0.00     0.210 C 
ENDBRANCH  36  39
ENDBRANCH  32  33
ENDBRANCH  29  32
ENDBRANCH  27  28
ENDBRANCH  26  27
ENDBRANCH  24  26
ENDBRANCH   1  24
TORSDOF 11
ENDMDL
MODEL 7
REMARK VINA RESULT:   -31.240      3.398      6.572
REMARK INTER + INTRA:         -37.549
REMARK INTER:                 -34.522
REMARK INTRA:                  -3.027
REMARK CONF_INDEPENDENT:        3.281
REMARK UNBOUND:                -3.027
REMARK  11 active torsions:
REMARK  status: ('A' for Active; 'I' for Inactive)
REMARK    1  A    between atoms: O_2  and  C_3 
REMARK    2  A    between atoms: C_6  and  C_7 
REMARK    3  A    between atoms: C_7  and  N_8 
REMARK       I    between atoms: N_8  and  C_9 
REMARK    4  A    between atoms: C_9  and  C_11 
REMARK    5  A    between atoms: C_11  and  O_12 
REMARK    6  A    between atoms: O_12  and  C_13 
REMARK    7  A    between atoms: C_15  and  C_13 
REMARK    8  A    between atoms: C_15  and  N_26 
REMARK    9  A    between atoms: C_15  and  C_16 
REMARK   10  A    between atoms: C_16  and  C_17 
REMARK       I    between atoms: N_26  and  C_27 
REMARK   11  A    between atoms: C_27  and  C_29 
ROOT
ATOM      1  C   UNL d   1      24.069 -17.224  -1.218  0.00  0.00     0.188 C 
ENDROOT
BRANCH   1   2
ATOM      2  N   UNL d   1      25.599 -16.836  -1.004  0.00  0.00    -0.343 N 
ATOM      3  C   UNL d   1      26.534 -17.508  -0.123  0.00  0.00     0.252 C 
ATOM      4  O   UNL d   1      26.245 -18.396   0.649  0.00  0.00    -0.268 OA
ATOM      5  H   UNL d   1      25.986 -16.141  -1.615  0.00  0.00     0.163 HD
BRANCH   3   6
ATOM      6  C   UNL d   1      28.006 -17.070  -0.120  0.00  0.00     0.032 A 
ATOM      7  C   UNL d   1      28.429 -15.836   0.447  0.00  0.00     0.018 A 
ATOM      8  C   UNL d   1      29.736 -15.334   0.233  0.00  0.00     0.025 A 
ATOM      9  C   UNL d   1      30.649 -16.084  -0.501  0.00  0.00     0.034 A 
ATOM     10 CL   UNL d   1      32.272 -15.538  -0.694  0.00  0.00    -0.084 Cl
ATOM     11  C   UNL d   1      30.251 -17.296  -1.062  0.00  0.00     0.025 A 
ATOM     12  C   UNL d   1      28.940 -17.779  -0.877  0.00  0.00     0.018 A 
ENDBRANCH   3   6
ENDBRANCH   1   2
BRANCH   1  13
ATOM     13  C   UNL d   1      23.060 -17.937   0.177  0.00  0.00     0.072 C 
BRANCH  13  14
ATOM     14  C   UNL d   1      21.393 -18.645   0.350  0.00  0.00    -0.046 C 
ATOM     15  C   UNL d   1      21.213 -19.309  -0.843  0.00  0.00     0.112 C 
ATOM     16  N   UNL d   1      19.905 -18.888  -1.007  0.00  0.00    -0.282 NA
ATOM     17  C   UNL d   1      19.224 -19.710  -0.159  0.00  0.00     0.019 A 
ATOM     18  H   UNL d   1      19.605 -17.927  -0.983  0.00  0.00     0.128 HD
ATOM     19  C   UNL d   1      18.079 -20.451  -0.520  0.00  0.00     0.024 A 
ATOM     20  C   UNL d   1      20.080 -19.708   0.964  0.00  0.00    -0.011 A 
ATOM     21  C   UNL d   1      17.554 -21.449   0.253  0.00  0.00     0.002 A 
ATOM     22  C   UNL d   1      18.247 -21.670   1.426  0.00  0.00     0.001 A 
ATOM     23  C   UNL d   1      19.471 -20.813   1.848  0.00  0.00     0.013 A 
ENDBRANCH  13  14
ENDBRANCH   1  13
BRANCH   1  24
ATOM     24  C   UNL d   1      23.443 -15.734  -1.599  0.00  0.00     0.282 C 
ATOM     25  O   UNL d   1      22.295 -15.378  -1.491  0.00  0.00    -0.263 OA
BRANCH  24  26
ATOM     26  O   UNL d   1      24.401 -14.878  -2.079  0.00  0.00    -0.310 OA
BRANCH  26  27
ATOM     27  C   UNL d   1      24.026 -14.103  -3.256  0.00  0.00     0.281 C 
BRANCH  27  28
ATOM     28  C   UNL d   1      25.190 -14.210  -4.268  0.00  0.00     0.242 C 
ATOM     29  N   UNL d   1      26.051 -13.129  -4.319  0.00  0.00    -0.355 N 
ATOM     30  H   UNL d   1      25.912 -12.378  -3.666  0.00  0.00     0.162 HD
ATOM     31  O   UNL d   1      25.341 -15.184  -4.993  0.00  0.00    -0.271 OA
BRANCH  29  32
ATOM     32  C   UNL d   1      27.198 -13.102  -5.230  0.00  0.00     0.161 C 
BRANCH  32  33
ATOM     33  C   UNL d   1      28.189 -14.242  -5.067  0.00  0.00    -0.040 A 
ATOM     34  C   UNL d   1      29.114 -14.536  -6.090  0.00  0.00     0.011 A 
ATOM     35  C   UNL d   1      29.933 -15.678  -6.018  0.00  0.00     0.037 A 
ATOM     36  C   UNL d   1      29.891 -16.505  -4.895  0.00  0.00     0.068 A 
ATOM     37  C   UNL d   1      29.041 -16.175  -3.850  0.00  0.00     0.037 A 
ATOM     38  C   UNL d   1      28.204 -15.066  -3.938  0.00  0.00     0.011 A 
BRANCH  36  39
ATOM     39  O   UNL d   1      30.763 -17.559  -4.846  0.00  0.00    -0.356 OA
ATOM     40  C   UNL d   1      30.417 -18.660  -5.687  0.00  0.00     0.210 C 
ENDBRANCH  36  39
ENDBRANCH  32  33
ENDBRANCH  29  32
ENDBRANCH  27  28
ENDBRANCH  26  27
ENDBRANCH  24  26
ENDBRANCH   1  24
TORSDOF 11
ENDMDL
