MODEL 1
REMARK VINA RESULT:    -8.568      0.000      0.000
REMARK INTER + INTRA:         -12.014
REMARK INTER:                 -10.358
REMARK INTRA:                  -1.657
REMARK CONF_INDEPENDENT:        1.790
REMARK UNBOUND:                -1.657
REMARK  6 active torsions:
REMARK  status: ('A' for Active; 'I' for Inactive)
REMARK    1  A    between atoms: C_7  and  C_8 
REMARK       I    between atoms: C_8  and  N_10 
REMARK    2  A    between atoms: N_10  and  C_11 
REMARK    3  A    between atoms: C_11  and  C_12 
REMARK    4  A    between atoms: C_12  and  C_13 
REMARK       I    between atoms: C_13  and  N_15 
REMARK    5  A    between atoms: N_15  and  N_16 
REMARK       I    between atoms: N_16  and  C_17 
REMARK    6  A    between atoms: C_17  and  C_19 
ROOT
ATOM      1  C   UNL d   1      24.776 -17.423  -1.886  0.00  0.00     0.124 C 
ENDROOT
BRANCH   1   2
ATOM      2  C   UNL d   1      25.615 -16.195  -1.459  0.00  0.00     0.132 C 
BRANCH   2   3
ATOM      3  N   UNL d   1      26.361 -15.618  -2.566  0.00  0.00    -0.356 N 
ATOM      4  C   UNL d   1      25.832 -14.813  -3.560  0.00  0.00     0.252 C 
ATOM      5  O   UNL d   1      24.631 -14.524  -3.570  0.00  0.00    -0.268 OA
ATOM      6  H   UNL d   1      27.328 -15.843  -2.542  0.00  0.00     0.162 HD
BRANCH   4   7
ATOM      7  C   UNL d   1      26.741 -14.272  -4.661  0.00  0.00     0.037 A 
ATOM      8  C   UNL d   1      27.625 -15.195  -5.269  0.00  0.00     0.017 A 
ATOM      9  C   UNL d   1      28.504 -14.813  -6.296  0.00  0.00     0.001 A 
ATOM     10  C   UNL d   1      28.527 -13.497  -6.736  0.00  0.00     0.001 A 
ATOM     11  C   UNL d   1      27.671 -12.570  -6.154  0.00  0.00     0.007 A 
ATOM     12  C   UNL d   1      26.776 -12.936  -5.128  0.00  0.00    -0.046 A 
ATOM     13  C   UNL d   1      25.902 -11.840  -4.607  0.00  0.00     0.049 C 
ENDBRANCH   4   7
ENDBRANCH   2   3
ENDBRANCH   1   2
BRANCH   1  14
ATOM     14  C   UNL d   1      23.678 -17.692  -0.861  0.00  0.00     0.237 C 
ATOM     15  O   UNL d   1      23.790 -17.373   0.323  0.00  0.00    -0.272 OA
ATOM     16  N   UNL d   1      22.529 -18.312  -1.320  0.00  0.00    -0.267 N 
ATOM     17  H   UNL d   1      22.366 -18.625  -2.279  0.00  0.00     0.190 HD
BRANCH  16  18
ATOM     18  N   UNL d   1      21.480 -18.576  -0.377  0.00  0.00    -0.265 N 
ATOM     19  C   UNL d   1      20.375 -19.292  -0.788  0.00  0.00     0.265 C 
ATOM     20  O   UNL d   1      20.309 -19.700  -1.957  0.00  0.00    -0.269 OA
ATOM     21  H   UNL d   1      21.635 -18.228   0.566  0.00  0.00     0.190 HD
BRANCH  19  22
ATOM     22  C   UNL d   1      19.236 -19.625   0.226  0.00  0.00     0.215 C 
ATOM     23  C   UNL d   1      19.463 -19.840   1.719  0.00  0.00     0.044 C 
ATOM     24  C   UNL d   1      18.295 -20.733   2.103  0.00  0.00     0.029 C 
ATOM     25  C   UNL d   1      18.109 -21.585   0.872  0.00  0.00     0.168 C 
ATOM     26  O   UNL d   1      18.523 -20.789  -0.241  0.00  0.00    -0.376 OA
ENDBRANCH  19  22
ENDBRANCH  16  18
ENDBRANCH   1  14
TORSDOF 6
ENDMDL
MODEL 2
REMARK VINA RESULT:    -8.138      0.950      1.815
REMARK INTER + INTRA:         -11.967
REMARK INTER:                  -9.928
REMARK INTRA:                  -2.040
REMARK CONF_INDEPENDENT:        1.790
REMARK UNBOUND:                -2.040
REMARK  6 active torsions:
REMARK  status: ('A' for Active; 'I' for Inactive)
REMARK    1  A    between atoms: C_7  and  C_8 
REMARK       I    between atoms: C_8  and  N_10 
REMARK    2  A    between atoms: N_10  and  C_11 
REMARK    3  A    between atoms: C_11  and  C_12 
REMARK    4  A    between atoms: C_12  and  C_13 
REMARK       I    between atoms: C_13  and  N_15 
REMARK    5  A    between atoms: N_15  and  N_16 
REMARK       I    between atoms: N_16  and  C_17 
REMARK    6  A    between atoms: C_17  and  C_19 
ROOT
ATOM      1  C   UNL d   1      24.737 -17.230  -1.955  0.00  0.00     0.124 C 
ENDROOT
BRANCH   1   2
ATOM      2  C   UNL d   1      25.186 -15.855  -1.407  0.00  0.00     0.132 C 
BRANCH   2   3
ATOM      3  N   UNL d   1      25.835 -15.038  -2.419  0.00  0.00    -0.356 N 
ATOM      4  C   UNL d   1      25.189 -14.322  -3.413  0.00  0.00     0.252 C 
ATOM      5  O   UNL d   1      23.957 -14.338  -3.506  0.00  0.00    -0.268 OA
ATOM      6  H   UNL d   1      26.824 -15.019  -2.328  0.00  0.00     0.162 HD
BRANCH   4   7
ATOM      7  C   UNL d   1      26.004 -13.500  -4.407  0.00  0.00     0.037 A 
ATOM      8  C   UNL d   1      25.530 -12.198  -4.699  0.00  0.00     0.017 A 
ATOM      9  C   UNL d   1      26.200 -11.348  -5.594  0.00  0.00     0.001 A 
ATOM     10  C   UNL d   1      27.357 -11.780  -6.227  0.00  0.00     0.001 A 
ATOM     11  C   UNL d   1      27.843 -13.054  -5.961  0.00  0.00     0.007 A 
ATOM     12  C   UNL d   1      27.188 -13.919  -5.059  0.00  0.00    -0.046 A 
ATOM     13  C   UNL d   1      27.832 -15.253  -4.855  0.00  0.00     0.049 C 
ENDBRANCH   4   7
ENDBRANCH   2   3
ENDBRANCH   1   2
BRANCH   1  14
ATOM     14  C   UNL d   1      23.905 -17.967  -0.908  0.00  0.00     0.237 C 
ATOM     15  O   UNL d   1      24.264 -18.067   0.266  0.00  0.00    -0.272 OA
ATOM     16  N   UNL d   1      22.711 -18.523  -1.333  0.00  0.00    -0.267 N 
ATOM     17  H   UNL d   1      22.353 -18.501  -2.289  0.00  0.00     0.190 HD
BRANCH  16  18
ATOM     18  N   UNL d   1      21.909 -19.221  -0.368  0.00  0.00    -0.265 N 
ATOM     19  C   UNL d   1      20.720 -19.792  -0.774  0.00  0.00     0.265 C 
ATOM     20  O   UNL d   1      20.369 -19.699  -1.959  0.00  0.00    -0.269 OA
ATOM     21  H   UNL d   1      22.292 -19.271   0.572  0.00  0.00     0.190 HD
BRANCH  19  22
ATOM     22  C   UNL d   1      19.847 -20.588   0.245  0.00  0.00     0.215 C 
ATOM     23  C   UNL d   1      18.323 -20.534   0.285  0.00  0.00     0.044 C 
ATOM     24  C   UNL d   1      18.019 -20.880   1.732  0.00  0.00     0.029 C 
ATOM     25  C   UNL d   1      19.175 -20.253   2.473  0.00  0.00     0.168 C 
ATOM     26  O   UNL d   1      20.292 -20.277   1.582  0.00  0.00    -0.376 OA
ENDBRANCH  19  22
ENDBRANCH  16  18
ENDBRANCH   1  14
TORSDOF 6
ENDMDL
MODEL 3
REMARK VINA RESULT:    -7.925      1.357     10.067
REMARK INTER + INTRA:         -11.284
REMARK INTER:                  -9.715
REMARK INTRA:                  -1.569
REMARK CONF_INDEPENDENT:        1.790
REMARK UNBOUND:                -1.569
REMARK  6 active torsions:
REMARK  status: ('A' for Active; 'I' for Inactive)
REMARK    1  A    between atoms: C_7  and  C_8 
REMARK       I    between atoms: C_8  and  N_10 
REMARK    2  A    between atoms: N_10  and  C_11 
REMARK    3  A    between atoms: C_11  and  C_12 
REMARK    4  A    between atoms: C_12  and  C_13 
REMARK       I    between atoms: C_13  and  N_15 
REMARK    5  A    between atoms: N_15  and  N_16 
REMARK       I    between atoms: N_16  and  C_17 
REMARK    6  A    between atoms: C_17  and  C_19 
ROOT
ATOM      1  C   UNL d   1      24.110 -18.313  -0.659  0.00  0.00     0.124 C 
ENDROOT
BRANCH   1   2
ATOM      2  C   UNL d   1      22.836 -17.452  -0.488  0.00  0.00     0.132 C 
BRANCH   2   3
ATOM      3  N   UNL d   1      21.741 -18.192   0.117  0.00  0.00    -0.356 N 
ATOM      4  C   UNL d   1      20.916 -19.091  -0.539  0.00  0.00     0.252 C 
ATOM      5  O   UNL d   1      21.067 -19.327  -1.741  0.00  0.00    -0.268 OA
ATOM      6  H   UNL d   1      21.637 -18.008   1.087  0.00  0.00     0.162 HD
BRANCH   4   7
ATOM      7  C   UNL d   1      19.807 -19.802   0.231  0.00  0.00     0.037 A 
ATOM      8  C   UNL d   1      18.809 -20.448  -0.539  0.00  0.00     0.017 A 
ATOM      9  C   UNL d   1      17.743 -21.138   0.059  0.00  0.00     0.001 A 
ATOM     10  C   UNL d   1      17.640 -21.195   1.441  0.00  0.00     0.001 A 
ATOM     11  C   UNL d   1      18.604 -20.568   2.221  0.00  0.00     0.007 A 
ATOM     12  C   UNL d   1      19.687 -19.876   1.639  0.00  0.00    -0.046 A 
ATOM     13  C   UNL d   1      20.658 -19.265   2.598  0.00  0.00     0.049 C 
ENDBRANCH   4   7
ENDBRANCH   2   3
ENDBRANCH   1   2
BRANCH   1  14
ATOM     14  C   UNL d   1      25.277 -17.440  -1.114  0.00  0.00     0.237 C 
ATOM     15  O   UNL d   1      26.259 -17.231  -0.400  0.00  0.00    -0.272 OA
ATOM     16  N   UNL d   1      25.193 -16.889  -2.379  0.00  0.00    -0.267 N 
ATOM     17  H   UNL d   1      24.407 -16.997  -3.023  0.00  0.00     0.190 HD
BRANCH  16  18
ATOM     18  N   UNL d   1      26.278 -16.064  -2.832  0.00  0.00    -0.265 N 
ATOM     19  C   UNL d   1      26.186 -15.455  -4.066  0.00  0.00     0.265 C 
ATOM     20  O   UNL d   1      25.171 -15.622  -4.758  0.00  0.00    -0.269 OA
ATOM     21  H   UNL d   1      27.055 -15.962  -2.185  0.00  0.00     0.190 HD
BRANCH  19  22
ATOM     22  C   UNL d   1      27.334 -14.524  -4.567  0.00  0.00     0.215 C 
ATOM     23  C   UNL d   1      27.117 -13.322  -5.480  0.00  0.00     0.044 C 
ATOM     24  C   UNL d   1      28.463 -13.187  -6.172  0.00  0.00     0.029 C 
ATOM     25  C   UNL d   1      28.910 -14.622  -6.308  0.00  0.00     0.168 C 
ATOM     26  O   UNL d   1      28.343 -15.333  -5.206  0.00  0.00    -0.376 OA
ENDBRANCH  19  22
ENDBRANCH  16  18
ENDBRANCH   1  14
TORSDOF 6
ENDMDL
MODEL 4
REMARK VINA RESULT:    -7.875      4.164      5.700
REMARK INTER + INTRA:         -11.362
REMARK INTER:                  -9.665
REMARK INTRA:                  -1.697
REMARK CONF_INDEPENDENT:        1.790
REMARK UNBOUND:                -1.697
REMARK  6 active torsions:
REMARK  status: ('A' for Active; 'I' for Inactive)
REMARK    1  A    between atoms: C_7  and  C_8 
REMARK       I    between atoms: C_8  and  N_10 
REMARK    2  A    between atoms: N_10  and  C_11 
REMARK    3  A    between atoms: C_11  and  C_12 
REMARK    4  A    between atoms: C_12  and  C_13 
REMARK       I    between atoms: C_13  and  N_15 
REMARK    5  A    between atoms: N_15  and  N_16 
REMARK       I    between atoms: N_16  and  C_17 
REMARK    6  A    between atoms: C_17  and  C_19 
ROOT
ATOM      1  C   UNL d   1      25.999 -16.428  -0.512  0.00  0.00     0.124 C 
ENDROOT
BRANCH   1   2
ATOM      2  C   UNL d   1      27.432 -16.639   0.030  0.00  0.00     0.132 C 
BRANCH   2   3
ATOM      3  N   UNL d   1      27.700 -15.846   1.219  0.00  0.00    -0.356 N 
ATOM      4  C   UNL d   1      27.281 -14.543   1.429  0.00  0.00     0.252 C 
ATOM      5  O   UNL d   1      26.623 -13.943   0.574  0.00  0.00    -0.268 OA
ATOM      6  H   UNL d   1      28.216 -16.341   1.908  0.00  0.00     0.162 HD
BRANCH   4   7
ATOM      7  C   UNL d   1      27.634 -13.835   2.735  0.00  0.00     0.037 A 
ATOM      8  C   UNL d   1      28.138 -14.643   3.783  0.00  0.00     0.017 A 
ATOM      9  C   UNL d   1      28.501 -14.102   5.027  0.00  0.00     0.001 A 
ATOM     10  C   UNL d   1      28.363 -12.741   5.258  0.00  0.00     0.001 A 
ATOM     11  C   UNL d   1      27.869 -11.926   4.248  0.00  0.00     0.007 A 
ATOM     12  C   UNL d   1      27.506 -12.449   2.989  0.00  0.00    -0.046 A 
ATOM     13  C   UNL d   1      27.007 -11.454   1.991  0.00  0.00     0.049 C 
ENDBRANCH   4   7
ENDBRANCH   2   3
ENDBRANCH   1   2
BRANCH   1  14
ATOM     14  C   UNL d   1      25.093 -17.574  -0.068  0.00  0.00     0.237 C 
ATOM     15  O   UNL d   1      25.509 -18.517   0.606  0.00  0.00    -0.272 OA
ATOM     16  N   UNL d   1      23.766 -17.511  -0.453  0.00  0.00    -0.267 N 
ATOM     17  H   UNL d   1      23.349 -16.776  -1.028  0.00  0.00     0.190 HD
BRANCH  16  18
ATOM     18  N   UNL d   1      22.893 -18.576  -0.049  0.00  0.00    -0.265 N 
ATOM     19  C   UNL d   1      21.586 -18.575  -0.491  0.00  0.00     0.265 C 
ATOM     20  O   UNL d   1      21.191 -17.663  -1.233  0.00  0.00    -0.269 OA
ATOM     21  H   UNL d   1      23.313 -19.295   0.535  0.00  0.00     0.190 HD
BRANCH  19  22
ATOM     22  C   UNL d   1      20.625 -19.739  -0.097  0.00  0.00     0.215 C 
ATOM     23  C   UNL d   1      19.156 -19.804  -0.500  0.00  0.00     0.044 C 
ATOM     24  C   UNL d   1      18.551 -20.666   0.595  0.00  0.00     0.029 C 
ATOM     25  C   UNL d   1      19.357 -20.272   1.809  0.00  0.00     0.168 C 
ATOM     26  O   UNL d   1      20.653 -19.901   1.336  0.00  0.00    -0.376 OA
ENDBRANCH  19  22
ENDBRANCH  16  18
ENDBRANCH   1  14
TORSDOF 6
ENDMDL
MODEL 5
REMARK VINA RESULT:    -7.483      1.608      1.874
REMARK INTER + INTRA:         -11.098
REMARK INTER:                  -9.273
REMARK INTRA:                  -1.826
REMARK CONF_INDEPENDENT:        1.790
REMARK UNBOUND:                -1.826
REMARK  6 active torsions:
REMARK  status: ('A' for Active; 'I' for Inactive)
REMARK    1  A    between atoms: C_7  and  C_8 
REMARK       I    between atoms: C_8  and  N_10 
REMARK    2  A    between atoms: N_10  and  C_11 
REMARK    3  A    between atoms: C_11  and  C_12 
REMARK    4  A    between atoms: C_12  and  C_13 
REMARK       I    between atoms: C_13  and  N_15 
REMARK    5  A    between atoms: N_15  and  N_16 
REMARK       I    between atoms: N_16  and  C_17 
REMARK    6  A    between atoms: C_17  and  C_19 
ROOT
ATOM      1  C   UNL d   1      26.430 -16.454  -0.079  0.00  0.00     0.124 C 
ENDROOT
BRANCH   1   2
ATOM      2  C   UNL d   1      27.601 -16.990  -0.938  0.00  0.00     0.132 C 
BRANCH   2   3
ATOM      3  N   UNL d   1      27.822 -16.195  -2.135  0.00  0.00    -0.356 N 
ATOM      4  C   UNL d   1      26.833 -15.626  -2.919  0.00  0.00     0.252 C 
ATOM      5  O   UNL d   1      25.640 -15.771  -2.637  0.00  0.00    -0.268 OA
ATOM      6  H   UNL d   1      28.785 -16.071  -2.346  0.00  0.00     0.162 HD
BRANCH   4   7
ATOM      7  C   UNL d   1      27.217 -14.808  -4.149  0.00  0.00     0.037 A 
ATOM      8  C   UNL d   1      28.316 -15.277  -4.910  0.00  0.00     0.017 A 
ATOM      9  C   UNL d   1      28.757 -14.610  -6.064  0.00  0.00     0.001 A 
ATOM     10  C   UNL d   1      28.117 -13.453  -6.484  0.00  0.00     0.001 A 
ATOM     11  C   UNL d   1      27.037 -12.970  -5.755  0.00  0.00     0.007 A 
ATOM     12  C   UNL d   1      26.574 -13.630  -4.598  0.00  0.00    -0.046 A 
ATOM     13  C   UNL d   1      25.393 -13.008  -3.924  0.00  0.00     0.049 C 
ENDBRANCH   4   7
ENDBRANCH   2   3
ENDBRANCH   1   2
BRANCH   1  14
ATOM     14  C   UNL d   1      25.470 -17.588   0.267  0.00  0.00     0.237 C 
ATOM     15  O   UNL d   1      25.815 -18.562   0.937  0.00  0.00    -0.272 OA
ATOM     16  N   UNL d   1      24.173 -17.478  -0.203  0.00  0.00    -0.267 N 
ATOM     17  H   UNL d   1      23.813 -16.715  -0.780  0.00  0.00     0.190 HD
BRANCH  16  18
ATOM     18  N   UNL d   1      23.248 -18.531   0.109  0.00  0.00    -0.265 N 
ATOM     19  C   UNL d   1      21.931 -18.401  -0.279  0.00  0.00     0.265 C 
ATOM     20  O   UNL d   1      21.570 -17.388  -0.893  0.00  0.00    -0.269 OA
ATOM     21  H   UNL d   1      23.641 -19.337   0.588  0.00  0.00     0.190 HD
BRANCH  19  22
ATOM     22  C   UNL d   1      20.913 -19.547   0.015  0.00  0.00     0.215 C 
ATOM     23  C   UNL d   1      19.567 -19.690  -0.689  0.00  0.00     0.044 C 
ATOM     24  C   UNL d   1      18.742 -20.456   0.332  0.00  0.00     0.029 C 
ATOM     25  C   UNL d   1      19.260 -19.923   1.645  0.00  0.00     0.168 C 
ATOM     26  O   UNL d   1      20.627 -19.565   1.429  0.00  0.00    -0.376 OA
ENDBRANCH  19  22
ENDBRANCH  16  18
ENDBRANCH   1  14
TORSDOF 6
ENDMDL
MODEL 6
REMARK VINA RESULT:    -7.217      2.907      4.536
REMARK INTER + INTRA:         -11.284
REMARK INTER:                  -9.007
REMARK INTRA:                  -2.277
REMARK CONF_INDEPENDENT:        1.790
REMARK UNBOUND:                -2.277
REMARK  6 active torsions:
REMARK  status: ('A' for Active; 'I' for Inactive)
REMARK    1  A    between atoms: C_7  and  C_8 
REMARK       I    between atoms: C_8  and  N_10 
REMARK    2  A    between atoms: N_10  and  C_11 
REMARK    3  A    between atoms: C_11  and  C_12 
REMARK    4  A    between atoms: C_12  and  C_13 
REMARK       I    between atoms: C_13  and  N_15 
REMARK    5  A    between atoms: N_15  and  N_16 
REMARK       I    between atoms: N_16  and  C_17 
REMARK    6  A    between atoms: C_17  and  C_19 
ROOT
ATOM      1  C   UNL d   1      24.762 -17.240  -1.991  0.00  0.00     0.124 C 
ENDROOT
BRANCH   1   2
ATOM      2  C   UNL d   1      25.131 -15.738  -2.007  0.00  0.00     0.132 C 
BRANCH   2   3
ATOM      3  N   UNL d   1      25.767 -15.308  -0.773  0.00  0.00    -0.356 N 
ATOM      4  C   UNL d   1      26.761 -14.349  -0.670  0.00  0.00     0.252 C 
ATOM      5  O   UNL d   1      27.192 -13.773  -1.674  0.00  0.00    -0.268 OA
ATOM      6  H   UNL d   1      25.404 -15.764   0.031  0.00  0.00     0.162 HD
BRANCH   4   7
ATOM      7  C   UNL d   1      27.333 -13.994   0.699  0.00  0.00     0.037 A 
ATOM      8  C   UNL d   1      26.604 -13.059   1.473  0.00  0.00     0.017 A 
ATOM      9  C   UNL d   1      27.030 -12.660   2.750  0.00  0.00     0.001 A 
ATOM     10  C   UNL d   1      28.201 -13.180   3.284  0.00  0.00     0.001 A 
ATOM     11  C   UNL d   1      28.937 -14.098   2.546  0.00  0.00     0.007 A 
ATOM     12  C   UNL d   1      28.521 -14.516   1.265  0.00  0.00    -0.046 A 
ATOM     13  C   UNL d   1      29.401 -15.521   0.592  0.00  0.00     0.049 C 
ENDBRANCH   4   7
ENDBRANCH   2   3
ENDBRANCH   1   2
BRANCH   1  14
ATOM     14  C   UNL d   1      23.694 -17.509  -0.934  0.00  0.00     0.237 C 
ATOM     15  O   UNL d   1      23.806 -17.119   0.228  0.00  0.00    -0.272 OA
ATOM     16  N   UNL d   1      22.575 -18.214  -1.339  0.00  0.00    -0.267 N 
ATOM     17  H   UNL d   1      22.415 -18.589  -2.276  0.00  0.00     0.190 HD
BRANCH  16  18
ATOM     18  N   UNL d   1      21.554 -18.481  -0.365  0.00  0.00    -0.265 N 
ATOM     19  C   UNL d   1      20.467 -19.248  -0.728  0.00  0.00     0.265 C 
ATOM     20  O   UNL d   1      20.392 -19.699  -1.880  0.00  0.00    -0.269 OA
ATOM     21  H   UNL d   1      21.716 -18.095   0.561  0.00  0.00     0.190 HD
BRANCH  19  22
ATOM     22  C   UNL d   1      19.361 -19.584   0.321  0.00  0.00     0.215 C 
ATOM     23  C   UNL d   1      19.652 -20.033   1.749  0.00  0.00     0.044 C 
ATOM     24  C   UNL d   1      18.405 -20.827   2.105  0.00  0.00     0.029 C 
ATOM     25  C   UNL d   1      18.035 -21.467   0.790  0.00  0.00     0.168 C 
ATOM     26  O   UNL d   1      18.476 -20.577  -0.237  0.00  0.00    -0.376 OA
ENDBRANCH  19  22
ENDBRANCH  16  18
ENDBRANCH   1  14
TORSDOF 6
ENDMDL
MODEL 7
REMARK VINA RESULT:    -6.506      4.134      9.521
REMARK INTER + INTRA:         -10.777
REMARK INTER:                  -8.296
REMARK INTRA:                  -2.481
REMARK CONF_INDEPENDENT:        1.790
REMARK UNBOUND:                -2.481
REMARK  6 active torsions:
REMARK  status: ('A' for Active; 'I' for Inactive)
REMARK    1  A    between atoms: C_7  and  C_8 
REMARK       I    between atoms: C_8  and  N_10 
REMARK    2  A    between atoms: N_10  and  C_11 
REMARK    3  A    between atoms: C_11  and  C_12 
REMARK    4  A    between atoms: C_12  and  C_13 
REMARK       I    between atoms: C_13  and  N_15 
REMARK    5  A    between atoms: N_15  and  N_16 
REMARK       I    between atoms: N_16  and  C_17 
REMARK    6  A    between atoms: C_17  and  C_19 
ROOT
ATOM      1  C   UNL d   1      27.025 -13.334  -5.334  0.00  0.00     0.124 C 
ENDROOT
BRANCH   1   2
ATOM      2  C   UNL d   1      25.793 -13.374  -4.400  0.00  0.00     0.132 C 
BRANCH   2   3
ATOM      3  N   UNL d   1      25.885 -14.427  -3.402  0.00  0.00    -0.356 N 
ATOM      4  C   UNL d   1      24.834 -14.910  -2.641  0.00  0.00     0.252 C 
ATOM      5  O   UNL d   1      23.695 -14.450  -2.769  0.00  0.00    -0.268 OA
ATOM      6  H   UNL d   1      26.801 -14.801  -3.316  0.00  0.00     0.162 HD
BRANCH   4   7
ATOM      7  C   UNL d   1      25.080 -16.028  -1.631  0.00  0.00     0.037 A 
ATOM      8  C   UNL d   1      26.421 -16.450  -1.461  0.00  0.00     0.017 A 
ATOM      9  C   UNL d   1      26.769 -17.466  -0.556  0.00  0.00     0.001 A 
ATOM     10  C   UNL d   1      25.786 -18.092   0.196  0.00  0.00     0.001 A 
ATOM     11  C   UNL d   1      24.461 -17.699   0.047  0.00  0.00     0.007 A 
ATOM     12  C   UNL d   1      24.093 -16.675  -0.850  0.00  0.00    -0.046 A 
ATOM     13  C   UNL d   1      22.636 -16.344  -0.895  0.00  0.00     0.049 C 
ENDBRANCH   4   7
ENDBRANCH   2   3
ENDBRANCH   1   2
BRANCH   1  14
ATOM     14  C   UNL d   1      27.588 -14.740  -5.524  0.00  0.00     0.237 C 
ATOM     15  O   UNL d   1      26.928 -15.751  -5.281  0.00  0.00    -0.272 OA
ATOM     16  N   UNL d   1      28.886 -14.838  -5.991  0.00  0.00    -0.267 N 
ATOM     17  H   UNL d   1      29.505 -14.052  -6.196  0.00  0.00     0.190 HD
BRANCH  16  18
ATOM     18  N   UNL d   1      29.440 -16.150  -6.179  0.00  0.00    -0.265 N 
ATOM     19  C   UNL d   1      30.639 -16.280  -6.848  0.00  0.00     0.265 C 
ATOM     20  O   UNL d   1      31.220 -15.269  -7.268  0.00  0.00    -0.269 OA
ATOM     21  H   UNL d   1      28.909 -16.916  -5.773  0.00  0.00     0.190 HD
BRANCH  19  22
ATOM     22  C   UNL d   1      31.282 -17.690  -7.034  0.00  0.00     0.215 C 
ATOM     23  C   UNL d   1      31.529 -18.340  -8.391  0.00  0.00     0.044 C 
ATOM     24  C   UNL d   1      31.516 -19.822  -8.054  0.00  0.00     0.029 C 
ATOM     25  C   UNL d   1      30.488 -19.901  -6.952  0.00  0.00     0.168 C 
ATOM     26  O   UNL d   1      30.530 -18.649  -6.263  0.00  0.00    -0.376 OA
ENDBRANCH  19  22
ENDBRANCH  16  18
ENDBRANCH   1  14
TORSDOF 6
ENDMDL
MODEL 8
REMARK VINA RESULT:    -5.925      4.529      8.317
REMARK INTER + INTRA:         -10.882
REMARK INTER:                  -7.715
REMARK INTRA:                  -3.167
REMARK CONF_INDEPENDENT:        1.790
REMARK UNBOUND:                -3.167
REMARK  6 active torsions:
REMARK  status: ('A' for Active; 'I' for Inactive)
REMARK    1  A    between atoms: C_7  and  C_8 
REMARK       I    between atoms: C_8  and  N_10 
REMARK    2  A    between atoms: N_10  and  C_11 
REMARK    3  A    between atoms: C_11  and  C_12 
REMARK    4  A    between atoms: C_12  and  C_13 
REMARK       I    between atoms: C_13  and  N_15 
REMARK    5  A    between atoms: N_15  and  N_16 
REMARK       I    between atoms: N_16  and  C_17 
REMARK    6  A    between atoms: C_17  and  C_19 
ROOT
ATOM      1  C   UNL d   1      29.633 -15.774  -1.913  0.00  0.00     0.124 C 
ENDROOT
BRANCH   1   2
ATOM      2  C   UNL d   1      28.272 -15.325  -2.497  0.00  0.00     0.132 C 
BRANCH   2   3
ATOM      3  N   UNL d   1      27.163 -16.124  -2.003  0.00  0.00    -0.356 N 
ATOM      4  C   UNL d   1      26.049 -15.634  -1.343  0.00  0.00     0.252 C 
ATOM      5  O   UNL d   1      25.925 -14.426  -1.120  0.00  0.00    -0.268 OA
ATOM      6  H   UNL d   1      27.264 -17.092  -2.199  0.00  0.00     0.162 HD
BRANCH   4   7
ATOM      7  C   UNL d   1      24.956 -16.596  -0.884  0.00  0.00     0.037 A 
ATOM      8  C   UNL d   1      23.627 -16.277  -1.255  0.00  0.00     0.017 A 
ATOM      9  C   UNL d   1      22.541 -17.090  -0.895  0.00  0.00     0.001 A 
ATOM     10  C   UNL d   1      22.753 -18.239  -0.148  0.00  0.00     0.001 A 
ATOM     11  C   UNL d   1      24.046 -18.576   0.232  0.00  0.00     0.007 A 
ATOM     12  C   UNL d   1      25.151 -17.776  -0.127  0.00  0.00    -0.046 A 
ATOM     13  C   UNL d   1      26.486 -18.268   0.334  0.00  0.00     0.049 C 
ENDBRANCH   4   7
ENDBRANCH   2   3
ENDBRANCH   1   2
BRANCH   1  14
ATOM     14  C   UNL d   1      29.597 -15.711  -0.388  0.00  0.00     0.237 C 
ATOM     15  O   UNL d   1      30.414 -16.307   0.314  0.00  0.00    -0.272 OA
ATOM     16  N   UNL d   1      28.599 -14.943   0.185  0.00  0.00    -0.267 N 
ATOM     17  H   UNL d   1      27.873 -14.436  -0.325  0.00  0.00     0.190 HD
BRANCH  16  18
ATOM     18  N   UNL d   1      28.543 -14.865   1.618  0.00  0.00    -0.265 N 
ATOM     19  C   UNL d   1      27.540 -14.125   2.209  0.00  0.00     0.265 C 
ATOM     20  O   UNL d   1      26.705 -13.547   1.499  0.00  0.00    -0.269 OA
ATOM     21  H   UNL d   1      29.252 -15.396   2.117  0.00  0.00     0.190 HD
BRANCH  19  22
ATOM     22  C   UNL d   1      27.433 -14.055   3.764  0.00  0.00     0.215 C 
ATOM     23  C   UNL d   1      27.869 -12.851   4.593  0.00  0.00     0.044 C 
ATOM     24  C   UNL d   1      28.188 -13.477   5.941  0.00  0.00     0.029 C 
ATOM     25  C   UNL d   1      28.747 -14.825   5.556  0.00  0.00     0.168 C 
ATOM     26  O   UNL d   1      28.113 -15.195   4.330  0.00  0.00    -0.376 OA
ENDBRANCH  19  22
ENDBRANCH  16  18
ENDBRANCH   1  14
TORSDOF 6
ENDMDL
MODEL 9
REMARK VINA RESULT:    -5.673      4.480      9.458
REMARK INTER + INTRA:         -10.630
REMARK INTER:                  -7.463
REMARK INTRA:                  -3.166
REMARK CONF_INDEPENDENT:        1.790
REMARK UNBOUND:                -3.166
REMARK  6 active torsions:
REMARK  status: ('A' for Active; 'I' for Inactive)
REMARK    1  A    between atoms: C_7  and  C_8 
REMARK       I    between atoms: C_8  and  N_10 
REMARK    2  A    between atoms: N_10  and  C_11 
REMARK    3  A    between atoms: C_11  and  C_12 
REMARK    4  A    between atoms: C_12  and  C_13 
REMARK       I    between atoms: C_13  and  N_15 
REMARK    5  A    between atoms: N_15  and  N_16 
REMARK       I    between atoms: N_16  and  C_17 
REMARK    6  A    between atoms: C_17  and  C_19 
ROOT
ATOM      1  C   UNL d   1      26.842 -11.382  -3.044  0.00  0.00     0.124 C 
ENDROOT
BRANCH   1   2
ATOM      2  C   UNL d   1      25.538 -12.191  -3.247  0.00  0.00     0.132 C 
BRANCH   2   3
ATOM      3  N   UNL d   1      25.500 -13.397  -2.436  0.00  0.00    -0.356 N 
ATOM      4  C   UNL d   1      25.313 -14.683  -2.913  0.00  0.00     0.252 C 
ATOM      5  O   UNL d   1      25.156 -14.895  -4.120  0.00  0.00    -0.268 OA
ATOM      6  H   UNL d   1      25.642 -13.220  -1.469  0.00  0.00     0.162 HD
BRANCH   4   7
ATOM      7  C   UNL d   1      25.302 -15.859  -1.940  0.00  0.00     0.037 A 
ATOM      8  C   UNL d   1      24.035 -16.385  -1.590  0.00  0.00     0.017 A 
ATOM      9  C   UNL d   1      23.900 -17.469  -0.708  0.00  0.00     0.001 A 
ATOM     10  C   UNL d   1      25.028 -18.051  -0.146  0.00  0.00     0.001 A 
ATOM     11  C   UNL d   1      26.284 -17.553  -0.471  0.00  0.00     0.007 A 
ATOM     12  C   UNL d   1      26.440 -16.470  -1.361  0.00  0.00    -0.046 A 
ATOM     13  C   UNL d   1      27.849 -16.050  -1.634  0.00  0.00     0.049 C 
ENDBRANCH   4   7
ENDBRANCH   2   3
ENDBRANCH   1   2
BRANCH   1  14
ATOM     14  C   UNL d   1      27.947 -11.932  -3.941  0.00  0.00     0.237 C 
ATOM     15  O   UNL d   1      28.976 -11.299  -4.180  0.00  0.00    -0.272 OA
ATOM     16  N   UNL d   1      27.750 -13.190  -4.481  0.00  0.00    -0.267 N 
ATOM     17  H   UNL d   1      26.919 -13.769  -4.349  0.00  0.00     0.190 HD
BRANCH  16  18
ATOM     18  N   UNL d   1      28.775 -13.731  -5.329  0.00  0.00    -0.265 N 
ATOM     19  C   UNL d   1      28.574 -14.961  -5.920  0.00  0.00     0.265 C 
ATOM     20  O   UNL d   1      27.515 -15.573  -5.718  0.00  0.00    -0.269 OA
ATOM     21  H   UNL d   1      29.595 -13.145  -5.460  0.00  0.00     0.190 HD
BRANCH  19  22
ATOM     22  C   UNL d   1      29.655 -15.556  -6.875  0.00  0.00     0.215 C 
ATOM     23  C   UNL d   1      30.413 -16.851  -6.601  0.00  0.00     0.044 C 
ATOM     24  C   UNL d   1      31.702 -16.648  -7.379  0.00  0.00     0.029 C 
ATOM     25  C   UNL d   1      31.945 -15.166  -7.239  0.00  0.00     0.168 C 
ATOM     26  O   UNL d   1      30.660 -14.551  -7.124  0.00  0.00    -0.376 OA
ENDBRANCH  19  22
ENDBRANCH  16  18
ENDBRANCH   1  14
TORSDOF 6
ENDMDL
