MODEL 1
REMARK VINA RESULT:   -11.582      0.000      0.000
REMARK INTER + INTRA:         -16.726
REMARK INTER:                 -15.162
REMARK INTRA:                  -1.564
REMARK CONF_INDEPENDENT:        3.580
REMARK UNBOUND:                -1.564
REMARK  12 active torsions:
REMARK  status: ('A' for Active; 'I' for Inactive)
REMARK    1  A    between atoms: C_2  and  N_3 
REMARK    2  A    between atoms: N_3  and  C_4 
REMARK    3  A    between atoms: N_3  and  C_6 
REMARK    4  A    between atoms: C_9  and  N_10 
REMARK       I    between atoms: N_10  and  C_11 
REMARK    5  A    between atoms: C_11  and  C_13 
REMARK    6  A    between atoms: C_13  and  S_14 
REMARK    7  A    between atoms: S_14  and  C_15 
REMARK    8  A    between atoms: C_18  and  N_19 
REMARK    9  A    between atoms: N_19  and  N_20 
REMARK   10  A    between atoms: C_21  and  C_22 
REMARK   11  A    between atoms: C_25  and  C_26 
REMARK   12  A    between atoms: C_26  and  O_28 
ROOT
ATOM      1  C   UNL d   1      28.475 -13.530   0.717  0.00  0.00     0.226 A 
ATOM      2  N   UNL d   1      29.573 -13.843   1.407  0.00  0.00    -0.132 NA
ATOM      3  N   UNL d   1      29.491 -15.200   1.412  0.00  0.00    -0.103 N 
ATOM      4  C   UNL d   1      28.383 -15.660   0.741  0.00  0.00     0.739 A 
ATOM      5  N   UNL d   1      27.733 -14.605   0.303  0.00  0.00    -0.034 NA
ATOM      6  H   UNL d   1      30.213 -15.731   1.879  0.00  0.00     0.208 HD
ENDROOT
BRANCH   1   7
ATOM      7  S   UNL d   1      27.947 -11.928   0.329  0.00  0.00    -0.079 SA
BRANCH   7   8
ATOM      8  C   UNL d   1      26.579 -11.454   1.455  0.00  0.00     0.185 C 
BRANCH   8   9
ATOM      9  C   UNL d   1      27.108 -11.619   2.901  0.00  0.00     0.231 C 
ATOM     10  N   UNL d   1      27.674 -12.849   3.269  0.00  0.00    -0.327 N 
ATOM     11  H   UNL d   1      27.668 -13.606   2.593  0.00  0.00     0.169 HD
ATOM     12  O   UNL d   1      27.013 -10.684   3.698  0.00  0.00    -0.272 OA
BRANCH  10  13
ATOM     13  C   UNL d   1      28.174 -13.135   4.586  0.00  0.00     0.034 A 
ATOM     14  C   UNL d   1      28.664 -14.403   4.909  0.00  0.00     0.032 A 
ATOM     15  C   UNL d   1      29.006 -14.712   6.248  0.00  0.00     0.039 A 
ATOM     16  C   UNL d   1      28.959 -13.751   7.278  0.00  0.00     0.134 A 
ATOM     17  C   UNL d   1      28.556 -12.473   6.943  0.00  0.00     0.039 A 
ATOM     18  C   UNL d   1      28.161 -12.190   5.625  0.00  0.00     0.032 A 
BRANCH  16  19
ATOM     19  N   UNL d   1      29.270 -14.192   8.694  0.00  0.00    -0.042 N 
ATOM     20  H   UNL d   1      29.144 -15.203   8.584  0.00  0.00     0.286 HD
BRANCH  19  21
ATOM     21  C   UNL d   1      28.159 -13.907   9.712  0.00  0.00     0.237 C 
ATOM     22  C   UNL d   1      28.512 -14.198  11.158  0.00  0.00     0.035 C 
ENDBRANCH  19  21
BRANCH  19  23
ATOM     23  C   UNL d   1      30.771 -14.032   8.953  0.00  0.00     0.237 C 
ATOM     24  C   UNL d   1      31.520 -15.241   9.473  0.00  0.00     0.035 C 
ENDBRANCH  19  23
ENDBRANCH  16  19
ENDBRANCH  10  13
ENDBRANCH   8   9
ENDBRANCH   7   8
ENDBRANCH   1   7
BRANCH   4  25
ATOM     25  N   UNL d   1      28.081 -16.987   0.598  0.00  0.00    -0.106 N 
ATOM     26  H   UNL d   1      28.815 -17.683   0.493  0.00  0.00     0.208 HD
BRANCH  25  27
ATOM     27  N   UNL d   1      26.766 -17.399   0.570  0.00  0.00    -0.172 NA
ATOM     28  C   UNL d   1      25.993 -16.999  -0.392  0.00  0.00     0.150 C 
BRANCH  28  29
ATOM     29  C   UNL d   1      24.567 -17.442  -0.456  0.00  0.00    -0.017 A 
ATOM     30  C   UNL d   1      23.525 -16.513  -0.539  0.00  0.00     0.014 A 
ATOM     31  C   UNL d   1      22.185 -16.954  -0.580  0.00  0.00     0.018 A 
ATOM     32  C   UNL d   1      21.870 -18.325  -0.600  0.00  0.00     0.039 A 
ATOM     33  C   UNL d   1      22.918 -19.247  -0.487  0.00  0.00     0.018 A 
ATOM     34  C   UNL d   1      24.256 -18.806  -0.417  0.00  0.00     0.014 A 
BRANCH  32  35
ATOM     35  C   UNL d   1      20.432 -18.725  -0.807  0.00  0.00     0.292 C 
ATOM     36  O   UNL d   1      19.532 -17.913  -0.895  0.00  0.00    -0.259 OA
BRANCH  35  37
ATOM     37  O   UNL d   1      20.281 -20.075  -0.925  0.00  0.00    -0.323 OA
ATOM     38  C   UNL d   1      19.706 -20.711   0.230  0.00  0.00     0.213 C 
ENDBRANCH  35  37
ENDBRANCH  32  35
ENDBRANCH  28  29
ENDBRANCH  25  27
ENDBRANCH   4  25
TORSDOF 12
ENDMDL
MODEL 2
REMARK VINA RESULT:   -10.834      5.757      8.382
REMARK INTER + INTRA:         -15.898
REMARK INTER:                 -14.414
REMARK INTRA:                  -1.484
REMARK CONF_INDEPENDENT:        3.580
REMARK UNBOUND:                -1.484
REMARK  12 active torsions:
REMARK  status: ('A' for Active; 'I' for Inactive)
REMARK    1  A    between atoms: C_2  and  N_3 
REMARK    2  A    between atoms: N_3  and  C_4 
REMARK    3  A    between atoms: N_3  and  C_6 
REMARK    4  A    between atoms: C_9  and  N_10 
REMARK       I    between atoms: N_10  and  C_11 
REMARK    5  A    between atoms: C_11  and  C_13 
REMARK    6  A    between atoms: C_13  and  S_14 
REMARK    7  A    between atoms: S_14  and  C_15 
REMARK    8  A    between atoms: C_18  and  N_19 
REMARK    9  A    between atoms: N_19  and  N_20 
REMARK   10  A    between atoms: C_21  and  C_22 
REMARK   11  A    between atoms: C_25  and  C_26 
REMARK   12  A    between atoms: C_26  and  O_28 
ROOT
ATOM      1  C   UNL d   1      29.993 -16.842  -2.138  0.00  0.00     0.226 A 
ATOM      2  N   UNL d   1      30.219 -18.071  -1.670  0.00  0.00    -0.132 NA
ATOM      3  N   UNL d   1      29.466 -18.053  -0.538  0.00  0.00    -0.103 N 
ATOM      4  C   UNL d   1      28.819 -16.853  -0.359  0.00  0.00     0.739 A 
ATOM      5  N   UNL d   1      29.153 -16.081  -1.368  0.00  0.00    -0.034 NA
ATOM      6  H   UNL d   1      29.441 -18.878   0.046  0.00  0.00     0.208 HD
ENDROOT
BRANCH   1   7
ATOM      7  S   UNL d   1      30.660 -16.176  -3.589  0.00  0.00    -0.079 SA
BRANCH   7   8
ATOM      8  C   UNL d   1      29.601 -16.645  -5.012  0.00  0.00     0.185 C 
BRANCH   8   9
ATOM      9  C   UNL d   1      28.587 -15.491  -5.218  0.00  0.00     0.231 C 
ATOM     10  N   UNL d   1      28.571 -14.442  -4.287  0.00  0.00    -0.327 N 
ATOM     11  H   UNL d   1      29.185 -14.500  -3.481  0.00  0.00     0.169 HD
ATOM     12  O   UNL d   1      27.814 -15.520  -6.177  0.00  0.00    -0.272 OA
BRANCH  10  13
ATOM     13  C   UNL d   1      27.661 -13.331  -4.352  0.00  0.00     0.034 A 
ATOM     14  C   UNL d   1      27.682 -12.447  -5.433  0.00  0.00     0.032 A 
ATOM     15  C   UNL d   1      26.889 -11.273  -5.408  0.00  0.00     0.039 A 
ATOM     16  C   UNL d   1      25.991 -10.996  -4.357  0.00  0.00     0.134 A 
ATOM     17  C   UNL d   1      25.907 -11.913  -3.327  0.00  0.00     0.039 A 
ATOM     18  C   UNL d   1      26.740 -13.044  -3.331  0.00  0.00     0.032 A 
BRANCH  16  19
ATOM     19  N   UNL d   1      25.240  -9.680  -4.376  0.00  0.00    -0.042 N 
ATOM     20  H   UNL d   1      24.284 -10.034  -4.265  0.00  0.00     0.286 HD
BRANCH  19  21
ATOM     21  C   UNL d   1      25.113  -9.035  -5.761  0.00  0.00     0.237 C 
ATOM     22  C   UNL d   1      23.764  -8.412  -6.067  0.00  0.00     0.035 C 
ENDBRANCH  19  21
BRANCH  19  23
ATOM     23  C   UNL d   1      25.509  -8.927  -3.069  0.00  0.00     0.237 C 
ATOM     24  C   UNL d   1      26.956  -8.705  -2.681  0.00  0.00     0.035 C 
ENDBRANCH  19  23
ENDBRANCH  16  19
ENDBRANCH  10  13
ENDBRANCH   8   9
ENDBRANCH   7   8
ENDBRANCH   1   7
BRANCH   4  25
ATOM     25  N   UNL d   1      27.994 -16.589   0.700  0.00  0.00    -0.106 N 
ATOM     26  H   UNL d   1      28.339 -16.100   1.523  0.00  0.00     0.208 HD
BRANCH  25  27
ATOM     27  N   UNL d   1      26.680 -17.004   0.677  0.00  0.00    -0.172 NA
ATOM     28  C   UNL d   1      26.007 -16.928  -0.430  0.00  0.00     0.150 C 
BRANCH  28  29
ATOM     29  C   UNL d   1      24.586 -17.385  -0.489  0.00  0.00    -0.017 A 
ATOM     30  C   UNL d   1      23.540 -16.472  -0.661  0.00  0.00     0.014 A 
ATOM     31  C   UNL d   1      22.204 -16.925  -0.695  0.00  0.00     0.018 A 
ATOM     32  C   UNL d   1      21.897 -18.296  -0.619  0.00  0.00     0.039 A 
ATOM     33  C   UNL d   1      22.948 -19.199  -0.418  0.00  0.00     0.018 A 
ATOM     34  C   UNL d   1      24.282 -18.745  -0.354  0.00  0.00     0.014 A 
BRANCH  32  35
ATOM     35  C   UNL d   1      20.466 -18.720  -0.824  0.00  0.00     0.292 C 
ATOM     36  O   UNL d   1      19.550 -17.925  -0.895  0.00  0.00    -0.259 OA
BRANCH  35  37
ATOM     37  O   UNL d   1      20.341 -20.072  -0.961  0.00  0.00    -0.323 OA
ATOM     38  C   UNL d   1      19.905 -20.751   0.231  0.00  0.00     0.213 C 
ENDBRANCH  35  37
ENDBRANCH  32  35
ENDBRANCH  28  29
ENDBRANCH  25  27
ENDBRANCH   4  25
TORSDOF 12
ENDMDL
MODEL 3
REMARK VINA RESULT:   -10.695      5.982      8.551
REMARK INTER + INTRA:         -16.062
REMARK INTER:                 -14.275
REMARK INTRA:                  -1.787
REMARK CONF_INDEPENDENT:        3.580
REMARK UNBOUND:                -1.787
REMARK  12 active torsions:
REMARK  status: ('A' for Active; 'I' for Inactive)
REMARK    1  A    between atoms: C_2  and  N_3 
REMARK    2  A    between atoms: N_3  and  C_4 
REMARK    3  A    between atoms: N_3  and  C_6 
REMARK    4  A    between atoms: C_9  and  N_10 
REMARK       I    between atoms: N_10  and  C_11 
REMARK    5  A    between atoms: C_11  and  C_13 
REMARK    6  A    between atoms: C_13  and  S_14 
REMARK    7  A    between atoms: S_14  and  C_15 
REMARK    8  A    between atoms: C_18  and  N_19 
REMARK    9  A    between atoms: N_19  and  N_20 
REMARK   10  A    between atoms: C_21  and  C_22 
REMARK   11  A    between atoms: C_25  and  C_26 
REMARK   12  A    between atoms: C_26  and  O_28 
ROOT
ATOM      1  C   UNL d   1      30.810 -17.804  -2.394  0.00  0.00     0.226 A 
ATOM      2  N   UNL d   1      31.156 -18.818  -1.598  0.00  0.00    -0.132 NA
ATOM      3  N   UNL d   1      30.308 -18.621  -0.554  0.00  0.00    -0.103 N 
ATOM      4  C   UNL d   1      29.492 -17.530  -0.740  0.00  0.00     0.739 A 
ATOM      5  N   UNL d   1      29.810 -17.006  -1.903  0.00  0.00    -0.034 NA
ATOM      6  H   UNL d   1      30.342 -19.259   0.230  0.00  0.00     0.208 HD
ENDROOT
BRANCH   1   7
ATOM      7  S   UNL d   1      31.509 -17.445  -3.935  0.00  0.00    -0.079 SA
BRANCH   7   8
ATOM      8  C   UNL d   1      30.263 -17.742  -5.247  0.00  0.00     0.185 C 
BRANCH   8   9
ATOM      9  C   UNL d   1      29.522 -16.401  -5.477  0.00  0.00     0.231 C 
ATOM     10  N   UNL d   1      28.695 -15.911  -4.456  0.00  0.00    -0.327 N 
ATOM     11  H   UNL d   1      28.565 -16.479  -3.623  0.00  0.00     0.169 HD
ATOM     12  O   UNL d   1      29.660 -15.800  -6.544  0.00  0.00    -0.272 OA
BRANCH  10  13
ATOM     13  C   UNL d   1      27.934 -14.697  -4.558  0.00  0.00     0.034 A 
ATOM     14  C   UNL d   1      28.546 -13.493  -4.914  0.00  0.00     0.032 A 
ATOM     15  C   UNL d   1      27.815 -12.280  -4.859  0.00  0.00     0.039 A 
ATOM     16  C   UNL d   1      26.442 -12.244  -4.540  0.00  0.00     0.134 A 
ATOM     17  C   UNL d   1      25.815 -13.445  -4.271  0.00  0.00     0.039 A 
ATOM     18  C   UNL d   1      26.560 -14.635  -4.270  0.00  0.00     0.032 A 
BRANCH  16  19
ATOM     19  N   UNL d   1      25.761 -10.894  -4.430  0.00  0.00    -0.042 N 
ATOM     20  H   UNL d   1      24.784 -11.201  -4.451  0.00  0.00     0.286 HD
BRANCH  19  21
ATOM     21  C   UNL d   1      25.791 -10.055  -5.714  0.00  0.00     0.237 C 
ATOM     22  C   UNL d   1      25.909 -10.844  -7.004  0.00  0.00     0.035 C 
ENDBRANCH  19  21
BRANCH  19  23
ATOM     23  C   UNL d   1      25.949 -10.350  -3.011  0.00  0.00     0.237 C 
ATOM     24  C   UNL d   1      25.787  -8.857  -2.812  0.00  0.00     0.035 C 
ENDBRANCH  19  23
ENDBRANCH  16  19
ENDBRANCH  10  13
ENDBRANCH   8   9
ENDBRANCH   7   8
ENDBRANCH   1   7
BRANCH   4  25
ATOM     25  N   UNL d   1      28.548 -17.128   0.164  0.00  0.00    -0.106 N 
ATOM     26  H   UNL d   1      28.787 -16.501   0.929  0.00  0.00     0.208 HD
BRANCH  25  27
ATOM     27  N   UNL d   1      27.253 -17.590   0.065  0.00  0.00    -0.172 NA
ATOM     28  C   UNL d   1      26.301 -16.758  -0.228  0.00  0.00     0.150 C 
BRANCH  28  29
ATOM     29  C   UNL d   1      24.889 -17.233  -0.357  0.00  0.00    -0.017 A 
ATOM     30  C   UNL d   1      23.836 -16.329  -0.533  0.00  0.00     0.014 A 
ATOM     31  C   UNL d   1      22.510 -16.800  -0.634  0.00  0.00     0.018 A 
ATOM     32  C   UNL d   1      22.222 -18.177  -0.620  0.00  0.00     0.039 A 
ATOM     33  C   UNL d   1      23.279 -19.072  -0.414  0.00  0.00     0.018 A 
ATOM     34  C   UNL d   1      24.602 -18.601  -0.284  0.00  0.00     0.014 A 
BRANCH  32  35
ATOM     35  C   UNL d   1      20.806 -18.613  -0.894  0.00  0.00     0.292 C 
ATOM     36  O   UNL d   1      19.910 -17.826  -1.123  0.00  0.00    -0.259 OA
BRANCH  35  37
ATOM     37  O   UNL d   1      20.674 -19.971  -0.896  0.00  0.00    -0.323 OA
ATOM     38  C   UNL d   1      19.928 -20.496   0.218  0.00  0.00     0.213 C 
ENDBRANCH  35  37
ENDBRANCH  32  35
ENDBRANCH  28  29
ENDBRANCH  25  27
ENDBRANCH   4  25
TORSDOF 12
ENDMDL
MODEL 4
REMARK VINA RESULT:   -10.057      2.861      4.165
REMARK INTER + INTRA:         -15.406
REMARK INTER:                 -13.637
REMARK INTRA:                  -1.769
REMARK CONF_INDEPENDENT:        3.580
REMARK UNBOUND:                -1.769
REMARK  12 active torsions:
REMARK  status: ('A' for Active; 'I' for Inactive)
REMARK    1  A    between atoms: C_2  and  N_3 
REMARK    2  A    between atoms: N_3  and  C_4 
REMARK    3  A    between atoms: N_3  and  C_6 
REMARK    4  A    between atoms: C_9  and  N_10 
REMARK       I    between atoms: N_10  and  C_11 
REMARK    5  A    between atoms: C_11  and  C_13 
REMARK    6  A    between atoms: C_13  and  S_14 
REMARK    7  A    between atoms: S_14  and  C_15 
REMARK    8  A    between atoms: C_18  and  N_19 
REMARK    9  A    between atoms: N_19  and  N_20 
REMARK   10  A    between atoms: C_21  and  C_22 
REMARK   11  A    between atoms: C_25  and  C_26 
REMARK   12  A    between atoms: C_26  and  O_28 
ROOT
ATOM      1  C   UNL d   1      29.820 -16.499  -2.052  0.00  0.00     0.226 A 
ATOM      2  N   UNL d   1      30.420 -17.617  -1.637  0.00  0.00    -0.132 NA
ATOM      3  N   UNL d   1      29.693 -17.895  -0.523  0.00  0.00    -0.103 N 
ATOM      4  C   UNL d   1      28.700 -16.971  -0.301  0.00  0.00     0.739 A 
ATOM      5  N   UNL d   1      28.779 -16.081  -1.265  0.00  0.00    -0.034 NA
ATOM      6  H   UNL d   1      29.927 -18.715   0.020  0.00  0.00     0.208 HD
ENDROOT
BRANCH   1   7
ATOM      7  S   UNL d   1      30.251 -15.582  -3.455  0.00  0.00    -0.079 SA
BRANCH   7   8
ATOM      8  C   UNL d   1      31.720 -14.552  -3.075  0.00  0.00     0.185 C 
BRANCH   8   9
ATOM      9  C   UNL d   1      31.808 -14.444  -1.532  0.00  0.00     0.231 C 
ATOM     10  N   UNL d   1      30.622 -14.256  -0.807  0.00  0.00    -0.327 N 
ATOM     11  H   UNL d   1      29.753 -14.141  -1.320  0.00  0.00     0.169 HD
ATOM     12  O   UNL d   1      32.905 -14.512  -0.975  0.00  0.00    -0.272 OA
BRANCH  10  13
ATOM     13  C   UNL d   1      30.574 -14.113   0.623  0.00  0.00     0.034 A 
ATOM     14  C   UNL d   1      29.593 -13.329   1.235  0.00  0.00     0.032 A 
ATOM     15  C   UNL d   1      29.653 -13.074   2.627  0.00  0.00     0.039 A 
ATOM     16  C   UNL d   1      30.629 -13.662   3.457  0.00  0.00     0.134 A 
ATOM     17  C   UNL d   1      31.550 -14.506   2.866  0.00  0.00     0.039 A 
ATOM     18  C   UNL d   1      31.519 -14.706   1.477  0.00  0.00     0.032 A 
BRANCH  16  19
ATOM     19  N   UNL d   1      30.663 -13.271   4.921  0.00  0.00    -0.042 N 
ATOM     20  H   UNL d   1      31.518 -13.762   5.203  0.00  0.00     0.286 HD
BRANCH  19  21
ATOM     21  C   UNL d   1      29.646 -14.004   5.804  0.00  0.00     0.237 C 
ATOM     22  C   UNL d   1      28.728 -14.967   5.075  0.00  0.00     0.035 C 
ENDBRANCH  19  21
BRANCH  19  23
ATOM     23  C   UNL d   1      31.033 -11.789   5.038  0.00  0.00     0.237 C 
ATOM     24  C   UNL d   1      30.562 -11.050   6.273  0.00  0.00     0.035 C 
ENDBRANCH  19  23
ENDBRANCH  16  19
ENDBRANCH  10  13
ENDBRANCH   8   9
ENDBRANCH   7   8
ENDBRANCH   1   7
BRANCH   4  25
ATOM     25  N   UNL d   1      27.828 -17.035   0.751  0.00  0.00    -0.106 N 
ATOM     26  H   UNL d   1      28.103 -16.721   1.679  0.00  0.00     0.208 HD
BRANCH  25  27
ATOM     27  N   UNL d   1      26.562 -17.550   0.573  0.00  0.00    -0.172 NA
ATOM     28  C   UNL d   1      25.748 -16.970  -0.254  0.00  0.00     0.150 C 
BRANCH  28  29
ATOM     29  C   UNL d   1      24.375 -17.515  -0.479  0.00  0.00    -0.017 A 
ATOM     30  C   UNL d   1      24.141 -18.894  -0.506  0.00  0.00     0.014 A 
ATOM     31  C   UNL d   1      22.839 -19.386  -0.738  0.00  0.00     0.018 A 
ATOM     32  C   UNL d   1      21.745 -18.512  -0.885  0.00  0.00     0.039 A 
ATOM     33  C   UNL d   1      21.994 -17.134  -0.885  0.00  0.00     0.018 A 
ATOM     34  C   UNL d   1      23.300 -16.642  -0.683  0.00  0.00     0.014 A 
BRANCH  32  35
ATOM     35  C   UNL d   1      20.363 -19.106  -0.968  0.00  0.00     0.292 C 
ATOM     36  O   UNL d   1      19.962 -19.700  -1.950  0.00  0.00    -0.259 OA
BRANCH  35  37
ATOM     37  O   UNL d   1      19.656 -18.936   0.186  0.00  0.00    -0.323 OA
ATOM     38  C   UNL d   1      19.459 -20.144   0.944  0.00  0.00     0.213 C 
ENDBRANCH  35  37
ENDBRANCH  32  35
ENDBRANCH  28  29
ENDBRANCH  25  27
ENDBRANCH   4  25
TORSDOF 12
ENDMDL
MODEL 5
REMARK VINA RESULT:   -10.036      5.477      9.465
REMARK INTER + INTRA:         -15.419
REMARK INTER:                 -13.616
REMARK INTRA:                  -1.803
REMARK CONF_INDEPENDENT:        3.580
REMARK UNBOUND:                -1.803
REMARK  12 active torsions:
REMARK  status: ('A' for Active; 'I' for Inactive)
REMARK    1  A    between atoms: C_2  and  N_3 
REMARK    2  A    between atoms: N_3  and  C_4 
REMARK    3  A    between atoms: N_3  and  C_6 
REMARK    4  A    between atoms: C_9  and  N_10 
REMARK       I    between atoms: N_10  and  C_11 
REMARK    5  A    between atoms: C_11  and  C_13 
REMARK    6  A    between atoms: C_13  and  S_14 
REMARK    7  A    between atoms: S_14  and  C_15 
REMARK    8  A    between atoms: C_18  and  N_19 
REMARK    9  A    between atoms: N_19  and  N_20 
REMARK   10  A    between atoms: C_21  and  C_22 
REMARK   11  A    between atoms: C_25  and  C_26 
REMARK   12  A    between atoms: C_26  and  O_28 
ROOT
ATOM      1  C   UNL d   1      28.870 -14.552  -1.886  0.00  0.00     0.226 A 
ATOM      2  N   UNL d   1      29.896 -15.405  -1.921  0.00  0.00    -0.132 NA
ATOM      3  N   UNL d   1      29.567 -16.237  -0.897  0.00  0.00    -0.103 N 
ATOM      4  C   UNL d   1      28.386 -15.881  -0.291  0.00  0.00     0.739 A 
ATOM      5  N   UNL d   1      27.942 -14.811  -0.912  0.00  0.00    -0.034 NA
ATOM      6  H   UNL d   1      30.183 -17.009  -0.679  0.00  0.00     0.208 HD
ENDROOT
BRANCH   1   7
ATOM      7  S   UNL d   1      28.644 -13.200  -2.942  0.00  0.00    -0.079 SA
BRANCH   7   8
ATOM      8  C   UNL d   1      27.421 -13.642  -4.236  0.00  0.00     0.185 C 
BRANCH   8   9
ATOM      9  C   UNL d   1      27.957 -14.910  -4.948  0.00  0.00     0.231 C 
ATOM     10  N   UNL d   1      29.252 -15.353  -4.638  0.00  0.00    -0.327 N 
ATOM     11  H   UNL d   1      29.814 -14.798  -4.000  0.00  0.00     0.169 HD
ATOM     12  O   UNL d   1      27.252 -15.493  -5.772  0.00  0.00    -0.272 OA
BRANCH  10  13
ATOM     13  C   UNL d   1      29.872 -16.496  -5.250  0.00  0.00     0.034 A 
ATOM     14  C   UNL d   1      30.314 -16.452  -6.574  0.00  0.00     0.032 A 
ATOM     15  C   UNL d   1      30.779 -17.630  -7.208  0.00  0.00     0.039 A 
ATOM     16  C   UNL d   1      30.903 -18.854  -6.520  0.00  0.00     0.134 A 
ATOM     17  C   UNL d   1      30.546 -18.879  -5.186  0.00  0.00     0.039 A 
ATOM     18  C   UNL d   1      30.030 -17.722  -4.582  0.00  0.00     0.032 A 
BRANCH  16  19
ATOM     19  N   UNL d   1      31.337 -20.080  -7.299  0.00  0.00    -0.042 N 
ATOM     20  H   UNL d   1      30.419 -20.509  -7.456  0.00  0.00     0.286 HD
BRANCH  19  21
ATOM     21  C   UNL d   1      31.990 -21.179  -6.453  0.00  0.00     0.237 C 
ATOM     22  C   UNL d   1      33.039 -20.703  -5.466  0.00  0.00     0.035 C 
ENDBRANCH  19  21
BRANCH  19  23
ATOM     23  C   UNL d   1      31.789 -19.653  -8.699  0.00  0.00     0.237 C 
ATOM     24  C   UNL d   1      30.860 -19.961  -9.854  0.00  0.00     0.035 C 
ENDBRANCH  19  23
ENDBRANCH  16  19
ENDBRANCH  10  13
ENDBRANCH   8   9
ENDBRANCH   7   8
ENDBRANCH   1   7
BRANCH   4  25
ATOM     25  N   UNL d   1      27.837 -16.566   0.758  0.00  0.00    -0.106 N 
ATOM     26  H   UNL d   1      28.349 -16.691   1.628  0.00  0.00     0.208 HD
BRANCH  25  27
ATOM     27  N   UNL d   1      26.580 -17.121   0.642  0.00  0.00    -0.172 NA
ATOM     28  C   UNL d   1      25.812 -16.761  -0.340  0.00  0.00     0.150 C 
BRANCH  28  29
ATOM     29  C   UNL d   1      24.451 -17.358  -0.499  0.00  0.00    -0.017 A 
ATOM     30  C   UNL d   1      23.337 -16.555  -0.767  0.00  0.00     0.014 A 
ATOM     31  C   UNL d   1      22.059 -17.138  -0.895  0.00  0.00     0.018 A 
ATOM     32  C   UNL d   1      21.883 -18.532  -0.818  0.00  0.00     0.039 A 
ATOM     33  C   UNL d   1      22.999 -19.325  -0.521  0.00  0.00     0.018 A 
ATOM     34  C   UNL d   1      24.272 -18.739  -0.364  0.00  0.00     0.014 A 
BRANCH  32  35
ATOM     35  C   UNL d   1      20.521 -19.098  -1.124  0.00  0.00     0.292 C 
ATOM     36  O   UNL d   1      20.281 -19.716  -2.142  0.00  0.00    -0.259 OA
BRANCH  35  37
ATOM     37  O   UNL d   1      19.628 -18.872  -0.117  0.00  0.00    -0.323 OA
ATOM     38  C   UNL d   1      19.830 -19.693   1.048  0.00  0.00     0.213 C 
ENDBRANCH  35  37
ENDBRANCH  32  35
ENDBRANCH  28  29
ENDBRANCH  25  27
ENDBRANCH   4  25
TORSDOF 12
ENDMDL
MODEL 6
REMARK VINA RESULT:    -9.964      6.532     10.529
REMARK INTER + INTRA:         -15.144
REMARK INTER:                 -13.544
REMARK INTRA:                  -1.600
REMARK CONF_INDEPENDENT:        3.580
REMARK UNBOUND:                -1.600
REMARK  12 active torsions:
REMARK  status: ('A' for Active; 'I' for Inactive)
REMARK    1  A    between atoms: C_2  and  N_3 
REMARK    2  A    between atoms: N_3  and  C_4 
REMARK    3  A    between atoms: N_3  and  C_6 
REMARK    4  A    between atoms: C_9  and  N_10 
REMARK       I    between atoms: N_10  and  C_11 
REMARK    5  A    between atoms: C_11  and  C_13 
REMARK    6  A    between atoms: C_13  and  S_14 
REMARK    7  A    between atoms: S_14  and  C_15 
REMARK    8  A    between atoms: C_18  and  N_19 
REMARK    9  A    between atoms: N_19  and  N_20 
REMARK   10  A    between atoms: C_21  and  C_22 
REMARK   11  A    between atoms: C_25  and  C_26 
REMARK   12  A    between atoms: C_26  and  O_28 
ROOT
ATOM      1  C   UNL d   1      30.075 -16.473  -1.986  0.00  0.00     0.226 A 
ATOM      2  N   UNL d   1      30.355 -17.745  -1.695  0.00  0.00    -0.132 NA
ATOM      3  N   UNL d   1      29.579 -17.930  -0.595  0.00  0.00    -0.103 N 
ATOM      4  C   UNL d   1      28.867 -16.803  -0.260  0.00  0.00     0.739 A 
ATOM      5  N   UNL d   1      29.181 -15.875  -1.137  0.00  0.00    -0.034 NA
ATOM      6  H   UNL d   1      29.586 -18.832  -0.138  0.00  0.00     0.208 HD
ENDROOT
BRANCH   1   7
ATOM      7  S   UNL d   1      30.736 -15.569  -3.305  0.00  0.00    -0.079 SA
BRANCH   7   8
ATOM      8  C   UNL d   1      29.606 -15.688  -4.745  0.00  0.00     0.185 C 
BRANCH   8   9
ATOM      9  C   UNL d   1      30.043 -16.931  -5.560  0.00  0.00     0.231 C 
ATOM     10  N   UNL d   1      30.416 -18.089  -4.862  0.00  0.00    -0.327 N 
ATOM     11  H   UNL d   1      30.440 -18.057  -3.847  0.00  0.00     0.169 HD
ATOM     12  O   UNL d   1      30.068 -16.879  -6.790  0.00  0.00    -0.272 OA
BRANCH  10  13
ATOM     13  C   UNL d   1      30.867 -19.295  -5.500  0.00  0.00     0.034 A 
ATOM     14  C   UNL d   1      30.922 -19.395  -6.892  0.00  0.00     0.032 A 
ATOM     15  C   UNL d   1      31.219 -20.637  -7.505  0.00  0.00     0.039 A 
ATOM     16  C   UNL d   1      31.557 -21.783  -6.756  0.00  0.00     0.134 A 
ATOM     17  C   UNL d   1      31.586 -21.663  -5.380  0.00  0.00     0.039 A 
ATOM     18  C   UNL d   1      31.233 -20.445  -4.779  0.00  0.00     0.032 A 
BRANCH  16  19
ATOM     19  N   UNL d   1      31.784 -23.087  -7.494  0.00  0.00    -0.042 N 
ATOM     20  H   UNL d   1      30.809 -23.376  -7.622  0.00  0.00     0.286 HD
BRANCH  19  21
ATOM     21  C   UNL d   1      32.278 -24.243  -6.615  0.00  0.00     0.237 C 
ATOM     22  C   UNL d   1      31.253 -25.323  -6.325  0.00  0.00     0.035 C 
ENDBRANCH  19  21
BRANCH  19  23
ATOM     23  C   UNL d   1      32.270 -22.784  -8.914  0.00  0.00     0.237 C 
ATOM     24  C   UNL d   1      33.668 -22.222  -9.066  0.00  0.00     0.035 C 
ENDBRANCH  19  23
ENDBRANCH  16  19
ENDBRANCH  10  13
ENDBRANCH   8   9
ENDBRANCH   7   8
ENDBRANCH   1   7
BRANCH   4  25
ATOM     25  N   UNL d   1      28.009 -16.737   0.802  0.00  0.00    -0.106 N 
ATOM     26  H   UNL d   1      28.314 -16.372   1.702  0.00  0.00     0.208 HD
BRANCH  25  27
ATOM     27  N   UNL d   1      26.713 -17.189   0.676  0.00  0.00    -0.172 NA
ATOM     28  C   UNL d   1      25.998 -16.802  -0.335  0.00  0.00     0.150 C 
BRANCH  28  29
ATOM     29  C   UNL d   1      24.595 -17.288  -0.506  0.00  0.00    -0.017 A 
ATOM     30  C   UNL d   1      24.306 -18.656  -0.560  0.00  0.00     0.014 A 
ATOM     31  C   UNL d   1      22.976 -19.091  -0.740  0.00  0.00     0.018 A 
ATOM     32  C   UNL d   1      21.911 -18.173  -0.808  0.00  0.00     0.039 A 
ATOM     33  C   UNL d   1      22.214 -16.806  -0.784  0.00  0.00     0.018 A 
ATOM     34  C   UNL d   1      23.547 -16.369  -0.633  0.00  0.00     0.014 A 
BRANCH  32  35
ATOM     35  C   UNL d   1      20.504 -18.711  -0.839  0.00  0.00     0.292 C 
ATOM     36  O   UNL d   1      19.528 -17.991  -0.895  0.00  0.00    -0.259 OA
BRANCH  35  37
ATOM     37  O   UNL d   1      20.472 -20.075  -0.841  0.00  0.00    -0.323 OA
ATOM     38  C   UNL d   1      19.695 -20.651   0.225  0.00  0.00     0.213 C 
ENDBRANCH  35  37
ENDBRANCH  32  35
ENDBRANCH  28  29
ENDBRANCH  25  27
ENDBRANCH   4  25
TORSDOF 12
ENDMDL
MODEL 7
REMARK VINA RESULT:    -9.647      5.534      7.203
REMARK INTER + INTRA:         -14.820
REMARK INTER:                 -13.226
REMARK INTRA:                  -1.594
REMARK CONF_INDEPENDENT:        3.580
REMARK UNBOUND:                -1.594
REMARK  12 active torsions:
REMARK  status: ('A' for Active; 'I' for Inactive)
REMARK    1  A    between atoms: C_2  and  N_3 
REMARK    2  A    between atoms: N_3  and  C_4 
REMARK    3  A    between atoms: N_3  and  C_6 
REMARK    4  A    between atoms: C_9  and  N_10 
REMARK       I    between atoms: N_10  and  C_11 
REMARK    5  A    between atoms: C_11  and  C_13 
REMARK    6  A    between atoms: C_13  and  S_14 
REMARK    7  A    between atoms: S_14  and  C_15 
REMARK    8  A    between atoms: C_18  and  N_19 
REMARK    9  A    between atoms: N_19  and  N_20 
REMARK   10  A    between atoms: C_21  and  C_22 
REMARK   11  A    between atoms: C_25  and  C_26 
REMARK   12  A    between atoms: C_26  and  O_28 
ROOT
ATOM      1  C   UNL d   1      30.472 -17.441  -1.810  0.00  0.00     0.226 A 
ATOM      2  N   UNL d   1      31.302 -17.295  -0.775  0.00  0.00    -0.132 NA
ATOM      3  N   UNL d   1      30.417 -17.043   0.225  0.00  0.00    -0.103 N 
ATOM      4  C   UNL d   1      29.114 -17.047  -0.214  0.00  0.00     0.739 A 
ATOM      5  N   UNL d   1      29.144 -17.294  -1.505  0.00  0.00    -0.034 NA
ATOM      6  H   UNL d   1      30.768 -16.884   1.160  0.00  0.00     0.208 HD
ENDROOT
BRANCH   1   7
ATOM      7  S   UNL d   1      30.940 -17.786  -3.440  0.00  0.00    -0.079 SA
BRANCH   7   8
ATOM      8  C   UNL d   1      31.094 -19.602  -3.652  0.00  0.00     0.185 C 
BRANCH   8   9
ATOM      9  C   UNL d   1      31.826 -20.142  -2.398  0.00  0.00     0.231 C 
ATOM     10  N   UNL d   1      31.233 -19.944  -1.142  0.00  0.00    -0.327 N 
ATOM     11  H   UNL d   1      30.373 -19.407  -1.091  0.00  0.00     0.169 HD
ATOM     12  O   UNL d   1      32.908 -20.717  -2.522  0.00  0.00    -0.272 OA
BRANCH  10  13
ATOM     13  C   UNL d   1      31.825 -20.372   0.096  0.00  0.00     0.034 A 
ATOM     14  C   UNL d   1      32.638 -19.513   0.839  0.00  0.00     0.032 A 
ATOM     15  C   UNL d   1      33.337 -19.998   1.972  0.00  0.00     0.039 A 
ATOM     16  C   UNL d   1      33.176 -21.315   2.447  0.00  0.00     0.134 A 
ATOM     17  C   UNL d   1      32.306 -22.142   1.762  0.00  0.00     0.039 A 
ATOM     18  C   UNL d   1      31.663 -21.671   0.606  0.00  0.00     0.032 A 
BRANCH  16  19
ATOM     19  N   UNL d   1      34.022 -21.770   3.620  0.00  0.00    -0.042 N 
ATOM     20  H   UNL d   1      33.663 -22.724   3.722  0.00  0.00     0.286 HD
BRANCH  19  21
ATOM     21  C   UNL d   1      33.600 -21.192   4.976  0.00  0.00     0.237 C 
ATOM     22  C   UNL d   1      32.122 -20.881   5.119  0.00  0.00     0.035 C 
ENDBRANCH  19  21
BRANCH  19  23
ATOM     23  C   UNL d   1      35.467 -21.966   3.151  0.00  0.00     0.237 C 
ATOM     24  C   UNL d   1      36.136 -23.281   3.493  0.00  0.00     0.035 C 
ENDBRANCH  19  23
ENDBRANCH  16  19
ENDBRANCH  10  13
ENDBRANCH   8   9
ENDBRANCH   7   8
ENDBRANCH   1   7
BRANCH   4  25
ATOM     25  N   UNL d   1      28.039 -16.827   0.602  0.00  0.00    -0.106 N 
ATOM     26  H   UNL d   1      28.120 -16.239   1.428  0.00  0.00     0.208 HD
BRANCH  25  27
ATOM     27  N   UNL d   1      26.827 -17.423   0.327  0.00  0.00    -0.172 NA
ATOM     28  C   UNL d   1      25.793 -16.680   0.078  0.00  0.00     0.150 C 
BRANCH  28  29
ATOM     29  C   UNL d   1      24.469 -17.299  -0.237  0.00  0.00    -0.017 A 
ATOM     30  C   UNL d   1      24.294 -18.686  -0.204  0.00  0.00     0.014 A 
ATOM     31  C   UNL d   1      23.040 -19.249  -0.523  0.00  0.00     0.018 A 
ATOM     32  C   UNL d   1      21.931 -18.435  -0.821  0.00  0.00     0.039 A 
ATOM     33  C   UNL d   1      22.124 -17.050  -0.881  0.00  0.00     0.018 A 
ATOM     34  C   UNL d   1      23.384 -16.488  -0.590  0.00  0.00     0.014 A 
BRANCH  32  35
ATOM     35  C   UNL d   1      20.588 -19.095  -0.994  0.00  0.00     0.292 C 
ATOM     36  O   UNL d   1      20.282 -19.707  -1.997  0.00  0.00    -0.259 OA
BRANCH  35  37
ATOM     37  O   UNL d   1      19.799 -18.960   0.111  0.00  0.00    -0.323 OA
ATOM     38  C   UNL d   1      19.840 -20.083   1.010  0.00  0.00     0.213 C 
ENDBRANCH  35  37
ENDBRANCH  32  35
ENDBRANCH  28  29
ENDBRANCH  25  27
ENDBRANCH   4  25
TORSDOF 12
ENDMDL
MODEL 8
REMARK VINA RESULT:    -9.418      5.664      8.861
REMARK INTER + INTRA:         -14.881
REMARK INTER:                 -12.998
REMARK INTRA:                  -1.884
REMARK CONF_INDEPENDENT:        3.580
REMARK UNBOUND:                -1.884
REMARK  12 active torsions:
REMARK  status: ('A' for Active; 'I' for Inactive)
REMARK    1  A    between atoms: C_2  and  N_3 
REMARK    2  A    between atoms: N_3  and  C_4 
REMARK    3  A    between atoms: N_3  and  C_6 
REMARK    4  A    between atoms: C_9  and  N_10 
REMARK       I    between atoms: N_10  and  C_11 
REMARK    5  A    between atoms: C_11  and  C_13 
REMARK    6  A    between atoms: C_13  and  S_14 
REMARK    7  A    between atoms: S_14  and  C_15 
REMARK    8  A    between atoms: C_18  and  N_19 
REMARK    9  A    between atoms: N_19  and  N_20 
REMARK   10  A    between atoms: C_21  and  C_22 
REMARK   11  A    between atoms: C_25  and  C_26 
REMARK   12  A    between atoms: C_26  and  O_28 
ROOT
ATOM      1  C   UNL d   1      31.225 -17.271  -0.492  0.00  0.00     0.226 A 
ATOM      2  N   UNL d   1      30.515 -18.026  -1.333  0.00  0.00    -0.132 NA
ATOM      3  N   UNL d   1      29.256 -17.596  -1.056  0.00  0.00    -0.103 N 
ATOM      4  C   UNL d   1      29.236 -16.619  -0.089  0.00  0.00     0.739 A 
ATOM      5  N   UNL d   1      30.482 -16.413   0.275  0.00  0.00    -0.034 NA
ATOM      6  H   UNL d   1      28.479 -18.004  -1.558  0.00  0.00     0.208 HD
ENDROOT
BRANCH   1   7
ATOM      7  S   UNL d   1      32.946 -17.303  -0.313  0.00  0.00    -0.079 SA
BRANCH   7   8
ATOM      8  C   UNL d   1      33.391 -18.464   1.036  0.00  0.00     0.185 C 
BRANCH   8   9
ATOM      9  C   UNL d   1      32.893 -19.866   0.607  0.00  0.00     0.231 C 
ATOM     10  N   UNL d   1      31.531 -20.028   0.308  0.00  0.00    -0.327 N 
ATOM     11  H   UNL d   1      30.910 -19.236   0.435  0.00  0.00     0.169 HD
ATOM     12  O   UNL d   1      33.686 -20.807   0.548  0.00  0.00    -0.272 OA
BRANCH  10  13
ATOM     13  C   UNL d   1      30.942 -21.282  -0.073  0.00  0.00     0.034 A 
ATOM     14  C   UNL d   1      30.050 -21.945   0.773  0.00  0.00     0.032 A 
ATOM     15  C   UNL d   1      29.600 -23.249   0.452  0.00  0.00     0.039 A 
ATOM     16  C   UNL d   1      29.949 -23.888  -0.755  0.00  0.00     0.134 A 
ATOM     17  C   UNL d   1      30.763 -23.199  -1.633  0.00  0.00     0.039 A 
ATOM     18  C   UNL d   1      31.252 -21.931  -1.280  0.00  0.00     0.032 A 
BRANCH  16  19
ATOM     19  N   UNL d   1      29.484 -25.313  -0.979  0.00  0.00    -0.042 N 
ATOM     20  H   UNL d   1      28.902 -25.430  -0.143  0.00  0.00     0.286 HD
BRANCH  19  21
ATOM     21  C   UNL d   1      30.545 -26.385  -0.703  0.00  0.00     0.237 C 
ATOM     22  C   UNL d   1      31.689 -25.951   0.195  0.00  0.00     0.035 C 
ENDBRANCH  19  21
BRANCH  19  23
ATOM     23  C   UNL d   1      28.479 -25.339  -2.135  0.00  0.00     0.237 C 
ATOM     24  C   UNL d   1      28.781 -26.260  -3.299  0.00  0.00     0.035 C 
ENDBRANCH  19  23
ENDBRANCH  16  19
ENDBRANCH  10  13
ENDBRANCH   8   9
ENDBRANCH   7   8
ENDBRANCH   1   7
BRANCH   4  25
ATOM     25  N   UNL d   1      28.091 -16.019   0.358  0.00  0.00    -0.106 N 
ATOM     26  H   UNL d   1      28.101 -15.061   0.701  0.00  0.00     0.208 HD
BRANCH  25  27
ATOM     27  N   UNL d   1      26.903 -16.718   0.373  0.00  0.00    -0.172 NA
ATOM     28  C   UNL d   1      25.981 -16.425  -0.492  0.00  0.00     0.150 C 
BRANCH  28  29
ATOM     29  C   UNL d   1      24.688 -17.176  -0.509  0.00  0.00    -0.017 A 
ATOM     30  C   UNL d   1      23.462 -16.503  -0.524  0.00  0.00     0.014 A 
ATOM     31  C   UNL d   1      22.255 -17.232  -0.521  0.00  0.00     0.018 A 
ATOM     32  C   UNL d   1      22.253 -18.639  -0.565  0.00  0.00     0.039 A 
ATOM     33  C   UNL d   1      23.484 -19.304  -0.520  0.00  0.00     0.018 A 
ATOM     34  C   UNL d   1      24.692 -18.575  -0.494  0.00  0.00     0.014 A 
BRANCH  32  35
ATOM     35  C   UNL d   1      20.932 -19.347  -0.723  0.00  0.00     0.292 C 
ATOM     36  O   UNL d   1      20.365 -19.446  -1.793  0.00  0.00    -0.259 OA
BRANCH  35  37
ATOM     37  O   UNL d   1      20.491 -19.887   0.450  0.00  0.00    -0.323 OA
ATOM     38  C   UNL d   1      19.067 -19.803   0.643  0.00  0.00     0.213 C 
ENDBRANCH  35  37
ENDBRANCH  32  35
ENDBRANCH  28  29
ENDBRANCH  25  27
ENDBRANCH   4  25
TORSDOF 12
ENDMDL
MODEL 9
REMARK VINA RESULT:    -9.091      6.248      7.687
REMARK INTER + INTRA:         -14.611
REMARK INTER:                 -12.670
REMARK INTRA:                  -1.941
REMARK CONF_INDEPENDENT:        3.580
REMARK UNBOUND:                -1.941
REMARK  12 active torsions:
REMARK  status: ('A' for Active; 'I' for Inactive)
REMARK    1  A    between atoms: C_2  and  N_3 
REMARK    2  A    between atoms: N_3  and  C_4 
REMARK    3  A    between atoms: N_3  and  C_6 
REMARK    4  A    between atoms: C_9  and  N_10 
REMARK       I    between atoms: N_10  and  C_11 
REMARK    5  A    between atoms: C_11  and  C_13 
REMARK    6  A    between atoms: C_13  and  S_14 
REMARK    7  A    between atoms: S_14  and  C_15 
REMARK    8  A    between atoms: C_18  and  N_19 
REMARK    9  A    between atoms: N_19  and  N_20 
REMARK   10  A    between atoms: C_21  and  C_22 
REMARK   11  A    between atoms: C_25  and  C_26 
REMARK   12  A    between atoms: C_26  and  O_28 
ROOT
ATOM      1  C   UNL d   1      28.825 -15.184  -5.325  0.00  0.00     0.226 A 
ATOM      2  N   UNL d   1      27.577 -15.219  -5.798  0.00  0.00    -0.132 NA
ATOM      3  N   UNL d   1      26.867 -15.178  -4.641  0.00  0.00    -0.103 N 
ATOM      4  C   UNL d   1      27.675 -15.116  -3.531  0.00  0.00     0.739 A 
ATOM      5  N   UNL d   1      28.918 -15.124  -3.959  0.00  0.00    -0.034 NA
ATOM      6  H   UNL d   1      25.856 -15.193  -4.687  0.00  0.00     0.208 HD
ENDROOT
BRANCH   1   7
ATOM      7  S   UNL d   1      30.269 -15.209  -6.278  0.00  0.00    -0.079 SA
BRANCH   7   8
ATOM      8  C   UNL d   1      30.538 -16.906  -6.921  0.00  0.00     0.185 C 
BRANCH   8   9
ATOM      9  C   UNL d   1      30.737 -17.828  -5.692  0.00  0.00     0.231 C 
ATOM     10  N   UNL d   1      30.796 -17.240  -4.419  0.00  0.00    -0.327 N 
ATOM     11  H   UNL d   1      30.762 -16.227  -4.351  0.00  0.00     0.169 HD
ATOM     12  O   UNL d   1      30.851 -19.044  -5.850  0.00  0.00    -0.272 OA
BRANCH  10  13
ATOM     13  C   UNL d   1      31.005 -17.981  -3.206  0.00  0.00     0.034 A 
ATOM     14  C   UNL d   1      31.806 -19.125  -3.192  0.00  0.00     0.032 A 
ATOM     15  C   UNL d   1      31.876 -19.930  -2.028  0.00  0.00     0.039 A 
ATOM     16  C   UNL d   1      31.230 -19.572  -0.827  0.00  0.00     0.134 A 
ATOM     17  C   UNL d   1      30.506 -18.396  -0.815  0.00  0.00     0.039 A 
ATOM     18  C   UNL d   1      30.393 -17.635  -1.990  0.00  0.00     0.032 A 
BRANCH  16  19
ATOM     19  N   UNL d   1      31.297 -20.532   0.344  0.00  0.00    -0.042 N 
ATOM     20  H   UNL d   1      30.537 -20.149   0.915  0.00  0.00     0.286 HD
BRANCH  19  21
ATOM     21  C   UNL d   1      32.475 -20.298   1.298  0.00  0.00     0.237 C 
ATOM     22  C   UNL d   1      32.156 -20.447   2.773  0.00  0.00     0.035 C 
ENDBRANCH  19  21
BRANCH  19  23
ATOM     23  C   UNL d   1      30.773 -21.902  -0.098  0.00  0.00     0.237 C 
ATOM     24  C   UNL d   1      29.680 -22.532   0.740  0.00  0.00     0.035 C 
ENDBRANCH  19  23
ENDBRANCH  16  19
ENDBRANCH  10  13
ENDBRANCH   8   9
ENDBRANCH   7   8
ENDBRANCH   1   7
BRANCH   4  25
ATOM     25  N   UNL d   1      27.199 -15.057  -2.249  0.00  0.00    -0.106 N 
ATOM     26  H   UNL d   1      27.762 -14.663  -1.499  0.00  0.00     0.208 HD
BRANCH  25  27
ATOM     27  N   UNL d   1      25.950 -15.558  -1.950  0.00  0.00    -0.172 NA
ATOM     28  C   UNL d   1      25.846 -16.731  -1.407  0.00  0.00     0.150 C 
BRANCH  28  29
ATOM     29  C   UNL d   1      24.506 -17.293  -1.059  0.00  0.00    -0.017 A 
ATOM     30  C   UNL d   1      23.339 -16.545  -1.246  0.00  0.00     0.014 A 
ATOM     31  C   UNL d   1      22.086 -17.089  -0.893  0.00  0.00     0.018 A 
ATOM     32  C   UNL d   1      21.974 -18.405  -0.405  0.00  0.00     0.039 A 
ATOM     33  C   UNL d   1      23.150 -19.134  -0.193  0.00  0.00     0.018 A 
ATOM     34  C   UNL d   1      24.406 -18.580  -0.519  0.00  0.00     0.014 A 
BRANCH  32  35
ATOM     35  C   UNL d   1      20.594 -18.976  -0.201  0.00  0.00     0.292 C 
ATOM     36  O   UNL d   1      19.607 -18.513  -0.737  0.00  0.00    -0.259 OA
BRANCH  35  37
ATOM     37  O   UNL d   1      20.604 -20.077   0.604  0.00  0.00    -0.323 OA
ATOM     38  C   UNL d   1      19.453 -20.195   1.461  0.00  0.00     0.213 C 
ENDBRANCH  35  37
ENDBRANCH  32  35
ENDBRANCH  28  29
ENDBRANCH  25  27
ENDBRANCH   4  25
TORSDOF 12
ENDMDL
