MODEL 1
REMARK VINA RESULT:    -8.697      0.000      0.000
REMARK INTER + INTRA:         -15.233
REMARK INTER:                 -12.575
REMARK INTRA:                  -2.657
REMARK CONF_INDEPENDENT:        3.878
REMARK UNBOUND:                -2.657
REMARK  13 active torsions:
REMARK  status: ('A' for Active; 'I' for Inactive)
REMARK    1  A    between atoms: C_2  and  C_12 
REMARK    2  A    between atoms: C_2  and  O_3 
REMARK    3  A    between atoms: O_3  and  C_4 
REMARK       I    between atoms: C_12  and  N_14 
REMARK    4  A    between atoms: N_14  and  N_15 
REMARK       I    between atoms: N_15  and  C_16 
REMARK    5  A    between atoms: C_16  and  C_18 
REMARK    6  A    between atoms: C_18  and  C_19 
REMARK    7  A    between atoms: C_19  and  C_20 
REMARK    8  A    between atoms: C_20  and  C_21 
REMARK    9  A    between atoms: C_21  and  O_23 
REMARK   10  A    between atoms: O_23  and  C_24 
REMARK   11  A    between atoms: C_24  and  C_25 
REMARK   12  A    between atoms: C_25  and  C_26 
REMARK   13  A    between atoms: C_26  and  C_27 
ROOT
ATOM      1  N   UNL d   1      25.941 -13.065  -3.277  0.00  0.00    -0.267 N 
ATOM      2  C   UNL d   1      25.081 -14.094  -3.631  0.00  0.00     0.236 C 
ATOM      3  O   UNL d   1      24.055 -13.876  -4.275  0.00  0.00    -0.272 OA
ATOM      4  H   UNL d   1      26.805 -13.181  -2.751  0.00  0.00     0.190 HD
ENDROOT
BRANCH   1   5
ATOM      5  N   UNL d   1      25.592 -11.738  -3.630  0.00  0.00    -0.265 N 
ATOM      6  C   UNL d   1      26.437 -10.683  -3.280  0.00  0.00     0.265 C 
ATOM      7  O   UNL d   1      27.435 -10.880  -2.584  0.00  0.00    -0.269 OA
ATOM      8  H   UNL d   1      24.766 -11.650  -4.223  0.00  0.00     0.190 HD
BRANCH   6   9
ATOM      9  C   UNL d   1      26.025  -9.276  -3.817  0.00  0.00     0.218 C 
ATOM     10  C   UNL d   1      25.592  -8.443  -2.628  0.00  0.00     0.050 C 
BRANCH   9  11
ATOM     11  O   UNL d   1      25.064  -9.392  -4.900  0.00  0.00    -0.335 OA
BRANCH  11  12
ATOM     12  C   UNL d   1      24.296  -8.402  -5.460  0.00  0.00     0.091 A 
ATOM     13  C   UNL d   1      23.040  -7.981  -5.022  0.00  0.00     0.040 A 
ATOM     14  C   UNL d   1      22.311  -6.950  -5.600  0.00  0.00     0.026 A 
ATOM     15  C   UNL d   1      22.803  -6.323  -6.715  0.00  0.00     0.035 A 
ATOM     16 CL   UNL d   1      21.857  -5.084  -7.428  0.00  0.00    -0.084 Cl
ATOM     17  C   UNL d   1      24.025  -6.726  -7.242  0.00  0.00     0.050 A 
ATOM     18  C   UNL d   1      24.773  -7.750  -6.614  0.00  0.00     0.069 A 
ATOM     19 CL   UNL d   1      26.279  -8.185  -7.350  0.00  0.00    -0.081 Cl
ENDBRANCH  11  12
ENDBRANCH   9  11
ENDBRANCH   6   9
ENDBRANCH   1   5
BRANCH   2  20
ATOM     20  C   UNL d   1      25.498 -15.496  -3.162  0.00  0.00     0.105 C 
BRANCH  20  21
ATOM     21  C   UNL d   1      26.552 -15.430  -2.041  0.00  0.00     0.019 C 
BRANCH  21  22
ATOM     22  C   UNL d   1      26.631 -16.680  -1.145  0.00  0.00     0.111 C 
BRANCH  22  23
ATOM     23  C   UNL d   1      25.289 -16.926  -0.459  0.00  0.00     0.258 C 
ATOM     24  O   UNL d   1      24.631 -16.068   0.098  0.00  0.00    -0.265 OA
BRANCH  23  25
ATOM     25  O   UNL d   1      24.913 -18.241  -0.547  0.00  0.00    -0.321 OA
BRANCH  25  26
ATOM     26  C   UNL d   1      23.634 -18.424  -1.188  0.00  0.00     0.179 C 
BRANCH  26  27
ATOM     27  C   UNL d   1      22.563 -18.669  -0.133  0.00  0.00     0.031 C 
BRANCH  27  28
ATOM     28  C   UNL d   1      21.152 -18.574  -0.722  0.00  0.00     0.041 C 
BRANCH  28  29
ATOM     29  C   UNL d   1      20.165 -19.375   0.093  0.00  0.00    -0.058 A 
ATOM     30  C   UNL d   1      20.294 -19.431   1.488  0.00  0.00     0.007 A 
ATOM     31  C   UNL d   1      19.411 -20.190   2.252  0.00  0.00     0.001 A 
ATOM     32  C   UNL d   1      18.351 -20.850   1.635  0.00  0.00     0.000 A 
ATOM     33  C   UNL d   1      18.209 -20.797   0.249  0.00  0.00     0.001 A 
ATOM     34  C   UNL d   1      19.120 -20.073  -0.522  0.00  0.00     0.007 A 
ENDBRANCH  28  29
ENDBRANCH  27  28
ENDBRANCH  26  27
ENDBRANCH  25  26
ENDBRANCH  23  25
ENDBRANCH  22  23
ENDBRANCH  21  22
ENDBRANCH  20  21
ENDBRANCH   2  20
TORSDOF 13
ENDMDL
MODEL 2
REMARK VINA RESULT:    -8.419      5.903      8.657
REMARK INTER + INTRA:         -14.996
REMARK INTER:                 -12.297
REMARK INTRA:                  -2.699
REMARK CONF_INDEPENDENT:        3.878
REMARK UNBOUND:                -2.699
REMARK  13 active torsions:
REMARK  status: ('A' for Active; 'I' for Inactive)
REMARK    1  A    between atoms: C_2  and  C_12 
REMARK    2  A    between atoms: C_2  and  O_3 
REMARK    3  A    between atoms: O_3  and  C_4 
REMARK       I    between atoms: C_12  and  N_14 
REMARK    4  A    between atoms: N_14  and  N_15 
REMARK       I    between atoms: N_15  and  C_16 
REMARK    5  A    between atoms: C_16  and  C_18 
REMARK    6  A    between atoms: C_18  and  C_19 
REMARK    7  A    between atoms: C_19  and  C_20 
REMARK    8  A    between atoms: C_20  and  C_21 
REMARK    9  A    between atoms: C_21  and  O_23 
REMARK   10  A    between atoms: O_23  and  C_24 
REMARK   11  A    between atoms: C_24  and  C_25 
REMARK   12  A    between atoms: C_25  and  C_26 
REMARK   13  A    between atoms: C_26  and  C_27 
ROOT
ATOM      1  N   UNL d   1      28.089 -14.638  -4.795  0.00  0.00    -0.267 N 
ATOM      2  C   UNL d   1      26.722 -14.873  -4.814  0.00  0.00     0.236 C 
ATOM      3  O   UNL d   1      26.245 -15.821  -5.438  0.00  0.00    -0.272 OA
ATOM      4  H   UNL d   1      28.544 -13.876  -4.295  0.00  0.00     0.190 HD
ENDROOT
BRANCH   1   5
ATOM      5  N   UNL d   1      28.934 -15.487  -5.553  0.00  0.00    -0.265 N 
ATOM      6  C   UNL d   1      30.298 -15.207  -5.639  0.00  0.00     0.265 C 
ATOM      7  O   UNL d   1      30.764 -14.180  -5.145  0.00  0.00    -0.269 OA
ATOM      8  H   UNL d   1      28.487 -16.330  -5.916  0.00  0.00     0.190 HD
BRANCH   6   9
ATOM      9  C   UNL d   1      31.160 -16.266  -6.398  0.00  0.00     0.218 C 
ATOM     10  C   UNL d   1      31.796 -15.571  -7.584  0.00  0.00     0.050 C 
BRANCH   9  11
ATOM     11  O   UNL d   1      30.383 -17.456  -6.694  0.00  0.00    -0.335 OA
BRANCH  11  12
ATOM     12  C   UNL d   1      30.839 -18.685  -7.102  0.00  0.00     0.091 A 
ATOM     13  C   UNL d   1      31.068 -19.088  -8.418  0.00  0.00     0.040 A 
ATOM     14  C   UNL d   1      31.562 -20.333  -8.784  0.00  0.00     0.026 A 
ATOM     15  C   UNL d   1      31.794 -21.275  -7.816  0.00  0.00     0.035 A 
ATOM     16 CL   UNL d   1      32.364 -22.815  -8.306  0.00  0.00    -0.084 Cl
ATOM     17  C   UNL d   1      31.538 -20.963  -6.485  0.00  0.00     0.050 A 
ATOM     18  C   UNL d   1      31.074 -19.675  -6.128  0.00  0.00     0.069 A 
ATOM     19 CL   UNL d   1      30.777 -19.386  -4.446  0.00  0.00    -0.081 Cl
ENDBRANCH  11  12
ENDBRANCH   9  11
ENDBRANCH   6   9
ENDBRANCH   1   5
BRANCH   2  20
ATOM     20  C   UNL d   1      25.868 -13.875  -4.016  0.00  0.00     0.105 C 
BRANCH  20  21
ATOM     21  C   UNL d   1      25.597 -14.377  -2.586  0.00  0.00     0.019 C 
BRANCH  21  22
ATOM     22  C   UNL d   1      24.258 -15.115  -2.395  0.00  0.00     0.111 C 
BRANCH  22  23
ATOM     23  C   UNL d   1      24.465 -16.382  -1.568  0.00  0.00     0.258 C 
ATOM     24  O   UNL d   1      25.526 -16.966  -1.454  0.00  0.00    -0.265 OA
BRANCH  23  25
ATOM     25  O   UNL d   1      23.302 -16.785  -0.967  0.00  0.00    -0.321 OA
BRANCH  25  26
ATOM     26  C   UNL d   1      23.461 -17.969  -0.157  0.00  0.00     0.179 C 
BRANCH  26  27
ATOM     27  C   UNL d   1      22.867 -19.168  -0.883  0.00  0.00     0.031 C 
BRANCH  27  28
ATOM     28  C   UNL d   1      21.401 -18.935  -1.263  0.00  0.00     0.041 C 
BRANCH  28  29
ATOM     29  C   UNL d   1      20.470 -19.453  -0.194  0.00  0.00    -0.058 A 
ATOM     30  C   UNL d   1      20.819 -19.324   1.157  0.00  0.00     0.007 A 
ATOM     31  C   UNL d   1      19.986 -19.825   2.156  0.00  0.00     0.001 A 
ATOM     32  C   UNL d   1      18.765 -20.403   1.815  0.00  0.00     0.000 A 
ATOM     33  C   UNL d   1      18.405 -20.532   0.474  0.00  0.00     0.001 A 
ATOM     34  C   UNL d   1      19.260 -20.071  -0.529  0.00  0.00     0.007 A 
ENDBRANCH  28  29
ENDBRANCH  27  28
ENDBRANCH  26  27
ENDBRANCH  25  26
ENDBRANCH  23  25
ENDBRANCH  22  23
ENDBRANCH  21  22
ENDBRANCH  20  21
ENDBRANCH   2  20
TORSDOF 13
ENDMDL
MODEL 3
REMARK VINA RESULT:    -8.388      5.811      8.846
REMARK INTER + INTRA:         -15.402
REMARK INTER:                 -12.266
REMARK INTRA:                  -3.136
REMARK CONF_INDEPENDENT:        3.878
REMARK UNBOUND:                -3.136
REMARK  13 active torsions:
REMARK  status: ('A' for Active; 'I' for Inactive)
REMARK    1  A    between atoms: C_2  and  C_12 
REMARK    2  A    between atoms: C_2  and  O_3 
REMARK    3  A    between atoms: O_3  and  C_4 
REMARK       I    between atoms: C_12  and  N_14 
REMARK    4  A    between atoms: N_14  and  N_15 
REMARK       I    between atoms: N_15  and  C_16 
REMARK    5  A    between atoms: C_16  and  C_18 
REMARK    6  A    between atoms: C_18  and  C_19 
REMARK    7  A    between atoms: C_19  and  C_20 
REMARK    8  A    between atoms: C_20  and  C_21 
REMARK    9  A    between atoms: C_21  and  O_23 
REMARK   10  A    between atoms: O_23  and  C_24 
REMARK   11  A    between atoms: C_24  and  C_25 
REMARK   12  A    between atoms: C_25  and  C_26 
REMARK   13  A    between atoms: C_26  and  C_27 
ROOT
ATOM      1  N   UNL d   1      29.006 -13.864  -6.266  0.00  0.00    -0.267 N 
ATOM      2  C   UNL d   1      27.751 -14.244  -5.812  0.00  0.00     0.236 C 
ATOM      3  O   UNL d   1      27.369 -15.411  -5.892  0.00  0.00    -0.272 OA
ATOM      4  H   UNL d   1      29.380 -12.918  -6.224  0.00  0.00     0.190 HD
ENDROOT
BRANCH   1   5
ATOM      5  N   UNL d   1      29.832 -14.842  -6.874  0.00  0.00    -0.265 N 
ATOM      6  C   UNL d   1      31.189 -14.579  -7.067  0.00  0.00     0.265 C 
ATOM      7  O   UNL d   1      31.660 -13.472  -6.805  0.00  0.00    -0.269 OA
ATOM      8  H   UNL d   1      29.383 -15.743  -7.045  0.00  0.00     0.190 HD
BRANCH   6   9
ATOM      9  C   UNL d   1      32.035 -15.763  -7.634  0.00  0.00     0.218 C 
ATOM     10  C   UNL d   1      32.772 -15.253  -8.855  0.00  0.00     0.050 C 
BRANCH   9  11
ATOM     11  O   UNL d   1      31.214 -16.944  -7.830  0.00  0.00    -0.335 OA
BRANCH  11  12
ATOM     12  C   UNL d   1      31.028 -17.998  -6.970  0.00  0.00     0.091 A 
ATOM     13  C   UNL d   1      30.919 -17.923  -5.581  0.00  0.00     0.040 A 
ATOM     14  C   UNL d   1      30.697 -19.013  -4.750  0.00  0.00     0.026 A 
ATOM     15  C   UNL d   1      30.636 -20.271  -5.293  0.00  0.00     0.035 A 
ATOM     16 CL   UNL d   1      30.404 -21.599  -4.234  0.00  0.00    -0.084 Cl
ATOM     17  C   UNL d   1      30.791 -20.429  -6.666  0.00  0.00     0.050 A 
ATOM     18  C   UNL d   1      30.974 -19.302  -7.501  0.00  0.00     0.069 A 
ATOM     19 CL   UNL d   1      31.164 -19.603  -9.196  0.00  0.00    -0.081 Cl
ENDBRANCH  11  12
ENDBRANCH   9  11
ENDBRANCH   6   9
ENDBRANCH   1   5
BRANCH   2  20
ATOM     20  C   UNL d   1      26.893 -13.116  -5.219  0.00  0.00     0.105 C 
BRANCH  20  21
ATOM     21  C   UNL d   1      27.193 -12.898  -3.725  0.00  0.00     0.019 C 
BRANCH  21  22
ATOM     22  C   UNL d   1      26.156 -13.497  -2.757  0.00  0.00     0.111 C 
BRANCH  22  23
ATOM     23  C   UNL d   1      25.214 -14.438  -3.504  0.00  0.00     0.258 C 
ATOM     24  O   UNL d   1      24.333 -14.075  -4.261  0.00  0.00    -0.265 OA
BRANCH  23  25
ATOM     25  O   UNL d   1      25.483 -15.751  -3.218  0.00  0.00    -0.321 OA
BRANCH  25  26
ATOM     26  C   UNL d   1      26.653 -15.924  -2.391  0.00  0.00     0.179 C 
BRANCH  26  27
ATOM     27  C   UNL d   1      26.247 -15.916  -0.923  0.00  0.00     0.031 C 
BRANCH  27  28
ATOM     28  C   UNL d   1      25.927 -17.325  -0.414  0.00  0.00     0.041 C 
BRANCH  28  29
ATOM     29  C   UNL d   1      24.452 -17.623  -0.524  0.00  0.00    -0.058 A 
ATOM     30  C   UNL d   1      24.002 -18.950  -0.471  0.00  0.00     0.007 A 
ATOM     31  C   UNL d   1      22.647 -19.246  -0.603  0.00  0.00     0.001 A 
ATOM     32  C   UNL d   1      21.721 -18.214  -0.724  0.00  0.00     0.000 A 
ATOM     33  C   UNL d   1      22.155 -16.890  -0.772  0.00  0.00     0.001 A 
ATOM     34  C   UNL d   1      23.516 -16.595  -0.685  0.00  0.00     0.007 A 
ENDBRANCH  28  29
ENDBRANCH  27  28
ENDBRANCH  26  27
ENDBRANCH  25  26
ENDBRANCH  23  25
ENDBRANCH  22  23
ENDBRANCH  21  22
ENDBRANCH  20  21
ENDBRANCH   2  20
TORSDOF 13
ENDMDL
MODEL 4
REMARK VINA RESULT:    -7.683      5.150      8.294
REMARK INTER + INTRA:         -14.970
REMARK INTER:                 -11.561
REMARK INTRA:                  -3.409
REMARK CONF_INDEPENDENT:        3.878
REMARK UNBOUND:                -3.409
REMARK  13 active torsions:
REMARK  status: ('A' for Active; 'I' for Inactive)
REMARK    1  A    between atoms: C_2  and  C_12 
REMARK    2  A    between atoms: C_2  and  O_3 
REMARK    3  A    between atoms: O_3  and  C_4 
REMARK       I    between atoms: C_12  and  N_14 
REMARK    4  A    between atoms: N_14  and  N_15 
REMARK       I    between atoms: N_15  and  C_16 
REMARK    5  A    between atoms: C_16  and  C_18 
REMARK    6  A    between atoms: C_18  and  C_19 
REMARK    7  A    between atoms: C_19  and  C_20 
REMARK    8  A    between atoms: C_20  and  C_21 
REMARK    9  A    between atoms: C_21  and  O_23 
REMARK   10  A    between atoms: O_23  and  C_24 
REMARK   11  A    between atoms: C_24  and  C_25 
REMARK   12  A    between atoms: C_25  and  C_26 
REMARK   13  A    between atoms: C_26  and  C_27 
ROOT
ATOM      1  N   UNL d   1      28.201 -15.442  -3.637  0.00  0.00    -0.267 N 
ATOM      2  C   UNL d   1      27.436 -14.979  -4.697  0.00  0.00     0.236 C 
ATOM      3  O   UNL d   1      27.504 -15.502  -5.810  0.00  0.00    -0.272 OA
ATOM      4  H   UNL d   1      28.187 -15.056  -2.695  0.00  0.00     0.190 HD
ENDROOT
BRANCH   1   5
ATOM      5  N   UNL d   1      29.107 -16.507  -3.867  0.00  0.00    -0.265 N 
ATOM      6  C   UNL d   1      29.904 -16.977  -2.822  0.00  0.00     0.265 C 
ATOM      7  O   UNL d   1      29.900 -16.416  -1.726  0.00  0.00    -0.269 OA
ATOM      8  H   UNL d   1      29.042 -16.938  -4.790  0.00  0.00     0.190 HD
BRANCH   6   9
ATOM      9  C   UNL d   1      30.780 -18.228  -3.147  0.00  0.00     0.218 C 
ATOM     10  C   UNL d   1      31.530 -18.600  -1.885  0.00  0.00     0.050 C 
BRANCH   9  11
ATOM     11  O   UNL d   1      31.590 -18.004  -4.331  0.00  0.00    -0.335 OA
BRANCH  11  12
ATOM     12  C   UNL d   1      31.400 -18.504  -5.596  0.00  0.00     0.091 A 
ATOM     13  C   UNL d   1      31.182 -19.841  -5.932  0.00  0.00     0.040 A 
ATOM     14  C   UNL d   1      30.960 -20.300  -7.223  0.00  0.00     0.026 A 
ATOM     15  C   UNL d   1      31.013 -19.415  -8.269  0.00  0.00     0.035 A 
ATOM     16 CL   UNL d   1      30.777 -20.022  -9.855  0.00  0.00    -0.084 Cl
ATOM     17  C   UNL d   1      31.280 -18.074  -8.016  0.00  0.00     0.050 A 
ATOM     18  C   UNL d   1      31.461 -17.618  -6.689  0.00  0.00     0.069 A 
ATOM     19 CL   UNL d   1      31.796 -15.932  -6.477  0.00  0.00    -0.081 Cl
ENDBRANCH  11  12
ENDBRANCH   9  11
ENDBRANCH   6   9
ENDBRANCH   1   5
BRANCH   2  20
ATOM     20  C   UNL d   1      26.522 -13.785  -4.382  0.00  0.00     0.105 C 
BRANCH  20  21
ATOM     21  C   UNL d   1      25.052 -14.218  -4.237  0.00  0.00     0.019 C 
BRANCH  21  22
ATOM     22  C   UNL d   1      24.588 -14.480  -2.792  0.00  0.00     0.111 C 
BRANCH  22  23
ATOM     23  C   UNL d   1      25.710 -15.129  -1.985  0.00  0.00     0.258 C 
ATOM     24  O   UNL d   1      26.616 -14.520  -1.450  0.00  0.00    -0.265 OA
BRANCH  23  25
ATOM     25  O   UNL d   1      25.571 -16.491  -1.937  0.00  0.00    -0.321 OA
BRANCH  25  26
ATOM     26  C   UNL d   1      24.935 -16.955  -0.727  0.00  0.00     0.179 C 
BRANCH  26  27
ATOM     27  C   UNL d   1      23.440 -17.118  -0.966  0.00  0.00     0.031 C 
BRANCH  27  28
ATOM     28  C   UNL d   1      23.075 -18.563  -1.320  0.00  0.00     0.041 C 
BRANCH  28  29
ATOM     29  C   UNL d   1      21.747 -18.955  -0.718  0.00  0.00    -0.058 A 
ATOM     30  C   UNL d   1      20.683 -19.323  -1.553  0.00  0.00     0.007 A 
ATOM     31  C   UNL d   1      19.442 -19.656  -1.015  0.00  0.00     0.001 A 
ATOM     32  C   UNL d   1      19.271 -19.688   0.367  0.00  0.00     0.000 A 
ATOM     33  C   UNL d   1      20.324 -19.330   1.208  0.00  0.00     0.001 A 
ATOM     34  C   UNL d   1      21.554 -18.951   0.668  0.00  0.00     0.007 A 
ENDBRANCH  28  29
ENDBRANCH  27  28
ENDBRANCH  26  27
ENDBRANCH  25  26
ENDBRANCH  23  25
ENDBRANCH  22  23
ENDBRANCH  21  22
ENDBRANCH  20  21
ENDBRANCH   2  20
TORSDOF 13
ENDMDL
MODEL 5
REMARK VINA RESULT:    -7.659      6.060      7.963
REMARK INTER + INTRA:         -15.141
REMARK INTER:                 -11.536
REMARK INTRA:                  -3.604
REMARK CONF_INDEPENDENT:        3.878
REMARK UNBOUND:                -3.604
REMARK  13 active torsions:
REMARK  status: ('A' for Active; 'I' for Inactive)
REMARK    1  A    between atoms: C_2  and  C_12 
REMARK    2  A    between atoms: C_2  and  O_3 
REMARK    3  A    between atoms: O_3  and  C_4 
REMARK       I    between atoms: C_12  and  N_14 
REMARK    4  A    between atoms: N_14  and  N_15 
REMARK       I    between atoms: N_15  and  C_16 
REMARK    5  A    between atoms: C_16  and  C_18 
REMARK    6  A    between atoms: C_18  and  C_19 
REMARK    7  A    between atoms: C_19  and  C_20 
REMARK    8  A    between atoms: C_20  and  C_21 
REMARK    9  A    between atoms: C_21  and  O_23 
REMARK   10  A    between atoms: O_23  and  C_24 
REMARK   11  A    between atoms: C_24  and  C_25 
REMARK   12  A    between atoms: C_25  and  C_26 
REMARK   13  A    between atoms: C_26  and  C_27 
ROOT
ATOM      1  N   UNL d   1      28.286 -16.632  -2.544  0.00  0.00    -0.267 N 
ATOM      2  C   UNL d   1      28.833 -17.008  -1.326  0.00  0.00     0.236 C 
ATOM      3  O   UNL d   1      30.014 -16.784  -1.060  0.00  0.00    -0.272 OA
ATOM      4  H   UNL d   1      27.318 -16.784  -2.821  0.00  0.00     0.190 HD
ENDROOT
BRANCH   1   5
ATOM      5  N   UNL d   1      29.128 -16.022  -3.507  0.00  0.00    -0.265 N 
ATOM      6  C   UNL d   1      28.572 -15.458  -4.656  0.00  0.00     0.265 C 
ATOM      7  O   UNL d   1      27.368 -15.568  -4.892  0.00  0.00    -0.269 OA
ATOM      8  H   UNL d   1      30.110 -15.947  -3.238  0.00  0.00     0.190 HD
BRANCH   6   9
ATOM      9  C   UNL d   1      29.569 -14.708  -5.595  0.00  0.00     0.218 C 
ATOM     10  C   UNL d   1      28.856 -14.451  -6.906  0.00  0.00     0.050 C 
BRANCH   9  11
ATOM     11  O   UNL d   1      30.835 -15.415  -5.682  0.00  0.00    -0.335 OA
BRANCH  11  12
ATOM     12  C   UNL d   1      31.058 -16.767  -5.597  0.00  0.00     0.091 A 
ATOM     13  C   UNL d   1      30.409 -17.760  -6.331  0.00  0.00     0.040 A 
ATOM     14  C   UNL d   1      30.691 -19.117  -6.237  0.00  0.00     0.026 A 
ATOM     15  C   UNL d   1      31.621 -19.548  -5.327  0.00  0.00     0.035 A 
ATOM     16 CL   UNL d   1      31.913 -21.233  -5.207  0.00  0.00    -0.084 Cl
ATOM     17  C   UNL d   1      32.270 -18.619  -4.521  0.00  0.00     0.050 A 
ATOM     18  C   UNL d   1      32.000 -17.238  -4.661  0.00  0.00     0.069 A 
ATOM     19 CL   UNL d   1      32.854 -16.160  -3.607  0.00  0.00    -0.081 Cl
ENDBRANCH  11  12
ENDBRANCH   9  11
ENDBRANCH   6   9
ENDBRANCH   1   5
BRANCH   2  20
ATOM     20  C   UNL d   1      27.871 -17.715  -0.359  0.00  0.00     0.105 C 
BRANCH  20  21
ATOM     21  C   UNL d   1      26.732 -16.783   0.093  0.00  0.00     0.019 C 
BRANCH  21  22
ATOM     22  C   UNL d   1      25.313 -17.354  -0.082  0.00  0.00     0.111 C 
BRANCH  22  23
ATOM     23  C   UNL d   1      24.697 -16.853  -1.387  0.00  0.00     0.258 C 
ATOM     24  O   UNL d   1      25.324 -16.626  -2.404  0.00  0.00    -0.265 OA
BRANCH  23  25
ATOM     25  O   UNL d   1      23.342 -16.688  -1.272  0.00  0.00    -0.321 OA
BRANCH  25  26
ATOM     26  C   UNL d   1      22.750 -17.528  -0.258  0.00  0.00     0.179 C 
BRANCH  26  27
ATOM     27  C   UNL d   1      22.303 -18.843  -0.881  0.00  0.00     0.031 C 
BRANCH  27  28
ATOM     28  C   UNL d   1      20.785 -18.889  -1.085  0.00  0.00     0.041 C 
BRANCH  28  29
ATOM     29  C   UNL d   1      20.097 -19.553   0.083  0.00  0.00    -0.058 A 
ATOM     30  C   UNL d   1      19.005 -20.403  -0.142  0.00  0.00     0.007 A 
ATOM     31  C   UNL d   1      18.338 -21.000   0.926  0.00  0.00     0.001 A 
ATOM     32  C   UNL d   1      18.797 -20.804   2.226  0.00  0.00     0.000 A 
ATOM     33  C   UNL d   1      19.885 -19.965   2.462  0.00  0.00     0.001 A 
ATOM     34  C   UNL d   1      20.526 -19.331   1.396  0.00  0.00     0.007 A 
ENDBRANCH  28  29
ENDBRANCH  27  28
ENDBRANCH  26  27
ENDBRANCH  25  26
ENDBRANCH  23  25
ENDBRANCH  22  23
ENDBRANCH  21  22
ENDBRANCH  20  21
ENDBRANCH   2  20
TORSDOF 13
ENDMDL
MODEL 6
REMARK VINA RESULT:    -6.916      5.707      8.695
REMARK INTER + INTRA:         -14.939
REMARK INTER:                 -10.794
REMARK INTRA:                  -4.145
REMARK CONF_INDEPENDENT:        3.878
REMARK UNBOUND:                -4.145
REMARK  13 active torsions:
REMARK  status: ('A' for Active; 'I' for Inactive)
REMARK    1  A    between atoms: C_2  and  C_12 
REMARK    2  A    between atoms: C_2  and  O_3 
REMARK    3  A    between atoms: O_3  and  C_4 
REMARK       I    between atoms: C_12  and  N_14 
REMARK    4  A    between atoms: N_14  and  N_15 
REMARK       I    between atoms: N_15  and  C_16 
REMARK    5  A    between atoms: C_16  and  C_18 
REMARK    6  A    between atoms: C_18  and  C_19 
REMARK    7  A    between atoms: C_19  and  C_20 
REMARK    8  A    between atoms: C_20  and  C_21 
REMARK    9  A    between atoms: C_21  and  O_23 
REMARK   10  A    between atoms: O_23  and  C_24 
REMARK   11  A    between atoms: C_24  and  C_25 
REMARK   12  A    between atoms: C_25  and  C_26 
REMARK   13  A    between atoms: C_26  and  C_27 
ROOT
ATOM      1  N   UNL d   1      27.755 -14.502  -4.916  0.00  0.00    -0.267 N 
ATOM      2  C   UNL d   1      26.426 -14.884  -5.028  0.00  0.00     0.236 C 
ATOM      3  O   UNL d   1      26.088 -15.809  -5.766  0.00  0.00    -0.272 OA
ATOM      4  H   UNL d   1      28.098 -13.750  -4.321  0.00  0.00     0.190 HD
ENDROOT
BRANCH   1   5
ATOM      5  N   UNL d   1      28.722 -15.168  -5.709  0.00  0.00    -0.265 N 
ATOM      6  C   UNL d   1      30.037 -14.702  -5.734  0.00  0.00     0.265 C 
ATOM      7  O   UNL d   1      30.349 -13.663  -5.151  0.00  0.00    -0.269 OA
ATOM      8  H   UNL d   1      28.402 -16.032  -6.147  0.00  0.00     0.190 HD
BRANCH   6   9
ATOM      9  C   UNL d   1      31.050 -15.573  -6.542  0.00  0.00     0.218 C 
ATOM     10  C   UNL d   1      31.566 -14.728  -7.688  0.00  0.00     0.050 C 
BRANCH   9  11
ATOM     11  O   UNL d   1      30.466 -16.853  -6.903  0.00  0.00    -0.335 OA
BRANCH  11  12
ATOM     12  C   UNL d   1      30.604 -18.059  -6.261  0.00  0.00     0.091 A 
ATOM     13  C   UNL d   1      30.451 -18.290  -4.893  0.00  0.00     0.040 A 
ATOM     14  C   UNL d   1      30.567 -19.535  -4.290  0.00  0.00     0.026 A 
ATOM     15  C   UNL d   1      30.914 -20.621  -5.050  0.00  0.00     0.035 A 
ATOM     16 CL   UNL d   1      31.090 -22.135  -4.266  0.00  0.00    -0.084 Cl
ATOM     17  C   UNL d   1      31.136 -20.457  -6.413  0.00  0.00     0.050 A 
ATOM     18  C   UNL d   1      30.971 -19.189  -7.018  0.00  0.00     0.069 A 
ATOM     19 CL   UNL d   1      31.277 -19.084  -8.720  0.00  0.00    -0.081 Cl
ENDBRANCH  11  12
ENDBRANCH   9  11
ENDBRANCH   6   9
ENDBRANCH   1   5
BRANCH   2  20
ATOM     20  C   UNL d   1      25.431 -14.076  -4.181  0.00  0.00     0.105 C 
BRANCH  20  21
ATOM     21  C   UNL d   1      25.122 -14.776  -2.845  0.00  0.00     0.019 C 
BRANCH  21  22
ATOM     22  C   UNL d   1      25.962 -14.297  -1.646  0.00  0.00     0.111 C 
BRANCH  22  23
ATOM     23  C   UNL d   1      27.396 -14.007  -2.086  0.00  0.00     0.258 C 
ATOM     24  O   UNL d   1      27.825 -12.901  -2.355  0.00  0.00    -0.265 OA
BRANCH  23  25
ATOM     25  O   UNL d   1      28.146 -15.152  -2.141  0.00  0.00    -0.321 OA
BRANCH  25  26
ATOM     26  C   UNL d   1      28.029 -15.966  -0.955  0.00  0.00     0.179 C 
BRANCH  26  27
ATOM     27  C   UNL d   1      27.013 -17.075  -1.194  0.00  0.00     0.031 C 
BRANCH  27  28
ATOM     28  C   UNL d   1      26.205 -17.388   0.069  0.00  0.00     0.041 C 
BRANCH  28  29
ATOM     29  C   UNL d   1      24.753 -17.636  -0.259  0.00  0.00    -0.058 A 
ATOM     30  C   UNL d   1      23.880 -16.552  -0.426  0.00  0.00     0.007 A 
ATOM     31  C   UNL d   1      22.530 -16.763  -0.698  0.00  0.00     0.001 A 
ATOM     32  C   UNL d   1      22.052 -18.059  -0.869  0.00  0.00     0.000 A 
ATOM     33  C   UNL d   1      22.911 -19.146  -0.711  0.00  0.00     0.001 A 
ATOM     34  C   UNL d   1      24.255 -18.937  -0.394  0.00  0.00     0.007 A 
ENDBRANCH  28  29
ENDBRANCH  27  28
ENDBRANCH  26  27
ENDBRANCH  25  26
ENDBRANCH  23  25
ENDBRANCH  22  23
ENDBRANCH  21  22
ENDBRANCH  20  21
ENDBRANCH   2  20
TORSDOF 13
ENDMDL
MODEL 7
REMARK VINA RESULT:    -6.647      5.963      9.721
REMARK INTER + INTRA:         -15.178
REMARK INTER:                 -10.525
REMARK INTRA:                  -4.652
REMARK CONF_INDEPENDENT:        3.878
REMARK UNBOUND:                -4.652
REMARK  13 active torsions:
REMARK  status: ('A' for Active; 'I' for Inactive)
REMARK    1  A    between atoms: C_2  and  C_12 
REMARK    2  A    between atoms: C_2  and  O_3 
REMARK    3  A    between atoms: O_3  and  C_4 
REMARK       I    between atoms: C_12  and  N_14 
REMARK    4  A    between atoms: N_14  and  N_15 
REMARK       I    between atoms: N_15  and  C_16 
REMARK    5  A    between atoms: C_16  and  C_18 
REMARK    6  A    between atoms: C_18  and  C_19 
REMARK    7  A    between atoms: C_19  and  C_20 
REMARK    8  A    between atoms: C_20  and  C_21 
REMARK    9  A    between atoms: C_21  and  O_23 
REMARK   10  A    between atoms: O_23  and  C_24 
REMARK   11  A    between atoms: C_24  and  C_25 
REMARK   12  A    between atoms: C_25  and  C_26 
REMARK   13  A    between atoms: C_26  and  C_27 
ROOT
ATOM      1  N   UNL d   1      27.587 -14.136   3.327  0.00  0.00    -0.267 N 
ATOM      2  C   UNL d   1      28.254 -14.036   4.539  0.00  0.00     0.236 C 
ATOM      3  O   UNL d   1      29.282 -14.677   4.757  0.00  0.00    -0.272 OA
ATOM      4  H   UNL d   1      26.737 -13.629   3.085  0.00  0.00     0.190 HD
ENDROOT
BRANCH   1   5
ATOM      5  N   UNL d   1      28.085 -15.033   2.350  0.00  0.00    -0.265 N 
ATOM      6  C   UNL d   1      27.476 -15.100   1.096  0.00  0.00     0.265 C 
ATOM      7  O   UNL d   1      26.452 -14.459   0.858  0.00  0.00    -0.269 OA
ATOM      8  H   UNL d   1      28.948 -15.516   2.605  0.00  0.00     0.190 HD
BRANCH   6   9
ATOM      9  C   UNL d   1      28.172 -16.031   0.053  0.00  0.00     0.218 C 
ATOM     10  C   UNL d   1      29.452 -15.349  -0.385  0.00  0.00     0.050 C 
BRANCH   9  11
ATOM     11  O   UNL d   1      27.252 -16.406  -1.006  0.00  0.00    -0.335 OA
BRANCH  11  12
ATOM     12  C   UNL d   1      25.964 -16.867  -0.886  0.00  0.00     0.091 A 
ATOM     13  C   UNL d   1      24.816 -16.254  -1.390  0.00  0.00     0.040 A 
ATOM     14  C   UNL d   1      23.534 -16.773  -1.274  0.00  0.00     0.026 A 
ATOM     15  C   UNL d   1      23.340 -17.935  -0.572  0.00  0.00     0.035 A 
ATOM     16 CL   UNL d   1      21.738 -18.525  -0.412  0.00  0.00    -0.084 Cl
ATOM     17  C   UNL d   1      24.432 -18.574   0.005  0.00  0.00     0.050 A 
ATOM     18  C   UNL d   1      25.736 -18.052  -0.159  0.00  0.00     0.069 A 
ATOM     19 CL   UNL d   1      27.030 -18.916   0.602  0.00  0.00    -0.081 Cl
ENDBRANCH  11  12
ENDBRANCH   9  11
ENDBRANCH   6   9
ENDBRANCH   1   5
BRANCH   2  20
ATOM     20  C   UNL d   1      27.619 -13.087   5.568  0.00  0.00     0.105 C 
BRANCH  20  21
ATOM     21  C   UNL d   1      27.891 -11.611   5.223  0.00  0.00     0.019 C 
BRANCH  21  22
ATOM     22  C   UNL d   1      28.383 -11.357   3.785  0.00  0.00     0.111 C 
BRANCH  22  23
ATOM     23  C   UNL d   1      27.220 -10.916   2.898  0.00  0.00     0.258 C 
ATOM     24  O   UNL d   1      26.597  -9.881   3.042  0.00  0.00    -0.265 OA
BRANCH  23  25
ATOM     25  O   UNL d   1      26.963 -11.833   1.914  0.00  0.00    -0.321 OA
BRANCH  25  26
ATOM     26  C   UNL d   1      28.004 -11.904   0.917  0.00  0.00     0.179 C 
BRANCH  26  27
ATOM     27  C   UNL d   1      27.388 -11.813  -0.473  0.00  0.00     0.031 C 
BRANCH  27  28
ATOM     28  C   UNL d   1      28.187 -12.616  -1.503  0.00  0.00     0.041 C 
BRANCH  28  29
ATOM     29  C   UNL d   1      27.273 -13.310  -2.484  0.00  0.00    -0.058 A 
ATOM     30  C   UNL d   1      25.901 -13.024  -2.482  0.00  0.00     0.007 A 
ATOM     31  C   UNL d   1      25.039 -13.678  -3.360  0.00  0.00     0.001 A 
ATOM     32  C   UNL d   1      25.550 -14.577  -4.292  0.00  0.00     0.000 A 
ATOM     33  C   UNL d   1      26.914 -14.866  -4.308  0.00  0.00     0.001 A 
ATOM     34  C   UNL d   1      27.772 -14.245  -3.399  0.00  0.00     0.007 A 
ENDBRANCH  28  29
ENDBRANCH  27  28
ENDBRANCH  26  27
ENDBRANCH  25  26
ENDBRANCH  23  25
ENDBRANCH  22  23
ENDBRANCH  21  22
ENDBRANCH  20  21
ENDBRANCH   2  20
TORSDOF 13
ENDMDL
MODEL 8
REMARK VINA RESULT:    -6.622      5.490      8.969
REMARK INTER + INTRA:         -15.326
REMARK INTER:                 -10.500
REMARK INTRA:                  -4.826
REMARK CONF_INDEPENDENT:        3.878
REMARK UNBOUND:                -4.826
REMARK  13 active torsions:
REMARK  status: ('A' for Active; 'I' for Inactive)
REMARK    1  A    between atoms: C_2  and  C_12 
REMARK    2  A    between atoms: C_2  and  O_3 
REMARK    3  A    between atoms: O_3  and  C_4 
REMARK       I    between atoms: C_12  and  N_14 
REMARK    4  A    between atoms: N_14  and  N_15 
REMARK       I    between atoms: N_15  and  C_16 
REMARK    5  A    between atoms: C_16  and  C_18 
REMARK    6  A    between atoms: C_18  and  C_19 
REMARK    7  A    between atoms: C_19  and  C_20 
REMARK    8  A    between atoms: C_20  and  C_21 
REMARK    9  A    between atoms: C_21  and  O_23 
REMARK   10  A    between atoms: O_23  and  C_24 
REMARK   11  A    between atoms: C_24  and  C_25 
REMARK   12  A    between atoms: C_25  and  C_26 
REMARK   13  A    between atoms: C_26  and  C_27 
ROOT
ATOM      1  N   UNL d   1      28.258 -15.032  -4.169  0.00  0.00    -0.267 N 
ATOM      2  C   UNL d   1      27.320 -14.596  -5.092  0.00  0.00     0.236 C 
ATOM      3  O   UNL d   1      27.130 -15.205  -6.146  0.00  0.00    -0.272 OA
ATOM      4  H   UNL d   1      28.458 -14.577  -3.280  0.00  0.00     0.190 HD
ENDROOT
BRANCH   1   5
ATOM      5  N   UNL d   1      29.038 -16.173  -4.480  0.00  0.00    -0.265 N 
ATOM      6  C   UNL d   1      29.919 -16.691  -3.529  0.00  0.00     0.265 C 
ATOM      7  O   UNL d   1      30.099 -16.113  -2.457  0.00  0.00    -0.269 OA
ATOM      8  H   UNL d   1      28.823 -16.614  -5.376  0.00  0.00     0.190 HD
BRANCH   6   9
ATOM      9  C   UNL d   1      30.643 -18.017  -3.926  0.00  0.00     0.218 C 
ATOM     10  C   UNL d   1      32.123 -17.715  -4.028  0.00  0.00     0.050 C 
BRANCH   9  11
ATOM     11  O   UNL d   1      30.029 -18.616  -5.098  0.00  0.00    -0.335 OA
BRANCH  11  12
ATOM     12  C   UNL d   1      30.649 -19.115  -6.217  0.00  0.00     0.091 A 
ATOM     13  C   UNL d   1      30.978 -20.450  -6.454  0.00  0.00     0.040 A 
ATOM     14  C   UNL d   1      31.576 -20.917  -7.617  0.00  0.00     0.026 A 
ATOM     15  C   UNL d   1      31.934 -20.024  -8.593  0.00  0.00     0.035 A 
ATOM     16 CL   UNL d   1      32.709 -20.629  -9.998  0.00  0.00    -0.084 Cl
ATOM     17  C   UNL d   1      31.686 -18.669  -8.403  0.00  0.00     0.050 A 
ATOM     18  C   UNL d   1      31.038 -18.217  -7.230  0.00  0.00     0.069 A 
ATOM     19 CL   UNL d   1      30.780 -16.510  -7.083  0.00  0.00    -0.081 Cl
ENDBRANCH  11  12
ENDBRANCH   9  11
ENDBRANCH   6   9
ENDBRANCH   1   5
BRANCH   2  20
ATOM     20  C   UNL d   1      26.556 -13.320  -4.708  0.00  0.00     0.105 C 
BRANCH  20  21
ATOM     21  C   UNL d   1      25.324 -13.634  -3.840  0.00  0.00     0.019 C 
BRANCH  21  22
ATOM     22  C   UNL d   1      25.533 -13.463  -2.323  0.00  0.00     0.111 C 
BRANCH  22  23
ATOM     23  C   UNL d   1      26.991 -13.730  -1.956  0.00  0.00     0.258 C 
ATOM     24  O   UNL d   1      27.877 -12.897  -1.994  0.00  0.00    -0.265 OA
BRANCH  23  25
ATOM     25  O   UNL d   1      27.183 -15.032  -1.575  0.00  0.00    -0.321 OA
BRANCH  25  26
ATOM     26  C   UNL d   1      27.421 -15.181  -0.159  0.00  0.00     0.179 C 
BRANCH  26  27
ATOM     27  C   UNL d   1      27.070 -16.598   0.272  0.00  0.00     0.031 C 
BRANCH  27  28
ATOM     28  C   UNL d   1      26.447 -17.404  -0.871  0.00  0.00     0.041 C 
BRANCH  28  29
ATOM     29  C   UNL d   1      24.943 -17.453  -0.749  0.00  0.00    -0.058 A 
ATOM     30  C   UNL d   1      24.313 -18.642  -0.359  0.00  0.00     0.007 A 
ATOM     31  C   UNL d   1      22.924 -18.714  -0.272  0.00  0.00     0.001 A 
ATOM     32  C   UNL d   1      22.155 -17.579  -0.512  0.00  0.00     0.000 A 
ATOM     33  C   UNL d   1      22.771 -16.388  -0.895  0.00  0.00     0.001 A 
ATOM     34  C   UNL d   1      24.159 -16.327  -1.027  0.00  0.00     0.007 A 
ENDBRANCH  28  29
ENDBRANCH  27  28
ENDBRANCH  26  27
ENDBRANCH  25  26
ENDBRANCH  23  25
ENDBRANCH  22  23
ENDBRANCH  21  22
ENDBRANCH  20  21
ENDBRANCH   2  20
TORSDOF 13
ENDMDL
MODEL 9
REMARK VINA RESULT:    -6.201      4.991      9.491
REMARK INTER + INTRA:         -15.243
REMARK INTER:                 -10.079
REMARK INTRA:                  -5.164
REMARK CONF_INDEPENDENT:        3.878
REMARK UNBOUND:                -5.164
REMARK  13 active torsions:
REMARK  status: ('A' for Active; 'I' for Inactive)
REMARK    1  A    between atoms: C_2  and  C_12 
REMARK    2  A    between atoms: C_2  and  O_3 
REMARK    3  A    between atoms: O_3  and  C_4 
REMARK       I    between atoms: C_12  and  N_14 
REMARK    4  A    between atoms: N_14  and  N_15 
REMARK       I    between atoms: N_15  and  C_16 
REMARK    5  A    between atoms: C_16  and  C_18 
REMARK    6  A    between atoms: C_18  and  C_19 
REMARK    7  A    between atoms: C_19  and  C_20 
REMARK    8  A    between atoms: C_20  and  C_21 
REMARK    9  A    between atoms: C_21  and  O_23 
REMARK   10  A    between atoms: O_23  and  C_24 
REMARK   11  A    between atoms: C_24  and  C_25 
REMARK   12  A    between atoms: C_25  and  C_26 
REMARK   13  A    between atoms: C_26  and  C_27 
ROOT
ATOM      1  N   UNL d   1      29.808 -15.382  -3.455  0.00  0.00    -0.267 N 
ATOM      2  C   UNL d   1      30.310 -16.561  -3.986  0.00  0.00     0.236 C 
ATOM      3  O   UNL d   1      29.889 -17.658  -3.617  0.00  0.00    -0.272 OA
ATOM      4  H   UNL d   1      30.110 -14.447  -3.721  0.00  0.00     0.190 HD
ENDROOT
BRANCH   1   5
ATOM      5  N   UNL d   1      28.828 -15.460  -2.434  0.00  0.00    -0.265 N 
ATOM      6  C   UNL d   1      28.224 -14.294  -1.964  0.00  0.00     0.265 C 
ATOM      7  O   UNL d   1      28.599 -13.188  -2.354  0.00  0.00    -0.269 OA
ATOM      8  H   UNL d   1      28.550 -16.407  -2.173  0.00  0.00     0.190 HD
BRANCH   6   9
ATOM      9  C   UNL d   1      27.075 -14.497  -0.926  0.00  0.00     0.218 C 
ATOM     10  C   UNL d   1      27.414 -13.671   0.298  0.00  0.00     0.050 C 
BRANCH   9  11
ATOM     11  O   UNL d   1      26.823 -15.908  -0.696  0.00  0.00    -0.335 OA
BRANCH  11  12
ATOM     12  C   UNL d   1      25.614 -16.558  -0.660  0.00  0.00     0.091 A 
ATOM     13  C   UNL d   1      24.392 -16.058  -1.113  0.00  0.00     0.040 A 
ATOM     14  C   UNL d   1      23.197 -16.764  -1.088  0.00  0.00     0.026 A 
ATOM     15  C   UNL d   1      23.168 -18.017  -0.533  0.00  0.00     0.035 A 
ATOM     16 CL   UNL d   1      21.667 -18.844  -0.481  0.00  0.00    -0.084 Cl
ATOM     17  C   UNL d   1      24.338 -18.560  -0.012  0.00  0.00     0.050 A 
ATOM     18  C   UNL d   1      25.554 -17.842  -0.084  0.00  0.00     0.069 A 
ATOM     19 CL   UNL d   1      26.955 -18.600   0.599  0.00  0.00    -0.081 Cl
ENDBRANCH  11  12
ENDBRANCH   9  11
ENDBRANCH   6   9
ENDBRANCH   1   5
BRANCH   2  20
ATOM     20  C   UNL d   1      31.411 -16.395  -5.045  0.00  0.00     0.105 C 
BRANCH  20  21
ATOM     21  C   UNL d   1      31.018 -15.358  -6.114  0.00  0.00     0.019 C 
BRANCH  21  22
ATOM     22  C   UNL d   1      29.599 -15.519  -6.690  0.00  0.00     0.111 C 
BRANCH  22  23
ATOM     23  C   UNL d   1      28.626 -14.589  -5.969  0.00  0.00     0.258 C 
ATOM     24  O   UNL d   1      28.951 -13.581  -5.371  0.00  0.00    -0.265 OA
BRANCH  23  25
ATOM     25  O   UNL d   1      27.334 -15.030  -6.078  0.00  0.00    -0.321 OA
BRANCH  25  26
ATOM     26  C   UNL d   1      26.764 -15.439  -4.817  0.00  0.00     0.179 C 
BRANCH  26  27
ATOM     27  C   UNL d   1      25.385 -14.815  -4.653  0.00  0.00     0.031 C 
BRANCH  27  28
ATOM     28  C   UNL d   1      25.359 -13.780  -3.524  0.00  0.00     0.041 C 
BRANCH  28  29
ATOM     29  C   UNL d   1      25.807 -12.425  -4.014  0.00  0.00    -0.058 A 
ATOM     30  C   UNL d   1      25.888 -12.172  -5.391  0.00  0.00     0.007 A 
ATOM     31  C   UNL d   1      26.330 -10.937  -5.860  0.00  0.00     0.001 A 
ATOM     32  C   UNL d   1      26.634  -9.920  -4.958  0.00  0.00     0.000 A 
ATOM     33  C   UNL d   1      26.552 -10.158  -3.587  0.00  0.00     0.001 A 
ATOM     34  C   UNL d   1      26.152 -11.410  -3.115  0.00  0.00     0.007 A 
ENDBRANCH  28  29
ENDBRANCH  27  28
ENDBRANCH  26  27
ENDBRANCH  25  26
ENDBRANCH  23  25
ENDBRANCH  22  23
ENDBRANCH  21  22
ENDBRANCH  20  21
ENDBRANCH   2  20
TORSDOF 13
ENDMDL
