MODEL 1
REMARK VINA RESULT:    -7.651      0.000      0.000
REMARK INTER + INTRA:          -9.293
REMARK INTER:                  -8.844
REMARK INTRA:                  -0.448
REMARK CONF_INDEPENDENT:        1.193
REMARK UNBOUND:                -0.448
REMARK  4 active torsions:
REMARK  status: ('A' for Active; 'I' for Inactive)
REMARK       I    between atoms: C_2  and  N_3 
REMARK    1  A    between atoms: C_2  and  C_15 
REMARK    2  A    between atoms: N_3  and  C_4 
REMARK    3  A    between atoms: C_4  and  N_6 
REMARK    4  A    between atoms: N_6  and  C_7 
ROOT
ATOM      1  C   UNL d   1      23.568 -18.320  -0.350  0.00  0.00     0.179 C 
ATOM      2  S   UNL d   1      23.679 -18.069  -2.020  0.00  0.00    -0.040 SA
ENDROOT
BRANCH   1   3
ATOM      3  N   UNL d   1      22.442 -18.935   0.255  0.00  0.00    -0.299 N 
ATOM      4  C   UNL d   1      21.102 -18.711  -0.125  0.00  0.00     0.257 C 
ATOM      5  O   UNL d   1      20.715 -17.852  -0.924  0.00  0.00    -0.267 OA
ATOM      6  H   UNL d   1      22.606 -19.688   0.911  0.00  0.00     0.171 HD
BRANCH   4   7
ATOM      7  C   UNL d   1      20.010 -19.559   0.402  0.00  0.00     0.032 A 
ATOM      8  C   UNL d   1      19.840 -19.858   1.751  0.00  0.00     0.017 A 
ATOM      9  C   UNL d   1      18.808 -20.726   2.133  0.00  0.00     0.001 A 
ATOM     10  C   UNL d   1      17.897 -21.218   1.191  0.00  0.00     0.000 A 
ATOM     11  C   UNL d   1      18.008 -20.844  -0.144  0.00  0.00     0.001 A 
ATOM     12  C   UNL d   1      19.056 -20.013  -0.533  0.00  0.00     0.017 A 
ENDBRANCH   4   7
ENDBRANCH   1   3
BRANCH   1  13
ATOM     13  N   UNL d   1      24.604 -17.962   0.550  0.00  0.00    -0.330 N 
ATOM     14  H   UNL d   1      24.662 -18.447   1.440  0.00  0.00     0.168 HD
BRANCH  13  15
ATOM     15  C   UNL d   1      25.848 -17.338   0.140  0.00  0.00     0.076 A 
ATOM     16  C   UNL d   1      25.890 -16.012  -0.317  0.00  0.00     0.074 A 
ATOM     17  C   UNL d   1      27.077 -15.436  -0.766  0.00  0.00     0.118 A 
ATOM     18  F   UNL d   1      27.064 -14.176  -1.223  0.00  0.00    -0.206 F 
ATOM     19  C   UNL d   1      28.270 -16.141  -0.739  0.00  0.00     0.045 A 
ATOM     20  C   UNL d   1      28.266 -17.450  -0.258  0.00  0.00     0.047 A 
ATOM     21  C   UNL d   1      27.066 -18.034   0.188  0.00  0.00     0.143 A 
ATOM     22  F   UNL d   1      27.098 -19.308   0.608  0.00  0.00    -0.204 F 
ENDBRANCH  13  15
ENDBRANCH   1  13
TORSDOF 4
ENDMDL
MODEL 2
REMARK VINA RESULT:    -7.523      1.955      2.410
REMARK INTER + INTRA:          -9.718
REMARK INTER:                  -8.716
REMARK INTRA:                  -1.002
REMARK CONF_INDEPENDENT:        1.193
REMARK UNBOUND:                -1.002
REMARK  4 active torsions:
REMARK  status: ('A' for Active; 'I' for Inactive)
REMARK       I    between atoms: C_2  and  N_3 
REMARK    1  A    between atoms: C_2  and  C_15 
REMARK    2  A    between atoms: N_3  and  C_4 
REMARK    3  A    between atoms: C_4  and  N_6 
REMARK    4  A    between atoms: N_6  and  C_7 
ROOT
ATOM      1  C   UNL d   1      24.546 -18.099  -0.495  0.00  0.00     0.179 C 
ATOM      2  S   UNL d   1      26.080 -18.384   0.159  0.00  0.00    -0.040 SA
ENDROOT
BRANCH   1   3
ATOM      3  N   UNL d   1      23.364 -18.651   0.062  0.00  0.00    -0.299 N 
ATOM      4  C   UNL d   1      22.056 -18.216  -0.237  0.00  0.00     0.257 C 
ATOM      5  O   UNL d   1      21.764 -17.213  -0.898  0.00  0.00    -0.267 OA
ATOM      6  H   UNL d   1      23.445 -19.502   0.603  0.00  0.00     0.171 HD
BRANCH   4   7
ATOM      7  C   UNL d   1      20.876 -18.990   0.208  0.00  0.00     0.032 A 
ATOM      8  C   UNL d   1      20.625 -19.331   1.535  0.00  0.00     0.017 A 
ATOM      9  C   UNL d   1      19.510 -20.124   1.837  0.00  0.00     0.001 A 
ATOM     10  C   UNL d   1      18.602 -20.496   0.839  0.00  0.00     0.000 A 
ATOM     11  C   UNL d   1      18.799 -20.077  -0.472  0.00  0.00     0.001 A 
ATOM     12  C   UNL d   1      19.928 -19.321  -0.782  0.00  0.00     0.017 A 
ENDBRANCH   4   7
ENDBRANCH   1   3
BRANCH   1  13
ATOM     13  N   UNL d   1      24.336 -17.263  -1.622  0.00  0.00    -0.330 N 
ATOM     14  H   UNL d   1      23.387 -17.135  -1.960  0.00  0.00     0.168 HD
BRANCH  13  15
ATOM     15  C   UNL d   1      25.250 -16.211  -2.027  0.00  0.00     0.076 A 
ATOM     16  C   UNL d   1      25.530 -15.961  -3.378  0.00  0.00     0.074 A 
ATOM     17  C   UNL d   1      26.455 -14.990  -3.760  0.00  0.00     0.118 A 
ATOM     18  F   UNL d   1      26.713 -14.806  -5.062  0.00  0.00    -0.206 F 
ATOM     19  C   UNL d   1      27.102 -14.207  -2.817  0.00  0.00     0.045 A 
ATOM     20  C   UNL d   1      26.818 -14.409  -1.467  0.00  0.00     0.047 A 
ATOM     21  C   UNL d   1      25.892 -15.395  -1.081  0.00  0.00     0.143 A 
ATOM     22  F   UNL d   1      25.675 -15.584   0.230  0.00  0.00    -0.204 F 
ENDBRANCH  13  15
ENDBRANCH   1  13
TORSDOF 4
ENDMDL
MODEL 3
REMARK VINA RESULT:    -7.010      1.985      2.519
REMARK INTER + INTRA:          -8.875
REMARK INTER:                  -8.203
REMARK INTRA:                  -0.672
REMARK CONF_INDEPENDENT:        1.193
REMARK UNBOUND:                -0.672
REMARK  4 active torsions:
REMARK  status: ('A' for Active; 'I' for Inactive)
REMARK       I    between atoms: C_2  and  N_3 
REMARK    1  A    between atoms: C_2  and  C_15 
REMARK    2  A    between atoms: N_3  and  C_4 
REMARK    3  A    between atoms: C_4  and  N_6 
REMARK    4  A    between atoms: N_6  and  C_7 
ROOT
ATOM      1  C   UNL d   1      24.742 -18.123  -0.483  0.00  0.00     0.179 C 
ATOM      2  S   UNL d   1      26.095 -18.103   0.533  0.00  0.00    -0.040 SA
ENDROOT
BRANCH   1   3
ATOM      3  N   UNL d   1      23.510 -18.716  -0.103  0.00  0.00    -0.299 N 
ATOM      4  C   UNL d   1      22.238 -18.166  -0.370  0.00  0.00     0.257 C 
ATOM      5  O   UNL d   1      22.023 -17.041  -0.833  0.00  0.00    -0.267 OA
ATOM      6  H   UNL d   1      23.528 -19.659   0.263  0.00  0.00     0.171 HD
BRANCH   4   7
ATOM      7  C   UNL d   1      21.006 -18.954  -0.142  0.00  0.00     0.032 A 
ATOM      8  C   UNL d   1      20.161 -19.386  -1.161  0.00  0.00     0.017 A 
ATOM      9  C   UNL d   1      18.984 -20.071  -0.826  0.00  0.00     0.001 A 
ATOM     10  C   UNL d   1      18.700 -20.402   0.503  0.00  0.00     0.000 A 
ATOM     11  C   UNL d   1      19.591 -20.055   1.513  0.00  0.00     0.001 A 
ATOM     12  C   UNL d   1      20.741 -19.340   1.188  0.00  0.00     0.017 A 
ENDBRANCH   4   7
ENDBRANCH   1   3
BRANCH   1  13
ATOM     13  N   UNL d   1      24.738 -17.522  -1.768  0.00  0.00    -0.330 N 
ATOM     14  H   UNL d   1      23.939 -17.678  -2.375  0.00  0.00     0.168 HD
BRANCH  13  15
ATOM     15  C   UNL d   1      25.509 -16.340  -2.107  0.00  0.00     0.076 A 
ATOM     16  C   UNL d   1      24.888 -15.141  -2.486  0.00  0.00     0.074 A 
ATOM     17  C   UNL d   1      25.632 -14.026  -2.869  0.00  0.00     0.118 A 
ATOM     18  F   UNL d   1      24.996 -12.912  -3.252  0.00  0.00    -0.206 F 
ATOM     19  C   UNL d   1      27.018 -14.051  -2.850  0.00  0.00     0.045 A 
ATOM     20  C   UNL d   1      27.665 -15.218  -2.445  0.00  0.00     0.047 A 
ATOM     21  C   UNL d   1      26.913 -16.345  -2.066  0.00  0.00     0.143 A 
ATOM     22  F   UNL d   1      27.573 -17.461  -1.719  0.00  0.00    -0.204 F 
ENDBRANCH  13  15
ENDBRANCH   1  13
TORSDOF 4
ENDMDL
MODEL 4
REMARK VINA RESULT:    -6.717      1.150      2.154
REMARK INTER + INTRA:          -8.221
REMARK INTER:                  -7.910
REMARK INTRA:                  -0.311
REMARK CONF_INDEPENDENT:        1.193
REMARK UNBOUND:                -0.311
REMARK  4 active torsions:
REMARK  status: ('A' for Active; 'I' for Inactive)
REMARK       I    between atoms: C_2  and  N_3 
REMARK    1  A    between atoms: C_2  and  C_15 
REMARK    2  A    between atoms: N_3  and  C_4 
REMARK    3  A    between atoms: C_4  and  N_6 
REMARK    4  A    between atoms: N_6  and  C_7 
ROOT
ATOM      1  C   UNL d   1      23.537 -18.245  -0.449  0.00  0.00     0.179 C 
ATOM      2  S   UNL d   1      23.655 -18.261  -2.137  0.00  0.00    -0.040 SA
ENDROOT
BRANCH   1   3
ATOM      3  N   UNL d   1      22.369 -18.665   0.239  0.00  0.00    -0.299 N 
ATOM      4  C   UNL d   1      21.206 -19.165  -0.384  0.00  0.00     0.257 C 
ATOM      5  O   UNL d   1      20.986 -19.170  -1.600  0.00  0.00    -0.267 OA
ATOM      6  H   UNL d   1      22.412 -18.743   1.247  0.00  0.00     0.171 HD
BRANCH   4   7
ATOM      7  C   UNL d   1      20.126 -19.790   0.411  0.00  0.00     0.032 A 
ATOM      8  C   UNL d   1      19.033 -20.450  -0.145  0.00  0.00     0.017 A 
ATOM      9  C   UNL d   1      18.034 -20.949   0.702  0.00  0.00     0.001 A 
ATOM     10  C   UNL d   1      18.167 -20.871   2.092  0.00  0.00     0.000 A 
ATOM     11  C   UNL d   1      19.303 -20.297   2.652  0.00  0.00     0.001 A 
ATOM     12  C   UNL d   1      20.280 -19.766   1.813  0.00  0.00     0.017 A 
ENDBRANCH   4   7
ENDBRANCH   1   3
BRANCH   1  13
ATOM     13  N   UNL d   1      24.607 -17.843   0.391  0.00  0.00    -0.330 N 
ATOM     14  H   UNL d   1      24.776 -18.366   1.245  0.00  0.00     0.168 HD
BRANCH  13  15
ATOM     15  C   UNL d   1      25.758 -17.092  -0.073  0.00  0.00     0.076 A 
ATOM     16  C   UNL d   1      27.067 -17.471   0.261  0.00  0.00     0.074 A 
ATOM     17  C   UNL d   1      28.167 -16.712  -0.138  0.00  0.00     0.118 A 
ATOM     18  F   UNL d   1      29.396 -17.096   0.230  0.00  0.00    -0.206 F 
ATOM     19  C   UNL d   1      28.008 -15.575  -0.914  0.00  0.00     0.045 A 
ATOM     20  C   UNL d   1      26.721 -15.192  -1.291  0.00  0.00     0.047 A 
ATOM     21  C   UNL d   1      25.611 -15.953  -0.882  0.00  0.00     0.143 A 
ATOM     22  F   UNL d   1      24.387 -15.530  -1.233  0.00  0.00    -0.204 F 
ENDBRANCH  13  15
ENDBRANCH   1  13
TORSDOF 4
ENDMDL
MODEL 5
REMARK VINA RESULT:    -6.113      4.539      7.916
REMARK INTER + INTRA:          -7.979
REMARK INTER:                  -7.306
REMARK INTRA:                  -0.673
REMARK CONF_INDEPENDENT:        1.193
REMARK UNBOUND:                -0.673
REMARK  4 active torsions:
REMARK  status: ('A' for Active; 'I' for Inactive)
REMARK       I    between atoms: C_2  and  N_3 
REMARK    1  A    between atoms: C_2  and  C_15 
REMARK    2  A    between atoms: N_3  and  C_4 
REMARK    3  A    between atoms: C_4  and  N_6 
REMARK    4  A    between atoms: N_6  and  C_7 
ROOT
ATOM      1  C   UNL d   1      28.751 -15.579   0.183  0.00  0.00     0.179 C 
ATOM      2  S   UNL d   1      29.231 -14.725  -1.196  0.00  0.00    -0.040 SA
ENDROOT
BRANCH   1   3
ATOM      3  N   UNL d   1      28.895 -15.056   1.494  0.00  0.00    -0.299 N 
ATOM      4  C   UNL d   1      27.948 -14.232   2.138  0.00  0.00     0.257 C 
ATOM      5  O   UNL d   1      26.947 -13.736   1.609  0.00  0.00    -0.267 OA
ATOM      6  H   UNL d   1      29.657 -15.400   2.064  0.00  0.00     0.171 HD
BRANCH   4   7
ATOM      7  C   UNL d   1      28.068 -13.918   3.579  0.00  0.00     0.032 A 
ATOM      8  C   UNL d   1      28.514 -14.824   4.538  0.00  0.00     0.017 A 
ATOM      9  C   UNL d   1      28.526 -14.441   5.886  0.00  0.00     0.001 A 
ATOM     10  C   UNL d   1      28.185 -13.138   6.265  0.00  0.00     0.000 A 
ATOM     11  C   UNL d   1      27.831 -12.202   5.299  0.00  0.00     0.001 A 
ATOM     12  C   UNL d   1      27.780 -12.591   3.962  0.00  0.00     0.017 A 
ENDBRANCH   4   7
ENDBRANCH   1   3
BRANCH   1  13
ATOM     13  N   UNL d   1      28.145 -16.860   0.120  0.00  0.00    -0.330 N 
ATOM     14  H   UNL d   1      28.595 -17.634   0.600  0.00  0.00     0.168 HD
BRANCH  13  15
ATOM     15  C   UNL d   1      26.733 -17.072  -0.139  0.00  0.00     0.076 A 
ATOM     16  C   UNL d   1      26.013 -16.242  -1.010  0.00  0.00     0.074 A 
ATOM     17  C   UNL d   1      24.643 -16.412  -1.209  0.00  0.00     0.118 A 
ATOM     18  F   UNL d   1      23.991 -15.576  -2.028  0.00  0.00    -0.206 F 
ATOM     19  C   UNL d   1      23.951 -17.436  -0.582  0.00  0.00     0.045 A 
ATOM     20  C   UNL d   1      24.646 -18.299   0.264  0.00  0.00     0.047 A 
ATOM     21  C   UNL d   1      26.027 -18.122   0.471  0.00  0.00     0.143 A 
ATOM     22  F   UNL d   1      26.652 -18.950   1.322  0.00  0.00    -0.204 F 
ENDBRANCH  13  15
ENDBRANCH   1  13
TORSDOF 4
ENDMDL
MODEL 6
REMARK VINA RESULT:    -5.970      4.881      6.978
REMARK INTER + INTRA:          -8.324
REMARK INTER:                  -7.163
REMARK INTRA:                  -1.160
REMARK CONF_INDEPENDENT:        1.193
REMARK UNBOUND:                -1.160
REMARK  4 active torsions:
REMARK  status: ('A' for Active; 'I' for Inactive)
REMARK       I    between atoms: C_2  and  N_3 
REMARK    1  A    between atoms: C_2  and  C_15 
REMARK    2  A    between atoms: N_3  and  C_4 
REMARK    3  A    between atoms: C_4  and  N_6 
REMARK    4  A    between atoms: N_6  and  C_7 
ROOT
ATOM      1  C   UNL d   1      26.500 -14.569  -4.793  0.00  0.00     0.179 C 
ATOM      2  S   UNL d   1      27.786 -14.825  -5.862  0.00  0.00    -0.040 SA
ENDROOT
BRANCH   1   3
ATOM      3  N   UNL d   1      26.326 -15.333  -3.611  0.00  0.00    -0.299 N 
ATOM      4  C   UNL d   1      25.156 -15.338  -2.822  0.00  0.00     0.257 C 
ATOM      5  O   UNL d   1      24.190 -14.581  -2.963  0.00  0.00    -0.267 OA
ATOM      6  H   UNL d   1      27.027 -16.026  -3.384  0.00  0.00     0.171 HD
BRANCH   4   7
ATOM      7  C   UNL d   1      24.973 -16.329  -1.739  0.00  0.00     0.032 A 
ATOM      8  C   UNL d   1      26.020 -17.010  -1.124  0.00  0.00     0.017 A 
ATOM      9  C   UNL d   1      25.728 -17.977  -0.151  0.00  0.00     0.001 A 
ATOM     10  C   UNL d   1      24.412 -18.197   0.269  0.00  0.00     0.000 A 
ATOM     11  C   UNL d   1      23.373 -17.450  -0.276  0.00  0.00     0.001 A 
ATOM     12  C   UNL d   1      23.656 -16.516  -1.270  0.00  0.00     0.017 A 
ENDBRANCH   4   7
ENDBRANCH   1   3
BRANCH   1  13
ATOM     13  N   UNL d   1      25.529 -13.554  -4.991  0.00  0.00    -0.330 N 
ATOM     14  H   UNL d   1      24.547 -13.811  -4.969  0.00  0.00     0.168 HD
BRANCH  13  15
ATOM     15  C   UNL d   1      25.772 -12.146  -4.738  0.00  0.00     0.076 A 
ATOM     16  C   UNL d   1      25.880 -11.219  -5.785  0.00  0.00     0.074 A 
ATOM     17  C   UNL d   1      26.173  -9.878  -5.540  0.00  0.00     0.118 A 
ATOM     18  F   UNL d   1      26.296  -9.034  -6.573  0.00  0.00    -0.206 F 
ATOM     19  C   UNL d   1      26.329  -9.404  -4.247  0.00  0.00     0.045 A 
ATOM     20  C   UNL d   1      26.194 -10.295  -3.183  0.00  0.00     0.047 A 
ATOM     21  C   UNL d   1      25.907 -11.650  -3.431  0.00  0.00     0.143 A 
ATOM     22  F   UNL d   1      25.822 -12.483  -2.382  0.00  0.00    -0.204 F 
ENDBRANCH  13  15
ENDBRANCH   1  13
TORSDOF 4
ENDMDL
MODEL 7
REMARK VINA RESULT:    -5.917      4.831      7.078
REMARK INTER + INTRA:          -8.233
REMARK INTER:                  -7.111
REMARK INTRA:                  -1.122
REMARK CONF_INDEPENDENT:        1.193
REMARK UNBOUND:                -1.122
REMARK  4 active torsions:
REMARK  status: ('A' for Active; 'I' for Inactive)
REMARK       I    between atoms: C_2  and  N_3 
REMARK    1  A    between atoms: C_2  and  C_15 
REMARK    2  A    between atoms: N_3  and  C_4 
REMARK    3  A    between atoms: C_4  and  N_6 
REMARK    4  A    between atoms: N_6  and  C_7 
ROOT
ATOM      1  C   UNL d   1      26.523 -14.513  -4.761  0.00  0.00     0.179 C 
ATOM      2  S   UNL d   1      27.773 -14.809  -5.863  0.00  0.00    -0.040 SA
ENDROOT
BRANCH   1   3
ATOM      3  N   UNL d   1      26.338 -15.290  -3.589  0.00  0.00    -0.299 N 
ATOM      4  C   UNL d   1      25.160 -15.305  -2.813  0.00  0.00     0.257 C 
ATOM      5  O   UNL d   1      24.195 -14.547  -2.955  0.00  0.00    -0.267 OA
ATOM      6  H   UNL d   1      27.038 -15.986  -3.363  0.00  0.00     0.171 HD
BRANCH   4   7
ATOM      7  C   UNL d   1      24.967 -16.309  -1.742  0.00  0.00     0.032 A 
ATOM      8  C   UNL d   1      26.007 -17.015  -1.143  0.00  0.00     0.017 A 
ATOM      9  C   UNL d   1      25.704 -17.990  -0.183  0.00  0.00     0.001 A 
ATOM     10  C   UNL d   1      24.387 -18.195   0.242  0.00  0.00     0.000 A 
ATOM     11  C   UNL d   1      23.357 -17.424  -0.287  0.00  0.00     0.001 A 
ATOM     12  C   UNL d   1      23.650 -16.481  -1.269  0.00  0.00     0.017 A 
ENDBRANCH   4   7
ENDBRANCH   1   3
BRANCH   1  13
ATOM     13  N   UNL d   1      25.598 -13.449  -4.919  0.00  0.00    -0.330 N 
ATOM     14  H   UNL d   1      24.606 -13.666  -4.930  0.00  0.00     0.168 HD
BRANCH  13  15
ATOM     15  C   UNL d   1      25.892 -12.069  -4.582  0.00  0.00     0.076 A 
ATOM     16  C   UNL d   1      26.179 -11.679  -3.266  0.00  0.00     0.074 A 
ATOM     17  C   UNL d   1      26.401 -10.342  -2.936  0.00  0.00     0.118 A 
ATOM     18  F   UNL d   1      26.642 -10.012  -1.661  0.00  0.00    -0.206 F 
ATOM     19  C   UNL d   1      26.386  -9.354  -3.908  0.00  0.00     0.045 A 
ATOM     20  C   UNL d   1      26.137  -9.715  -5.231  0.00  0.00     0.047 A 
ATOM     21  C   UNL d   1      25.905 -11.063  -5.563  0.00  0.00     0.143 A 
ATOM     22  F   UNL d   1      25.632 -11.364  -6.841  0.00  0.00    -0.204 F 
ENDBRANCH  13  15
ENDBRANCH   1  13
TORSDOF 4
ENDMDL
MODEL 8
REMARK VINA RESULT:    -5.908      3.547      5.039
REMARK INTER + INTRA:          -7.804
REMARK INTER:                  -7.102
REMARK INTRA:                  -0.703
REMARK CONF_INDEPENDENT:        1.193
REMARK UNBOUND:                -0.703
REMARK  4 active torsions:
REMARK  status: ('A' for Active; 'I' for Inactive)
REMARK       I    between atoms: C_2  and  N_3 
REMARK    1  A    between atoms: C_2  and  C_15 
REMARK    2  A    between atoms: N_3  and  C_4 
REMARK    3  A    between atoms: C_4  and  N_6 
REMARK    4  A    between atoms: N_6  and  C_7 
ROOT
ATOM      1  C   UNL d   1      28.216 -16.699  -0.545  0.00  0.00     0.179 C 
ATOM      2  S   UNL d   1      29.472 -17.061  -1.618  0.00  0.00    -0.040 SA
ENDROOT
BRANCH   1   3
ATOM      3  N   UNL d   1      26.854 -16.953  -0.850  0.00  0.00    -0.299 N 
ATOM      4  C   UNL d   1      25.997 -17.767  -0.080  0.00  0.00     0.257 C 
ATOM      5  O   UNL d   1      26.341 -18.481   0.868  0.00  0.00    -0.267 OA
ATOM      6  H   UNL d   1      26.421 -16.411  -1.587  0.00  0.00     0.171 HD
BRANCH   4   7
ATOM      7  C   UNL d   1      24.540 -17.797  -0.339  0.00  0.00     0.032 A 
ATOM      8  C   UNL d   1      23.770 -18.957  -0.315  0.00  0.00     0.017 A 
ATOM      9  C   UNL d   1      22.409 -18.879  -0.640  0.00  0.00     0.001 A 
ATOM     10  C   UNL d   1      21.801 -17.645  -0.896  0.00  0.00     0.000 A 
ATOM     11  C   UNL d   1      22.548 -16.474  -0.826  0.00  0.00     0.001 A 
ATOM     12  C   UNL d   1      23.910 -16.552  -0.542  0.00  0.00     0.017 A 
ENDBRANCH   4   7
ENDBRANCH   1   3
BRANCH   1  13
ATOM     13  N   UNL d   1      28.442 -16.147   0.743  0.00  0.00    -0.330 N 
ATOM     14  H   UNL d   1      29.284 -16.416   1.244  0.00  0.00     0.168 HD
BRANCH  13  15
ATOM     15  C   UNL d   1      27.862 -14.898   1.198  0.00  0.00     0.076 A 
ATOM     16  C   UNL d   1      27.867 -14.535   2.552  0.00  0.00     0.074 A 
ATOM     17  C   UNL d   1      27.256 -13.362   2.993  0.00  0.00     0.118 A 
ATOM     18  F   UNL d   1      27.260 -13.071   4.301  0.00  0.00    -0.206 F 
ATOM     19  C   UNL d   1      26.654 -12.490   2.100  0.00  0.00     0.045 A 
ATOM     20  C   UNL d   1      26.662 -12.806   0.742  0.00  0.00     0.047 A 
ATOM     21  C   UNL d   1      27.273 -13.994   0.298  0.00  0.00     0.143 A 
ATOM     22  F   UNL d   1      27.226 -14.281  -1.012  0.00  0.00    -0.204 F 
ENDBRANCH  13  15
ENDBRANCH   1  13
TORSDOF 4
ENDMDL
MODEL 9
REMARK VINA RESULT:    -5.596      4.520      8.592
REMARK INTER + INTRA:          -7.860
REMARK INTER:                  -6.789
REMARK INTRA:                  -1.071
REMARK CONF_INDEPENDENT:        1.193
REMARK UNBOUND:                -1.071
REMARK  4 active torsions:
REMARK  status: ('A' for Active; 'I' for Inactive)
REMARK       I    between atoms: C_2  and  N_3 
REMARK    1  A    between atoms: C_2  and  C_15 
REMARK    2  A    between atoms: N_3  and  C_4 
REMARK    3  A    between atoms: C_4  and  N_6 
REMARK    4  A    between atoms: N_6  and  C_7 
ROOT
ATOM      1  C   UNL d   1      26.078 -14.587  -1.676  0.00  0.00     0.179 C 
ATOM      2  S   UNL d   1      26.624 -14.157  -0.134  0.00  0.00    -0.040 SA
ENDROOT
BRANCH   1   3
ATOM      3  N   UNL d   1      26.847 -14.368  -2.848  0.00  0.00    -0.299 N 
ATOM      4  C   UNL d   1      26.319 -14.293  -4.154  0.00  0.00     0.257 C 
ATOM      5  O   UNL d   1      25.154 -14.551  -4.475  0.00  0.00    -0.267 OA
ATOM      6  H   UNL d   1      27.820 -14.110  -2.738  0.00  0.00     0.171 HD
BRANCH   4   7
ATOM      7  C   UNL d   1      27.154 -13.837  -5.287  0.00  0.00     0.032 A 
ATOM      8  C   UNL d   1      27.133 -12.541  -5.796  0.00  0.00     0.017 A 
ATOM      9  C   UNL d   1      27.919 -12.235  -6.916  0.00  0.00     0.001 A 
ATOM     10  C   UNL d   1      28.786 -13.186  -7.466  0.00  0.00     0.000 A 
ATOM     11  C   UNL d   1      28.879 -14.453  -6.900  0.00  0.00     0.001 A 
ATOM     12  C   UNL d   1      28.071 -14.772  -5.811  0.00  0.00     0.017 A 
ENDBRANCH   4   7
ENDBRANCH   1   3
BRANCH   1  13
ATOM     13  N   UNL d   1      24.830 -15.224  -1.898  0.00  0.00    -0.330 N 
ATOM     14  H   UNL d   1      24.335 -15.034  -2.764  0.00  0.00     0.168 HD
BRANCH  13  15
ATOM     15  C   UNL d   1      24.432 -16.464  -1.256  0.00  0.00     0.076 A 
ATOM     16  C   UNL d   1      23.082 -16.785  -1.052  0.00  0.00     0.074 A 
ATOM     17  C   UNL d   1      22.706 -17.949  -0.381  0.00  0.00     0.118 A 
ATOM     18  F   UNL d   1      21.406 -18.200  -0.183  0.00  0.00    -0.206 F 
ATOM     19  C   UNL d   1      23.655 -18.851   0.073  0.00  0.00     0.045 A 
ATOM     20  C   UNL d   1      25.004 -18.575  -0.145  0.00  0.00     0.047 A 
ATOM     21  C   UNL d   1      25.384 -17.397  -0.815  0.00  0.00     0.143 A 
ATOM     22  F   UNL d   1      26.694 -17.150  -0.972  0.00  0.00    -0.204 F 
ENDBRANCH  13  15
ENDBRANCH   1  13
TORSDOF 4
ENDMDL
