MODEL 1
REMARK VINA RESULT:    -9.166      0.000      0.000
REMARK INTER + INTRA:         -12.645
REMARK INTER:                 -10.955
REMARK INTRA:                  -1.690
REMARK CONF_INDEPENDENT:        1.790
REMARK UNBOUND:                -1.690
REMARK  6 active torsions:
REMARK  status: ('A' for Active; 'I' for Inactive)
REMARK    1  A    between atoms: C_6  and  C_7 
REMARK       I    between atoms: C_7  and  N_9 
REMARK    2  A    between atoms: N_9  and  N_10 
REMARK       I    between atoms: N_10  and  C_11 
REMARK       I    between atoms: C_11  and  N_13 
REMARK    3  A    between atoms: N_13  and  C_14 
REMARK    4  A    between atoms: C_14  and  C_15 
REMARK    5  A    between atoms: C_15  and  N_16 
REMARK    6  A    between atoms: N_19  and  C_20 
ROOT
ATOM      1  N   UNL d   1      28.214 -14.827   3.320  0.00  0.00    -0.249 N 
ATOM      2  C   UNL d   1      27.880 -14.400   2.040  0.00  0.00     0.334 C 
ATOM      3  O   UNL d   1      27.741 -13.206   1.772  0.00  0.00    -0.246 OA
ATOM      4  N   UNL d   1      27.716 -15.402   1.099  0.00  0.00    -0.340 N 
ATOM      5  H   UNL d   1      28.340 -15.794   3.600  0.00  0.00     0.192 HD
ATOM      6  H   UNL d   1      27.849 -16.364   1.373  0.00  0.00     0.164 HD
ENDROOT
BRANCH   4   7
ATOM      7  C   UNL d   1      27.361 -15.089  -0.307  0.00  0.00     0.143 C 
BRANCH   7   8
ATOM      8  C   UNL d   1      27.030 -16.317  -1.192  0.00  0.00     0.136 C 
BRANCH   8   9
ATOM      9  N   UNL d   1      25.736 -16.961  -1.034  0.00  0.00    -0.408 N 
ATOM     10  C   UNL d   1      25.591 -18.248  -0.360  0.00  0.00     0.136 C 
ATOM     11  C   UNL d   1      24.363 -18.205   0.605  0.00  0.00     0.142 C 
ATOM     12  N   UNL d   1      23.162 -17.798  -0.139  0.00  0.00    -0.378 N 
ATOM     13  C   UNL d   1      23.303 -16.552  -0.911  0.00  0.00     0.142 C 
ATOM     14  C   UNL d   1      24.562 -16.606  -1.829  0.00  0.00     0.136 C 
BRANCH  12  15
ATOM     15  C   UNL d   1      22.000 -18.538  -0.127  0.00  0.00     0.030 A 
ATOM     16  C   UNL d   1      21.368 -18.919  -1.318  0.00  0.00     0.029 A 
ATOM     17  C   UNL d   1      20.200 -19.694  -1.317  0.00  0.00     0.003 A 
ATOM     18  C   UNL d   1      19.615 -20.078  -0.114  0.00  0.00     0.007 A 
ATOM     19  C   UNL d   1      20.202 -19.701   1.095  0.00  0.00    -0.060 A 
ATOM     20  C   UNL d   1      19.552 -20.076   2.395  0.00  0.00     0.048 C 
ATOM     21  C   UNL d   1      21.398 -18.950   1.074  0.00  0.00     0.036 A 
ENDBRANCH  12  15
ENDBRANCH   8   9
ENDBRANCH   7   8
ENDBRANCH   4   7
BRANCH   1  22
ATOM     22  N   UNL d   1      28.396 -13.840   4.351  0.00  0.00    -0.262 N 
ATOM     23  C   UNL d   1      28.457 -14.199   5.698  0.00  0.00     0.270 C 
ATOM     24  O   UNL d   1      28.359 -15.376   6.059  0.00  0.00    -0.266 OA
ATOM     25  H   UNL d   1      28.469 -12.887   4.006  0.00  0.00     0.190 HD
BRANCH  23  26
ATOM     26  C   UNL d   1      28.647 -13.105   6.737  0.00  0.00     0.034 A 
ATOM     27  C   UNL d   1      28.680 -11.753   6.335  0.00  0.00     0.017 A 
ATOM     28  C   UNL d   1      28.866 -10.716   7.267  0.00  0.00     0.002 A 
ATOM     29  C   UNL d   1      29.015 -11.010   8.620  0.00  0.00     0.007 A 
ATOM     30  C   UNL d   1      28.976 -12.340   9.048  0.00  0.00    -0.061 A 
ATOM     31  C   UNL d   1      29.114 -12.679  10.505  0.00  0.00     0.048 C 
ATOM     32  C   UNL d   1      28.795 -13.375   8.106  0.00  0.00     0.024 A 
ENDBRANCH  23  26
ENDBRANCH   1  22
TORSDOF 6
ENDMDL
MODEL 2
REMARK VINA RESULT:    -8.832      5.726     10.172
REMARK INTER + INTRA:         -12.398
REMARK INTER:                 -10.622
REMARK INTRA:                  -1.776
REMARK CONF_INDEPENDENT:        1.790
REMARK UNBOUND:                -1.776
REMARK  6 active torsions:
REMARK  status: ('A' for Active; 'I' for Inactive)
REMARK    1  A    between atoms: C_6  and  C_7 
REMARK       I    between atoms: C_7  and  N_9 
REMARK    2  A    between atoms: N_9  and  N_10 
REMARK       I    between atoms: N_10  and  C_11 
REMARK       I    between atoms: C_11  and  N_13 
REMARK    3  A    between atoms: N_13  and  C_14 
REMARK    4  A    between atoms: C_14  and  C_15 
REMARK    5  A    between atoms: C_15  and  N_16 
REMARK    6  A    between atoms: N_19  and  C_20 
ROOT
ATOM      1  N   UNL d   1      23.537 -17.867  -0.731  0.00  0.00    -0.249 N 
ATOM      2  C   UNL d   1      24.836 -17.864  -0.236  0.00  0.00     0.334 C 
ATOM      3  O   UNL d   1      25.153 -18.530   0.751  0.00  0.00    -0.246 OA
ATOM      4  N   UNL d   1      25.737 -17.069  -0.922  0.00  0.00    -0.340 N 
ATOM      5  H   UNL d   1      23.217 -17.340  -1.538  0.00  0.00     0.192 HD
ATOM      6  H   UNL d   1      25.423 -16.549  -1.729  0.00  0.00     0.164 HD
ENDROOT
BRANCH   4   7
ATOM      7  C   UNL d   1      27.157 -16.973  -0.504  0.00  0.00     0.143 C 
BRANCH   7   8
ATOM      8  C   UNL d   1      28.109 -16.335  -1.545  0.00  0.00     0.136 C 
BRANCH   8   9
ATOM      9  N   UNL d   1      27.685 -15.122  -2.227  0.00  0.00    -0.408 N 
ATOM     10  C   UNL d   1      27.218 -15.136  -3.611  0.00  0.00     0.136 C 
ATOM     11  C   UNL d   1      25.942 -14.247  -3.749  0.00  0.00     0.142 C 
ATOM     12  N   UNL d   1      26.221 -12.896  -3.241  0.00  0.00    -0.378 N 
ATOM     13  C   UNL d   1      26.785 -12.848  -1.882  0.00  0.00     0.142 C 
ATOM     14  C   UNL d   1      28.029 -13.780  -1.762  0.00  0.00     0.136 C 
BRANCH  12  15
ATOM     15  C   UNL d   1      25.988 -11.764  -3.991  0.00  0.00     0.030 A 
ATOM     16  C   UNL d   1      25.871 -11.827  -5.386  0.00  0.00     0.029 A 
ATOM     17  C   UNL d   1      25.608 -10.686  -6.156  0.00  0.00     0.003 A 
ATOM     18  C   UNL d   1      25.491  -9.441  -5.545  0.00  0.00     0.007 A 
ATOM     19  C   UNL d   1      25.622  -9.332  -4.160  0.00  0.00    -0.060 A 
ATOM     20  C   UNL d   1      25.540  -7.986  -3.500  0.00  0.00     0.048 C 
ATOM     21  C   UNL d   1      25.852 -10.498  -3.397  0.00  0.00     0.036 A 
ENDBRANCH  12  15
ENDBRANCH   8   9
ENDBRANCH   7   8
ENDBRANCH   4   7
BRANCH   1  22
ATOM     22  N   UNL d   1      22.546 -18.670  -0.065  0.00  0.00    -0.262 N 
ATOM     23  C   UNL d   1      21.194 -18.578  -0.398  0.00  0.00     0.270 C 
ATOM     24  O   UNL d   1      20.794 -17.807  -1.276  0.00  0.00    -0.266 OA
ATOM     25  H   UNL d   1      22.922 -19.286   0.650  0.00  0.00     0.190 HD
BRANCH  23  26
ATOM     26  C   UNL d   1      20.198 -19.452   0.349  0.00  0.00     0.034 A 
ATOM     27  C   UNL d   1      19.106 -20.019  -0.342  0.00  0.00     0.017 A 
ATOM     28  C   UNL d   1      18.158 -20.822   0.318  0.00  0.00     0.002 A 
ATOM     29  C   UNL d   1      18.287 -21.079   1.680  0.00  0.00     0.007 A 
ATOM     30  C   UNL d   1      19.365 -20.539   2.388  0.00  0.00    -0.061 A 
ATOM     31  C   UNL d   1      19.535 -20.820   3.853  0.00  0.00     0.048 C 
ATOM     32  C   UNL d   1      20.308 -19.730   1.719  0.00  0.00     0.024 A 
ENDBRANCH  23  26
ENDBRANCH   1  22
TORSDOF 6
ENDMDL
MODEL 3
REMARK VINA RESULT:    -8.787      6.379     10.914
REMARK INTER + INTRA:         -11.616
REMARK INTER:                 -10.577
REMARK INTRA:                  -1.039
REMARK CONF_INDEPENDENT:        1.790
REMARK UNBOUND:                -1.039
REMARK  6 active torsions:
REMARK  status: ('A' for Active; 'I' for Inactive)
REMARK    1  A    between atoms: C_6  and  C_7 
REMARK       I    between atoms: C_7  and  N_9 
REMARK    2  A    between atoms: N_9  and  N_10 
REMARK       I    between atoms: N_10  and  C_11 
REMARK       I    between atoms: C_11  and  N_13 
REMARK    3  A    between atoms: N_13  and  C_14 
REMARK    4  A    between atoms: C_14  and  C_15 
REMARK    5  A    between atoms: C_15  and  N_16 
REMARK    6  A    between atoms: N_19  and  C_20 
ROOT
ATOM      1  N   UNL d   1      23.428 -18.486  -1.472  0.00  0.00    -0.249 N 
ATOM      2  C   UNL d   1      23.771 -17.191  -1.101  0.00  0.00     0.334 C 
ATOM      3  O   UNL d   1      23.252 -16.638  -0.130  0.00  0.00    -0.246 OA
ATOM      4  N   UNL d   1      24.727 -16.575  -1.890  0.00  0.00    -0.340 N 
ATOM      5  H   UNL d   1      23.821 -18.993  -2.260  0.00  0.00     0.192 HD
ATOM      6  H   UNL d   1      25.125 -17.079  -2.669  0.00  0.00     0.164 HD
ENDROOT
BRANCH   4   7
ATOM      7  C   UNL d   1      25.189 -15.194  -1.606  0.00  0.00     0.143 C 
BRANCH   7   8
ATOM      8  C   UNL d   1      25.686 -14.399  -2.839  0.00  0.00     0.136 C 
BRANCH   8   9
ATOM      9  N   UNL d   1      26.776 -14.949  -3.629  0.00  0.00    -0.408 N 
ATOM     10  C   UNL d   1      26.610 -15.299  -5.038  0.00  0.00     0.136 C 
ATOM     11  C   UNL d   1      27.841 -14.797  -5.857  0.00  0.00     0.142 C 
ATOM     12  N   UNL d   1      29.079 -15.327  -5.266  0.00  0.00    -0.378 N 
ATOM     13  C   UNL d   1      29.235 -15.077  -3.824  0.00  0.00     0.142 C 
ATOM     14  C   UNL d   1      27.972 -15.545  -3.038  0.00  0.00     0.136 C 
BRANCH  12  15
ATOM     15  C   UNL d   1      30.012 -16.020  -6.006  0.00  0.00     0.030 A 
ATOM     16  C   UNL d   1      30.095 -17.418  -5.946  0.00  0.00     0.029 A 
ATOM     17  C   UNL d   1      31.022 -18.134  -6.714  0.00  0.00     0.003 A 
ATOM     18  C   UNL d   1      31.917 -17.460  -7.540  0.00  0.00     0.007 A 
ATOM     19  C   UNL d   1      31.881 -16.067  -7.613  0.00  0.00    -0.060 A 
ATOM     20  C   UNL d   1      32.872 -15.332  -8.468  0.00  0.00     0.048 C 
ATOM     21  C   UNL d   1      30.917 -15.364  -6.858  0.00  0.00     0.036 A 
ENDBRANCH  12  15
ENDBRANCH   8   9
ENDBRANCH   7   8
ENDBRANCH   4   7
BRANCH   1  22
ATOM     22  N   UNL d   1      22.438 -19.187  -0.698  0.00  0.00    -0.262 N 
ATOM     23  C   UNL d   1      21.116 -18.746  -0.641  0.00  0.00     0.270 C 
ATOM     24  O   UNL d   1      20.741 -17.740  -1.252  0.00  0.00    -0.266 OA
ATOM     25  H   UNL d   1      22.793 -20.005  -0.212  0.00  0.00     0.190 HD
BRANCH  23  26
ATOM     26  C   UNL d   1      20.120 -19.530   0.200  0.00  0.00     0.034 A 
ATOM     27  C   UNL d   1      18.985 -20.105  -0.410  0.00  0.00     0.017 A 
ATOM     28  C   UNL d   1      18.037 -20.826   0.338  0.00  0.00     0.002 A 
ATOM     29  C   UNL d   1      18.210 -20.994   1.710  0.00  0.00     0.007 A 
ATOM     30  C   UNL d   1      19.331 -20.445   2.338  0.00  0.00    -0.061 A 
ATOM     31  C   UNL d   1      19.548 -20.630   3.813  0.00  0.00     0.048 C 
ATOM     32  C   UNL d   1      20.274 -19.717   1.581  0.00  0.00     0.024 A 
ENDBRANCH  23  26
ENDBRANCH   1  22
TORSDOF 6
ENDMDL
MODEL 4
REMARK VINA RESULT:    -8.778      6.439      8.977
REMARK INTER + INTRA:         -12.108
REMARK INTER:                 -10.567
REMARK INTRA:                  -1.540
REMARK CONF_INDEPENDENT:        1.790
REMARK UNBOUND:                -1.540
REMARK  6 active torsions:
REMARK  status: ('A' for Active; 'I' for Inactive)
REMARK    1  A    between atoms: C_6  and  C_7 
REMARK       I    between atoms: C_7  and  N_9 
REMARK    2  A    between atoms: N_9  and  N_10 
REMARK       I    between atoms: N_10  and  C_11 
REMARK       I    between atoms: C_11  and  N_13 
REMARK    3  A    between atoms: N_13  and  C_14 
REMARK    4  A    between atoms: C_14  and  C_15 
REMARK    5  A    between atoms: C_15  and  N_16 
REMARK    6  A    between atoms: N_19  and  C_20 
ROOT
ATOM      1  N   UNL d   1      25.948 -12.125  -3.372  0.00  0.00    -0.249 N 
ATOM      2  C   UNL d   1      25.440 -13.415  -3.476  0.00  0.00     0.334 C 
ATOM      3  O   UNL d   1      24.647 -13.727  -4.365  0.00  0.00    -0.246 OA
ATOM      4  N   UNL d   1      25.883 -14.312  -2.519  0.00  0.00    -0.340 N 
ATOM      5  H   UNL d   1      26.602 -11.809  -2.662  0.00  0.00     0.192 HD
ATOM      6  H   UNL d   1      26.539 -14.003  -1.818  0.00  0.00     0.164 HD
ENDROOT
BRANCH   4   7
ATOM      7  C   UNL d   1      25.423 -15.722  -2.513  0.00  0.00     0.143 C 
BRANCH   7   8
ATOM      8  C   UNL d   1      25.414 -16.407  -1.123  0.00  0.00     0.136 C 
BRANCH   8   9
ATOM      9  N   UNL d   1      24.235 -17.157  -0.724  0.00  0.00    -0.408 N 
ATOM     10  C   UNL d   1      23.025 -16.497  -0.240  0.00  0.00     0.136 C 
ATOM     11  C   UNL d   1      21.766 -17.151  -0.895  0.00  0.00     0.142 C 
ATOM     12  N   UNL d   1      21.777 -18.601  -0.650  0.00  0.00    -0.378 N 
ATOM     13  C   UNL d   1      23.021 -19.286  -1.037  0.00  0.00     0.142 C 
ATOM     14  C   UNL d   1      24.263 -18.584  -0.407  0.00  0.00     0.136 C 
BRANCH  12  15
ATOM     15  C   UNL d   1      20.708 -19.261  -0.085  0.00  0.00     0.030 A 
ATOM     16  C   UNL d   1      19.622 -19.686  -0.863  0.00  0.00     0.029 A 
ATOM     17  C   UNL d   1      18.543 -20.382  -0.303  0.00  0.00     0.003 A 
ATOM     18  C   UNL d   1      18.508 -20.638   1.064  0.00  0.00     0.007 A 
ATOM     19  C   UNL d   1      19.560 -20.214   1.877  0.00  0.00    -0.060 A 
ATOM     20  C   UNL d   1      19.509 -20.450   3.359  0.00  0.00     0.048 C 
ATOM     21  C   UNL d   1      20.656 -19.545   1.290  0.00  0.00     0.036 A 
ENDBRANCH  12  15
ENDBRANCH   8   9
ENDBRANCH   7   8
ENDBRANCH   4   7
BRANCH   1  22
ATOM     22  N   UNL d   1      25.529 -11.138  -4.331  0.00  0.00    -0.262 N 
ATOM     23  C   UNL d   1      25.617  -9.773  -4.054  0.00  0.00     0.270 C 
ATOM     24  O   UNL d   1      26.058  -9.358  -2.978  0.00  0.00    -0.266 OA
ATOM     25  H   UNL d   1      25.171 -11.527  -5.198  0.00  0.00     0.190 HD
BRANCH  23  26
ATOM     26  C   UNL d   1      25.151  -8.783  -5.109  0.00  0.00     0.034 A 
ATOM     27  C   UNL d   1      24.017  -7.979  -4.866  0.00  0.00     0.017 A 
ATOM     28  C   UNL d   1      23.550  -7.061  -5.824  0.00  0.00     0.002 A 
ATOM     29  C   UNL d   1      24.213  -6.923  -7.041  0.00  0.00     0.007 A 
ATOM     30  C   UNL d   1      25.346  -7.698  -7.304  0.00  0.00    -0.061 A 
ATOM     31  C   UNL d   1      26.088  -7.551  -8.602  0.00  0.00     0.048 C 
ATOM     32  C   UNL d   1      25.804  -8.621  -6.340  0.00  0.00     0.024 A 
ENDBRANCH  23  26
ENDBRANCH   1  22
TORSDOF 6
ENDMDL
MODEL 5
REMARK VINA RESULT:    -8.740      2.407     10.280
REMARK INTER + INTRA:         -12.209
REMARK INTER:                 -10.530
REMARK INTRA:                  -1.679
REMARK CONF_INDEPENDENT:        1.790
REMARK UNBOUND:                -1.679
REMARK  6 active torsions:
REMARK  status: ('A' for Active; 'I' for Inactive)
REMARK    1  A    between atoms: C_6  and  C_7 
REMARK       I    between atoms: C_7  and  N_9 
REMARK    2  A    between atoms: N_9  and  N_10 
REMARK       I    between atoms: N_10  and  C_11 
REMARK       I    between atoms: C_11  and  N_13 
REMARK    3  A    between atoms: N_13  and  C_14 
REMARK    4  A    between atoms: C_14  and  C_15 
REMARK    5  A    between atoms: C_15  and  N_16 
REMARK    6  A    between atoms: N_19  and  C_20 
ROOT
ATOM      1  N   UNL d   1      23.299 -17.865  -1.032  0.00  0.00    -0.249 N 
ATOM      2  C   UNL d   1      24.633 -17.856  -0.640  0.00  0.00     0.334 C 
ATOM      3  O   UNL d   1      25.035 -18.543   0.300  0.00  0.00    -0.246 OA
ATOM      4  N   UNL d   1      25.467 -17.029  -1.372  0.00  0.00    -0.340 N 
ATOM      5  H   UNL d   1      22.910 -17.322  -1.797  0.00  0.00     0.192 HD
ATOM      6  H   UNL d   1      25.085 -16.494  -2.138  0.00  0.00     0.164 HD
ENDROOT
BRANCH   4   7
ATOM      7  C   UNL d   1      26.914 -16.923  -1.064  0.00  0.00     0.143 C 
BRANCH   7   8
ATOM      8  C   UNL d   1      27.468 -15.479  -0.987  0.00  0.00     0.136 C 
BRANCH   8   9
ATOM      9  N   UNL d   1      27.580 -14.844   0.316  0.00  0.00    -0.408 N 
ATOM     10  C   UNL d   1      28.636 -15.200   1.262  0.00  0.00     0.136 C 
ATOM     11  C   UNL d   1      29.238 -13.905   1.894  0.00  0.00     0.142 C 
ATOM     12  N   UNL d   1      28.164 -13.100   2.495  0.00  0.00    -0.378 N 
ATOM     13  C   UNL d   1      27.035 -12.805   1.598  0.00  0.00     0.142 C 
ATOM     14  C   UNL d   1      26.485 -14.109   0.946  0.00  0.00     0.136 C 
BRANCH  12  15
ATOM     15  C   UNL d   1      28.207 -12.673   3.804  0.00  0.00     0.030 A 
ATOM     16  C   UNL d   1      27.963 -11.334   4.140  0.00  0.00     0.029 A 
ATOM     17  C   UNL d   1      27.978 -10.894   5.470  0.00  0.00     0.003 A 
ATOM     18  C   UNL d   1      28.274 -11.784   6.498  0.00  0.00     0.007 A 
ATOM     19  C   UNL d   1      28.543 -13.121   6.204  0.00  0.00    -0.060 A 
ATOM     20  C   UNL d   1      28.905 -14.076   7.305  0.00  0.00     0.048 C 
ATOM     21  C   UNL d   1      28.489 -13.554   4.861  0.00  0.00     0.036 A 
ENDBRANCH  12  15
ENDBRANCH   8   9
ENDBRANCH   7   8
ENDBRANCH   4   7
BRANCH   1  22
ATOM     22  N   UNL d   1      22.374 -18.700  -0.313  0.00  0.00    -0.262 N 
ATOM     23  C   UNL d   1      20.995 -18.575  -0.490  0.00  0.00     0.270 C 
ATOM     24  O   UNL d   1      20.515 -17.747  -1.270  0.00  0.00    -0.266 OA
ATOM     25  H   UNL d   1      22.815 -19.362   0.317  0.00  0.00     0.190 HD
BRANCH  23  26
ATOM     26  C   UNL d   1      20.072 -19.485   0.305  0.00  0.00     0.034 A 
ATOM     27  C   UNL d   1      18.988 -20.120  -0.338  0.00  0.00     0.017 A 
ATOM     28  C   UNL d   1      18.107 -20.959   0.368  0.00  0.00     0.002 A 
ATOM     29  C   UNL d   1      18.296 -21.185   1.729  0.00  0.00     0.007 A 
ATOM     30  C   UNL d   1      19.368 -20.578   2.389  0.00  0.00    -0.061 A 
ATOM     31  C   UNL d   1      19.604 -20.824   3.852  0.00  0.00     0.048 C 
ATOM     32  C   UNL d   1      20.244 -19.733   1.674  0.00  0.00     0.024 A 
ENDBRANCH  23  26
ENDBRANCH   1  22
TORSDOF 6
ENDMDL
MODEL 6
REMARK VINA RESULT:    -8.396      5.825     10.632
REMARK INTER + INTRA:         -11.739
REMARK INTER:                 -10.185
REMARK INTRA:                  -1.553
REMARK CONF_INDEPENDENT:        1.790
REMARK UNBOUND:                -1.553
REMARK  6 active torsions:
REMARK  status: ('A' for Active; 'I' for Inactive)
REMARK    1  A    between atoms: C_6  and  C_7 
REMARK       I    between atoms: C_7  and  N_9 
REMARK    2  A    between atoms: N_9  and  N_10 
REMARK       I    between atoms: N_10  and  C_11 
REMARK       I    between atoms: C_11  and  N_13 
REMARK    3  A    between atoms: N_13  and  C_14 
REMARK    4  A    between atoms: C_14  and  C_15 
REMARK    5  A    between atoms: C_15  and  N_16 
REMARK    6  A    between atoms: N_19  and  C_20 
ROOT
ATOM      1  N   UNL d   1      23.805 -18.210  -0.904  0.00  0.00    -0.249 N 
ATOM      2  C   UNL d   1      25.041 -18.010  -0.301  0.00  0.00     0.334 C 
ATOM      3  O   UNL d   1      25.273 -18.403   0.843  0.00  0.00    -0.246 OA
ATOM      4  N   UNL d   1      25.982 -17.346  -1.069  0.00  0.00    -0.340 N 
ATOM      5  H   UNL d   1      23.555 -17.909  -1.841  0.00  0.00     0.192 HD
ATOM      6  H   UNL d   1      25.739 -17.053  -2.003  0.00  0.00     0.164 HD
ENDROOT
BRANCH   4   7
ATOM      7  C   UNL d   1      27.343 -17.067  -0.551  0.00  0.00     0.143 C 
BRANCH   7   8
ATOM      8  C   UNL d   1      28.419 -16.802  -1.633  0.00  0.00     0.136 C 
BRANCH   8   9
ATOM      9  N   UNL d   1      28.175 -15.760  -2.617  0.00  0.00    -0.408 N 
ATOM     10  C   UNL d   1      29.213 -15.312  -3.542  0.00  0.00     0.136 C 
ATOM     11  C   UNL d   1      28.615 -15.163  -4.977  0.00  0.00     0.142 C 
ATOM     12  N   UNL d   1      27.445 -14.273  -4.938  0.00  0.00    -0.378 N 
ATOM     13  C   UNL d   1      26.421 -14.639  -3.946  0.00  0.00     0.142 C 
ATOM     14  C   UNL d   1      27.054 -14.826  -2.534  0.00  0.00     0.136 C 
BRANCH  12  15
ATOM     15  C   UNL d   1      27.329 -13.170  -5.755  0.00  0.00     0.030 A 
ATOM     16  C   UNL d   1      26.377 -12.173  -5.501  0.00  0.00     0.029 A 
ATOM     17  C   UNL d   1      26.268 -11.035  -6.311  0.00  0.00     0.003 A 
ATOM     18  C   UNL d   1      27.093 -10.885  -7.423  0.00  0.00     0.007 A 
ATOM     19  C   UNL d   1      28.040 -11.865  -7.722  0.00  0.00    -0.060 A 
ATOM     20  C   UNL d   1      28.903 -11.729  -8.943  0.00  0.00     0.048 C 
ATOM     21  C   UNL d   1      28.159 -12.988  -6.874  0.00  0.00     0.036 A 
ENDBRANCH  12  15
ENDBRANCH   8   9
ENDBRANCH   7   8
ENDBRANCH   4   7
BRANCH   1  22
ATOM     22  N   UNL d   1      22.777 -18.892  -0.163  0.00  0.00    -0.262 N 
ATOM     23  C   UNL d   1      21.425 -18.652  -0.408  0.00  0.00     0.270 C 
ATOM     24  O   UNL d   1      21.055 -17.847  -1.270  0.00  0.00    -0.266 OA
ATOM     25  H   UNL d   1      23.129 -19.540   0.536  0.00  0.00     0.190 HD
BRANCH  23  26
ATOM     26  C   UNL d   1      20.389 -19.402   0.415  0.00  0.00     0.034 A 
ATOM     27  C   UNL d   1      20.464 -19.383   1.824  0.00  0.00     0.017 A 
ATOM     28  C   UNL d   1      19.531 -20.075   2.617  0.00  0.00     0.002 A 
ATOM     29  C   UNL d   1      18.500 -20.794   2.017  0.00  0.00     0.007 A 
ATOM     30  C   UNL d   1      18.396 -20.822   0.624  0.00  0.00    -0.061 A 
ATOM     31  C   UNL d   1      17.280 -21.574  -0.045  0.00  0.00     0.048 C 
ATOM     32  C   UNL d   1      19.339 -20.129  -0.165  0.00  0.00     0.024 A 
ENDBRANCH  23  26
ENDBRANCH   1  22
TORSDOF 6
ENDMDL
MODEL 7
REMARK VINA RESULT:    -8.143      6.356     10.413
REMARK INTER + INTRA:         -11.836
REMARK INTER:                  -9.932
REMARK INTRA:                  -1.903
REMARK CONF_INDEPENDENT:        1.790
REMARK UNBOUND:                -1.903
REMARK  6 active torsions:
REMARK  status: ('A' for Active; 'I' for Inactive)
REMARK    1  A    between atoms: C_6  and  C_7 
REMARK       I    between atoms: C_7  and  N_9 
REMARK    2  A    between atoms: N_9  and  N_10 
REMARK       I    between atoms: N_10  and  C_11 
REMARK       I    between atoms: C_11  and  N_13 
REMARK    3  A    between atoms: N_13  and  C_14 
REMARK    4  A    between atoms: C_14  and  C_15 
REMARK    5  A    between atoms: C_15  and  N_16 
REMARK    6  A    between atoms: N_19  and  C_20 
ROOT
ATOM      1  N   UNL d   1      29.434 -14.708  -6.538  0.00  0.00    -0.249 N 
ATOM      2  C   UNL d   1      28.192 -14.224  -6.143  0.00  0.00     0.334 C 
ATOM      3  O   UNL d   1      27.285 -14.980  -5.792  0.00  0.00    -0.246 OA
ATOM      4  N   UNL d   1      28.049 -12.848  -6.174  0.00  0.00    -0.340 N 
ATOM      5  H   UNL d   1      30.217 -14.136  -6.837  0.00  0.00     0.192 HD
ATOM      6  H   UNL d   1      28.828 -12.276  -6.463  0.00  0.00     0.164 HD
ENDROOT
BRANCH   4   7
ATOM      7  C   UNL d   1      26.777 -12.195  -5.777  0.00  0.00     0.143 C 
BRANCH   7   8
ATOM      8  C   UNL d   1      26.594 -11.978  -4.254  0.00  0.00     0.136 C 
BRANCH   8   9
ATOM      9  N   UNL d   1      26.177 -13.104  -3.435  0.00  0.00    -0.408 N 
ATOM     10  C   UNL d   1      25.111 -14.012  -3.854  0.00  0.00     0.136 C 
ATOM     11  C   UNL d   1      25.535 -15.490  -3.578  0.00  0.00     0.142 C 
ATOM     12  N   UNL d   1      25.910 -15.643  -2.164  0.00  0.00    -0.378 N 
ATOM     13  C   UNL d   1      26.912 -14.679  -1.680  0.00  0.00     0.142 C 
ATOM     14  C   UNL d   1      26.485 -13.217  -2.011  0.00  0.00     0.136 C 
BRANCH  12  15
ATOM     15  C   UNL d   1      25.349 -16.604  -1.352  0.00  0.00     0.030 A 
ATOM     16  C   UNL d   1      26.098 -17.239  -0.353  0.00  0.00     0.029 A 
ATOM     17  C   UNL d   1      25.531 -18.199   0.495  0.00  0.00     0.003 A 
ATOM     18  C   UNL d   1      24.199 -18.574   0.338  0.00  0.00     0.007 A 
ATOM     19  C   UNL d   1      23.424 -17.980  -0.659  0.00  0.00    -0.060 A 
ATOM     20  C   UNL d   1      22.000 -18.411  -0.862  0.00  0.00     0.048 C 
ATOM     21  C   UNL d   1      24.004 -16.989  -1.482  0.00  0.00     0.036 A 
ENDBRANCH  12  15
ENDBRANCH   8   9
ENDBRANCH   7   8
ENDBRANCH   4   7
BRANCH   1  22
ATOM     22  N   UNL d   1      29.653 -16.130  -6.534  0.00  0.00    -0.262 N 
ATOM     23  C   UNL d   1      30.793 -16.690  -7.113  0.00  0.00     0.270 C 
ATOM     24  O   UNL d   1      31.657 -15.991  -7.650  0.00  0.00    -0.266 OA
ATOM     25  H   UNL d   1      28.915 -16.663  -6.085  0.00  0.00     0.190 HD
BRANCH  23  26
ATOM     26  C   UNL d   1      30.961 -18.202  -7.079  0.00  0.00     0.034 A 
ATOM     27  C   UNL d   1      31.303 -18.896  -8.259  0.00  0.00     0.017 A 
ATOM     28  C   UNL d   1      31.455 -20.295  -8.268  0.00  0.00     0.002 A 
ATOM     29  C   UNL d   1      31.275 -21.025  -7.096  0.00  0.00     0.007 A 
ATOM     30  C   UNL d   1      30.946 -20.362  -5.911  0.00  0.00    -0.061 A 
ATOM     31  C   UNL d   1      30.767 -21.127  -4.631  0.00  0.00     0.048 C 
ATOM     32  C   UNL d   1      30.790 -18.959  -5.911  0.00  0.00     0.024 A 
ENDBRANCH  23  26
ENDBRANCH   1  22
TORSDOF 6
ENDMDL
MODEL 8
REMARK VINA RESULT:    -8.011      6.415     10.743
REMARK INTER + INTRA:         -11.730
REMARK INTER:                  -9.800
REMARK INTRA:                  -1.930
REMARK CONF_INDEPENDENT:        1.790
REMARK UNBOUND:                -1.930
REMARK  6 active torsions:
REMARK  status: ('A' for Active; 'I' for Inactive)
REMARK    1  A    between atoms: C_6  and  C_7 
REMARK       I    between atoms: C_7  and  N_9 
REMARK    2  A    between atoms: N_9  and  N_10 
REMARK       I    between atoms: N_10  and  C_11 
REMARK       I    between atoms: C_11  and  N_13 
REMARK    3  A    between atoms: N_13  and  C_14 
REMARK    4  A    between atoms: C_14  and  C_15 
REMARK    5  A    between atoms: C_15  and  N_16 
REMARK    6  A    between atoms: N_19  and  C_20 
ROOT
ATOM      1  N   UNL d   1      29.550 -14.609  -6.380  0.00  0.00    -0.249 N 
ATOM      2  C   UNL d   1      28.271 -14.113  -6.154  0.00  0.00     0.334 C 
ATOM      3  O   UNL d   1      27.293 -14.858  -6.076  0.00  0.00    -0.246 OA
ATOM      4  N   UNL d   1      28.175 -12.738  -6.024  0.00  0.00    -0.340 N 
ATOM      5  H   UNL d   1      30.391 -14.045  -6.454  0.00  0.00     0.192 HD
ATOM      6  H   UNL d   1      29.011 -12.176  -6.090  0.00  0.00     0.164 HD
ENDROOT
BRANCH   4   7
ATOM      7  C   UNL d   1      26.872 -12.075  -5.778  0.00  0.00     0.143 C 
BRANCH   7   8
ATOM      8  C   UNL d   1      26.518 -11.848  -4.288  0.00  0.00     0.136 C 
BRANCH   8   9
ATOM      9  N   UNL d   1      26.127 -12.994  -3.482  0.00  0.00    -0.408 N 
ATOM     10  C   UNL d   1      25.132 -13.959  -3.942  0.00  0.00     0.136 C 
ATOM     11  C   UNL d   1      25.623 -15.411  -3.641  0.00  0.00     0.142 C 
ATOM     12  N   UNL d   1      25.944 -15.540  -2.212  0.00  0.00    -0.378 N 
ATOM     13  C   UNL d   1      26.871 -14.522  -1.690  0.00  0.00     0.142 C 
ATOM     14  C   UNL d   1      26.379 -13.086  -2.045  0.00  0.00     0.136 C 
BRANCH  12  15
ATOM     15  C   UNL d   1      25.402 -16.529  -1.421  0.00  0.00     0.030 A 
ATOM     16  C   UNL d   1      26.180 -17.213  -0.477  0.00  0.00     0.029 A 
ATOM     17  C   UNL d   1      25.633 -18.202   0.351  0.00  0.00     0.003 A 
ATOM     18  C   UNL d   1      24.292 -18.555   0.228  0.00  0.00     0.007 A 
ATOM     19  C   UNL d   1      23.488 -17.912  -0.714  0.00  0.00    -0.060 A 
ATOM     20  C   UNL d   1      22.052 -18.318  -0.881  0.00  0.00     0.048 C 
ATOM     21  C   UNL d   1      24.048 -16.893  -1.516  0.00  0.00     0.036 A 
ENDBRANCH  12  15
ENDBRANCH   8   9
ENDBRANCH   7   8
ENDBRANCH   4   7
BRANCH   1  22
ATOM     22  N   UNL d   1      29.724 -16.029  -6.528  0.00  0.00    -0.262 N 
ATOM     23  C   UNL d   1      30.936 -16.571  -6.957  0.00  0.00     0.270 C 
ATOM     24  O   UNL d   1      31.906 -15.856  -7.226  0.00  0.00    -0.266 OA
ATOM     25  H   UNL d   1      28.898 -16.575  -6.298  0.00  0.00     0.190 HD
BRANCH  23  26
ATOM     26  C   UNL d   1      31.051 -18.081  -7.097  0.00  0.00     0.034 A 
ATOM     27  C   UNL d   1      30.793 -18.911  -5.985  0.00  0.00     0.017 A 
ATOM     28  C   UNL d   1      30.902 -20.310  -6.074  0.00  0.00     0.002 A 
ATOM     29  C   UNL d   1      31.263 -20.909  -7.279  0.00  0.00     0.007 A 
ATOM     30  C   UNL d   1      31.513 -20.112  -8.399  0.00  0.00    -0.061 A 
ATOM     31  C   UNL d   1      31.884 -20.736  -9.714  0.00  0.00     0.048 C 
ATOM     32  C   UNL d   1      31.408 -18.708  -8.300  0.00  0.00     0.024 A 
ENDBRANCH  23  26
ENDBRANCH   1  22
TORSDOF 6
ENDMDL
MODEL 9
REMARK VINA RESULT:    -7.569      6.444      9.861
REMARK INTER + INTRA:         -11.618
REMARK INTER:                  -9.359
REMARK INTRA:                  -2.260
REMARK CONF_INDEPENDENT:        1.790
REMARK UNBOUND:                -2.260
REMARK  6 active torsions:
REMARK  status: ('A' for Active; 'I' for Inactive)
REMARK    1  A    between atoms: C_6  and  C_7 
REMARK       I    between atoms: C_7  and  N_9 
REMARK    2  A    between atoms: N_9  and  N_10 
REMARK       I    between atoms: N_10  and  C_11 
REMARK       I    between atoms: C_11  and  N_13 
REMARK    3  A    between atoms: N_13  and  C_14 
REMARK    4  A    between atoms: C_14  and  C_15 
REMARK    5  A    between atoms: C_15  and  N_16 
REMARK    6  A    between atoms: N_19  and  C_20 
ROOT
ATOM      1  N   UNL d   1      24.762 -13.184  -4.307  0.00  0.00    -0.249 N 
ATOM      2  C   UNL d   1      25.685 -12.148  -4.401  0.00  0.00     0.334 C 
ATOM      3  O   UNL d   1      26.578 -12.001  -3.565  0.00  0.00    -0.246 OA
ATOM      4  N   UNL d   1      25.532 -11.305  -5.488  0.00  0.00    -0.340 N 
ATOM      5  H   UNL d   1      24.006 -13.355  -4.964  0.00  0.00     0.192 HD
ATOM      6  H   UNL d   1      24.787 -11.478  -6.146  0.00  0.00     0.164 HD
ENDROOT
BRANCH   4   7
ATOM      7  C   UNL d   1      26.448 -10.161  -5.712  0.00  0.00     0.143 C 
BRANCH   7   8
ATOM      8  C   UNL d   1      27.835 -10.530  -6.293  0.00  0.00     0.136 C 
BRANCH   8   9
ATOM      9  N   UNL d   1      28.356 -11.867  -6.055  0.00  0.00    -0.408 N 
ATOM     10  C   UNL d   1      29.434 -12.118  -5.101  0.00  0.00     0.136 C 
ATOM     11  C   UNL d   1      29.098 -13.379  -4.243  0.00  0.00     0.142 C 
ATOM     12  N   UNL d   1      28.822 -14.522  -5.126  0.00  0.00    -0.378 N 
ATOM     13  C   UNL d   1      27.809 -14.273  -6.164  0.00  0.00     0.142 C 
ATOM     14  C   UNL d   1      28.146 -12.984  -6.974  0.00  0.00     0.136 C 
BRANCH  12  15
ATOM     15  C   UNL d   1      29.478 -15.727  -4.999  0.00  0.00     0.030 A 
ATOM     16  C   UNL d   1      29.645 -16.336  -3.748  0.00  0.00     0.029 A 
ATOM     17  C   UNL d   1      30.287 -17.573  -3.611  0.00  0.00     0.003 A 
ATOM     18  C   UNL d   1      30.812 -18.217  -4.728  0.00  0.00     0.007 A 
ATOM     19  C   UNL d   1      30.686 -17.634  -5.990  0.00  0.00    -0.060 A 
ATOM     20  C   UNL d   1      31.288 -18.303  -7.191  0.00  0.00     0.048 C 
ATOM     21  C   UNL d   1      30.005 -16.403  -6.113  0.00  0.00     0.036 A 
ENDBRANCH  12  15
ENDBRANCH   8   9
ENDBRANCH   7   8
ENDBRANCH   4   7
BRANCH   1  22
ATOM     22  N   UNL d   1      24.859 -14.097  -3.201  0.00  0.00    -0.262 N 
ATOM     23  C   UNL d   1      25.450 -15.353  -3.346  0.00  0.00     0.270 C 
ATOM     24  O   UNL d   1      25.914 -15.730  -4.427  0.00  0.00    -0.266 OA
ATOM     25  H   UNL d   1      24.462 -13.745  -2.335  0.00  0.00     0.190 HD
BRANCH  23  26
ATOM     26  C   UNL d   1      25.516 -16.273  -2.136  0.00  0.00     0.034 A 
ATOM     27  C   UNL d   1      26.733 -16.432  -1.441  0.00  0.00     0.017 A 
ATOM     28  C   UNL d   1      26.834 -17.284  -0.326  0.00  0.00     0.002 A 
ATOM     29  C   UNL d   1      25.718 -17.987   0.121  0.00  0.00     0.007 A 
ATOM     30  C   UNL d   1      24.497 -17.840  -0.543  0.00  0.00    -0.061 A 
ATOM     31  C   UNL d   1      23.275 -18.573  -0.066  0.00  0.00     0.048 C 
ATOM     32  C   UNL d   1      24.405 -16.988  -1.664  0.00  0.00     0.024 A 
ENDBRANCH  23  26
ENDBRANCH   1  22
TORSDOF 6
ENDMDL
