MODEL 1
REMARK VINA RESULT:    -8.584      0.000      0.000
REMARK INTER + INTRA:         -13.715
REMARK INTER:                 -11.567
REMARK INTRA:                  -2.148
REMARK CONF_INDEPENDENT:        2.983
REMARK UNBOUND:                -2.148
REMARK  10 active torsions:
REMARK  status: ('A' for Active; 'I' for Inactive)
REMARK    1  A    between atoms: C_2  and  C_3 
REMARK    2  A    between atoms: C_3  and  C_4 
REMARK       I    between atoms: C_4  and  N_6 
REMARK    3  A    between atoms: N_6  and  N_7 
REMARK    4  A    between atoms: N_7  and  C_8 
REMARK    5  A    between atoms: C_8  and  N_10 
REMARK       I    between atoms: N_10  and  C_11 
REMARK    6  A    between atoms: C_11  and  C_13 
REMARK    7  A    between atoms: C_16  and  O_17 
REMARK    8  A    between atoms: O_17  and  C_18 
REMARK    9  A    between atoms: C_18  and  C_19 
REMARK   10  A    between atoms: C_19  and  C_20 
ROOT
ATOM      1  C   UNL d   1      26.235 -15.602  -2.512  0.00  0.00     0.033 A 
ATOM      2  C   UNL d   1      24.863 -15.386  -2.567  0.00  0.00     0.020 A 
ATOM      3  C   UNL d   1      24.012 -16.076  -1.672  0.00  0.00     0.039 A 
ATOM      4  C   UNL d   1      24.503 -17.002  -0.719  0.00  0.00     0.086 A 
ATOM      5  C   UNL d   1      25.887 -17.245  -0.706  0.00  0.00     0.045 A 
ATOM      6 BR   UNL d   1      26.879 -18.447   0.406  0.00  0.00    -0.048 Br
ATOM      7  C   UNL d   1      26.720 -16.556  -1.601  0.00  0.00     0.039 A 
ENDROOT
BRANCH   1   8
ATOM      8  C   UNL d   1      27.224 -15.034  -3.474  0.00  0.00     0.257 C 
ATOM      9  N   UNL d   1      26.888 -14.812  -4.826  0.00  0.00    -0.298 N 
ATOM     10  H   UNL d   1      25.938 -15.033  -5.093  0.00  0.00     0.171 HD
ATOM     11  O   UNL d   1      28.311 -14.756  -2.959  0.00  0.00    -0.267 OA
BRANCH   9  12
ATOM     12  C   UNL d   1      27.724 -14.223  -5.807  0.00  0.00     0.193 C 
ATOM     13  S   UNL d   1      27.664 -12.605  -6.290  0.00  0.00    -0.039 SA
BRANCH  12  14
ATOM     14  N   UNL d   1      28.672 -15.079  -6.395  0.00  0.00    -0.273 N 
ATOM     15  H   UNL d   1      28.892 -15.145  -7.388  0.00  0.00     0.189 HD
BRANCH  14  16
ATOM     16  N   UNL d   1      29.449 -15.969  -5.547  0.00  0.00    -0.268 N 
ATOM     17  C   UNL d   1      30.303 -16.916  -6.087  0.00  0.00     0.236 C 
ATOM     18  O   UNL d   1      30.443 -17.037  -7.303  0.00  0.00    -0.272 OA
ATOM     19  H   UNL d   1      29.314 -15.850  -4.542  0.00  0.00     0.190 HD
BRANCH  17  20
ATOM     20  C   UNL d   1      31.052 -17.793  -5.063  0.00  0.00     0.104 C 
BRANCH  20  21
ATOM     21  C   UNL d   1      30.406 -19.182  -4.917  0.00  0.00     0.005 C 
ATOM     22  C   UNL d   1      30.832 -20.170  -5.999  0.00  0.00     0.005 C 
ENDBRANCH  20  21
ENDBRANCH  17  20
ENDBRANCH  14  16
ENDBRANCH  12  14
ENDBRANCH   9  12
ENDBRANCH   1   8
BRANCH   4  23
ATOM     23  O   UNL d   1      23.503 -17.539   0.066  0.00  0.00    -0.349 OA
BRANCH  23  24
ATOM     24  C   UNL d   1      22.860 -18.714  -0.423  0.00  0.00     0.180 C 
BRANCH  24  25
ATOM     25  C   UNL d   1      21.409 -18.487  -0.817  0.00  0.00     0.065 C 
BRANCH  25  26
ATOM     26  C   UNL d   1      20.486 -19.317   0.049  0.00  0.00    -0.056 A 
ATOM     27  C   UNL d   1      19.458 -20.082  -0.518  0.00  0.00     0.007 A 
ATOM     28  C   UNL d   1      18.531 -20.730   0.300  0.00  0.00     0.001 A 
ATOM     29  C   UNL d   1      18.683 -20.708   1.684  0.00  0.00     0.000 A 
ATOM     30  C   UNL d   1      19.749 -20.018   2.256  0.00  0.00     0.001 A 
ATOM     31  C   UNL d   1      20.647 -19.325   1.442  0.00  0.00     0.007 A 
ENDBRANCH  25  26
ENDBRANCH  24  25
ENDBRANCH  23  24
ENDBRANCH   4  23
TORSDOF 10
ENDMDL
MODEL 2
REMARK VINA RESULT:    -8.360      4.228     10.569
REMARK INTER + INTRA:         -13.014
REMARK INTER:                 -11.343
REMARK INTRA:                  -1.671
REMARK CONF_INDEPENDENT:        2.983
REMARK UNBOUND:                -1.671
REMARK  10 active torsions:
REMARK  status: ('A' for Active; 'I' for Inactive)
REMARK    1  A    between atoms: C_2  and  C_3 
REMARK    2  A    between atoms: C_3  and  C_4 
REMARK       I    between atoms: C_4  and  N_6 
REMARK    3  A    between atoms: N_6  and  N_7 
REMARK    4  A    between atoms: N_7  and  C_8 
REMARK    5  A    between atoms: C_8  and  N_10 
REMARK       I    between atoms: N_10  and  C_11 
REMARK    6  A    between atoms: C_11  and  C_13 
REMARK    7  A    between atoms: C_16  and  O_17 
REMARK    8  A    between atoms: O_17  and  C_18 
REMARK    9  A    between atoms: C_18  and  C_19 
REMARK   10  A    between atoms: C_19  and  C_20 
ROOT
ATOM      1  C   UNL d   1      25.540 -15.261  -3.150  0.00  0.00     0.033 A 
ATOM      2  C   UNL d   1      24.775 -14.102  -3.208  0.00  0.00     0.020 A 
ATOM      3  C   UNL d   1      25.123 -13.082  -4.123  0.00  0.00     0.039 A 
ATOM      4  C   UNL d   1      26.241 -13.185  -4.986  0.00  0.00     0.086 A 
ATOM      5  C   UNL d   1      27.032 -14.342  -4.885  0.00  0.00     0.045 A 
ATOM      6 BR   UNL d   1      28.620 -14.793  -5.855  0.00  0.00    -0.048 Br
ATOM      7  C   UNL d   1      26.678 -15.347  -3.971  0.00  0.00     0.039 A 
ENDROOT
BRANCH   1   8
ATOM      8  C   UNL d   1      25.355 -16.354  -2.151  0.00  0.00     0.257 C 
ATOM      9  N   UNL d   1      24.076 -16.685  -1.656  0.00  0.00    -0.298 N 
ATOM     10  H   UNL d   1      23.299 -16.162  -2.037  0.00  0.00     0.171 HD
ATOM     11  O   UNL d   1      26.402 -16.935  -1.853  0.00  0.00    -0.267 OA
BRANCH   9  12
ATOM     12  C   UNL d   1      23.777 -17.740  -0.758  0.00  0.00     0.193 C 
ATOM     13  S   UNL d   1      24.715 -18.175   0.578  0.00  0.00    -0.039 SA
BRANCH  12  14
ATOM     14  N   UNL d   1      22.593 -18.451  -1.025  0.00  0.00    -0.273 N 
ATOM     15  H   UNL d   1      22.172 -18.601  -1.940  0.00  0.00     0.189 HD
BRANCH  14  16
ATOM     16  N   UNL d   1      21.868 -19.064   0.077  0.00  0.00    -0.268 N 
ATOM     17  C   UNL d   1      20.680 -19.745  -0.131  0.00  0.00     0.236 C 
ATOM     18  O   UNL d   1      20.196 -19.864  -1.256  0.00  0.00    -0.272 OA
ATOM     19  H   UNL d   1      22.289 -18.950   1.001  0.00  0.00     0.190 HD
BRANCH  17  20
ATOM     20  C   UNL d   1      20.022 -20.332   1.135  0.00  0.00     0.104 C 
BRANCH  20  21
ATOM     21  C   UNL d   1      18.488 -20.226   1.084  0.00  0.00     0.005 C 
ATOM     22  C   UNL d   1      17.786 -21.575   0.970  0.00  0.00     0.005 C 
ENDBRANCH  20  21
ENDBRANCH  17  20
ENDBRANCH  14  16
ENDBRANCH  12  14
ENDBRANCH   9  12
ENDBRANCH   1   8
BRANCH   4  23
ATOM     23  O   UNL d   1      26.380 -12.088  -5.812  0.00  0.00    -0.349 OA
BRANCH  23  24
ATOM     24  C   UNL d   1      27.257 -11.055  -5.369  0.00  0.00     0.180 C 
BRANCH  24  25
ATOM     25  C   UNL d   1      27.557 -10.019  -6.441  0.00  0.00     0.065 C 
BRANCH  25  26
ATOM     26  C   UNL d   1      27.655 -10.674  -7.802  0.00  0.00    -0.056 A 
ATOM     27  C   UNL d   1      26.951 -10.163  -8.900  0.00  0.00     0.007 A 
ATOM     28  C   UNL d   1      26.941 -10.855 -10.113  0.00  0.00     0.001 A 
ATOM     29  C   UNL d   1      27.715 -12.003 -10.270  0.00  0.00     0.000 A 
ATOM     30  C   UNL d   1      28.484 -12.474  -9.208  0.00  0.00     0.001 A 
ATOM     31  C   UNL d   1      28.454 -11.813  -7.979  0.00  0.00     0.007 A 
ENDBRANCH  25  26
ENDBRANCH  24  25
ENDBRANCH  23  24
ENDBRANCH   4  23
TORSDOF 10
ENDMDL
MODEL 3
REMARK VINA RESULT:    -8.358      4.785      6.499
REMARK INTER + INTRA:         -13.084
REMARK INTER:                 -11.341
REMARK INTRA:                  -1.743
REMARK CONF_INDEPENDENT:        2.983
REMARK UNBOUND:                -1.743
REMARK  10 active torsions:
REMARK  status: ('A' for Active; 'I' for Inactive)
REMARK    1  A    between atoms: C_2  and  C_3 
REMARK    2  A    between atoms: C_3  and  C_4 
REMARK       I    between atoms: C_4  and  N_6 
REMARK    3  A    between atoms: N_6  and  N_7 
REMARK    4  A    between atoms: N_7  and  C_8 
REMARK    5  A    between atoms: C_8  and  N_10 
REMARK       I    between atoms: N_10  and  C_11 
REMARK    6  A    between atoms: C_11  and  C_13 
REMARK    7  A    between atoms: C_16  and  O_17 
REMARK    8  A    between atoms: O_17  and  C_18 
REMARK    9  A    between atoms: C_18  and  C_19 
REMARK   10  A    between atoms: C_19  and  C_20 
ROOT
ATOM      1  C   UNL d   1      27.789 -15.835  -0.721  0.00  0.00     0.033 A 
ATOM      2  C   UNL d   1      27.099 -16.825  -0.032  0.00  0.00     0.020 A 
ATOM      3  C   UNL d   1      25.768 -17.133  -0.398  0.00  0.00     0.039 A 
ATOM      4  C   UNL d   1      25.092 -16.456  -1.442  0.00  0.00     0.086 A 
ATOM      5  C   UNL d   1      25.785 -15.425  -2.100  0.00  0.00     0.045 A 
ATOM      6 BR   UNL d   1      25.175 -14.287  -3.514  0.00  0.00    -0.048 Br
ATOM      7  C   UNL d   1      27.105 -15.128  -1.725  0.00  0.00     0.039 A 
ENDROOT
BRANCH   1   8
ATOM      8  C   UNL d   1      29.145 -15.332  -0.357  0.00  0.00     0.257 C 
ATOM      9  N   UNL d   1      29.686 -15.547   0.928  0.00  0.00    -0.298 N 
ATOM     10  H   UNL d   1      29.115 -16.080   1.571  0.00  0.00     0.171 HD
ATOM     11  O   UNL d   1      29.730 -14.767  -1.286  0.00  0.00    -0.267 OA
BRANCH   9  12
ATOM     12  C   UNL d   1      30.983 -15.171   1.361  0.00  0.00     0.193 C 
ATOM     13  S   UNL d   1      32.407 -16.004   1.000  0.00  0.00    -0.039 SA
BRANCH  12  14
ATOM     14  N   UNL d   1      31.050 -14.002   2.140  0.00  0.00    -0.273 N 
ATOM     15  H   UNL d   1      31.337 -13.078   1.820  0.00  0.00     0.189 HD
BRANCH  14  16
ATOM     16  N   UNL d   1      30.673 -14.061   3.544  0.00  0.00    -0.268 N 
ATOM     17  C   UNL d   1      29.396 -14.432   3.932  0.00  0.00     0.236 C 
ATOM     18  O   UNL d   1      28.535 -14.732   3.106  0.00  0.00    -0.272 OA
ATOM     19  H   UNL d   1      31.404 -13.805   4.209  0.00  0.00     0.190 HD
BRANCH  17  20
ATOM     20  C   UNL d   1      29.141 -14.438   5.453  0.00  0.00     0.104 C 
BRANCH  20  21
ATOM     21  C   UNL d   1      28.663 -13.066   5.959  0.00  0.00     0.005 C 
ATOM     22  C   UNL d   1      28.079 -12.181   4.862  0.00  0.00     0.005 C 
ENDBRANCH  20  21
ENDBRANCH  17  20
ENDBRANCH  14  16
ENDBRANCH  12  14
ENDBRANCH   9  12
ENDBRANCH   1   8
BRANCH   4  23
ATOM     23  O   UNL d   1      23.814 -16.932  -1.647  0.00  0.00    -0.349 OA
BRANCH  23  24
ATOM     24  C   UNL d   1      23.112 -17.408  -0.500  0.00  0.00     0.180 C 
BRANCH  24  25
ATOM     25  C   UNL d   1      22.847 -18.905  -0.535  0.00  0.00     0.065 C 
BRANCH  25  26
ATOM     26  C   UNL d   1      21.398 -19.196  -0.208  0.00  0.00    -0.056 A 
ATOM     27  C   UNL d   1      20.971 -19.335   1.120  0.00  0.00     0.007 A 
ATOM     28  C   UNL d   1      19.664 -19.740   1.400  0.00  0.00     0.001 A 
ATOM     29  C   UNL d   1      18.746 -19.906   0.366  0.00  0.00     0.000 A 
ATOM     30  C   UNL d   1      19.138 -19.690  -0.953  0.00  0.00     0.001 A 
ATOM     31  C   UNL d   1      20.458 -19.337  -1.240  0.00  0.00     0.007 A 
ENDBRANCH  25  26
ENDBRANCH  24  25
ENDBRANCH  23  24
ENDBRANCH   4  23
TORSDOF 10
ENDMDL
MODEL 4
REMARK VINA RESULT:    -8.284      2.243      4.037
REMARK INTER + INTRA:         -13.177
REMARK INTER:                 -11.267
REMARK INTRA:                  -1.910
REMARK CONF_INDEPENDENT:        2.983
REMARK UNBOUND:                -1.910
REMARK  10 active torsions:
REMARK  status: ('A' for Active; 'I' for Inactive)
REMARK    1  A    between atoms: C_2  and  C_3 
REMARK    2  A    between atoms: C_3  and  C_4 
REMARK       I    between atoms: C_4  and  N_6 
REMARK    3  A    between atoms: N_6  and  N_7 
REMARK    4  A    between atoms: N_7  and  C_8 
REMARK    5  A    between atoms: C_8  and  N_10 
REMARK       I    between atoms: N_10  and  C_11 
REMARK    6  A    between atoms: C_11  and  C_13 
REMARK    7  A    between atoms: C_16  and  O_17 
REMARK    8  A    between atoms: O_17  and  C_18 
REMARK    9  A    between atoms: C_18  and  C_19 
REMARK   10  A    between atoms: C_19  and  C_20 
ROOT
ATOM      1  C   UNL d   1      26.461 -15.937  -2.285  0.00  0.00     0.033 A 
ATOM      2  C   UNL d   1      25.116 -15.656  -2.493  0.00  0.00     0.020 A 
ATOM      3  C   UNL d   1      24.144 -16.229  -1.641  0.00  0.00     0.039 A 
ATOM      4  C   UNL d   1      24.485 -17.101  -0.578  0.00  0.00     0.086 A 
ATOM      5  C   UNL d   1      25.844 -17.413  -0.408  0.00  0.00     0.045 A 
ATOM      6 BR   UNL d   1      26.653 -18.573   0.883  0.00  0.00    -0.048 Br
ATOM      7  C   UNL d   1      26.799 -16.839  -1.263  0.00  0.00     0.039 A 
ENDROOT
BRANCH   1   8
ATOM      8  C   UNL d   1      27.570 -15.498  -3.182  0.00  0.00     0.257 C 
ATOM      9  N   UNL d   1      27.341 -15.211  -4.544  0.00  0.00    -0.298 N 
ATOM     10  H   UNL d   1      26.386 -15.294  -4.865  0.00  0.00     0.171 HD
ATOM     11  O   UNL d   1      28.655 -15.380  -2.605  0.00  0.00    -0.267 OA
BRANCH   9  12
ATOM     12  C   UNL d   1      28.302 -14.729  -5.467  0.00  0.00     0.193 C 
ATOM     13  S   UNL d   1      29.551 -15.647  -6.140  0.00  0.00    -0.039 SA
BRANCH  12  14
ATOM     14  N   UNL d   1      28.168 -13.378  -5.838  0.00  0.00    -0.273 N 
ATOM     15  H   UNL d   1      28.469 -12.960  -6.717  0.00  0.00     0.189 HD
BRANCH  14  16
ATOM     16  N   UNL d   1      27.532 -12.449  -4.917  0.00  0.00    -0.268 N 
ATOM     17  C   UNL d   1      26.197 -12.579  -4.569  0.00  0.00     0.236 C 
ATOM     18  O   UNL d   1      25.501 -13.489  -5.018  0.00  0.00    -0.272 OA
ATOM     19  H   UNL d   1      28.129 -11.702  -4.561  0.00  0.00     0.190 HD
BRANCH  17  20
ATOM     20  C   UNL d   1      25.661 -11.514  -3.592  0.00  0.00     0.104 C 
BRANCH  20  21
ATOM     21  C   UNL d   1      26.114 -10.097  -3.985  0.00  0.00     0.005 C 
ATOM     22  C   UNL d   1      25.355  -9.521  -5.176  0.00  0.00     0.005 C 
ENDBRANCH  20  21
ENDBRANCH  17  20
ENDBRANCH  14  16
ENDBRANCH  12  14
ENDBRANCH   9  12
ENDBRANCH   1   8
BRANCH   4  23
ATOM     23  O   UNL d   1      23.385 -17.523   0.140  0.00  0.00    -0.349 OA
BRANCH  23  24
ATOM     24  C   UNL d   1      22.821 -18.781  -0.224  0.00  0.00     0.180 C 
BRANCH  24  25
ATOM     25  C   UNL d   1      21.424 -18.667  -0.814  0.00  0.00     0.065 C 
BRANCH  25  26
ATOM     26  C   UNL d   1      20.414 -19.365   0.071  0.00  0.00    -0.056 A 
ATOM     27  C   UNL d   1      20.527 -19.323   1.467  0.00  0.00     0.007 A 
ATOM     28  C   UNL d   1      19.671 -20.085   2.266  0.00  0.00     0.001 A 
ATOM     29  C   UNL d   1      18.631 -20.808   1.685  0.00  0.00     0.000 A 
ATOM     30  C   UNL d   1      18.460 -20.790   0.302  0.00  0.00     0.001 A 
ATOM     31  C   UNL d   1      19.347 -20.073  -0.502  0.00  0.00     0.007 A 
ENDBRANCH  25  26
ENDBRANCH  24  25
ENDBRANCH  23  24
ENDBRANCH   4  23
TORSDOF 10
ENDMDL
MODEL 5
REMARK VINA RESULT:    -8.220      1.834      2.328
REMARK INTER + INTRA:         -13.401
REMARK INTER:                 -11.203
REMARK INTRA:                  -2.197
REMARK CONF_INDEPENDENT:        2.983
REMARK UNBOUND:                -2.197
REMARK  10 active torsions:
REMARK  status: ('A' for Active; 'I' for Inactive)
REMARK    1  A    between atoms: C_2  and  C_3 
REMARK    2  A    between atoms: C_3  and  C_4 
REMARK       I    between atoms: C_4  and  N_6 
REMARK    3  A    between atoms: N_6  and  N_7 
REMARK    4  A    between atoms: N_7  and  C_8 
REMARK    5  A    between atoms: C_8  and  N_10 
REMARK       I    between atoms: N_10  and  C_11 
REMARK    6  A    between atoms: C_11  and  C_13 
REMARK    7  A    between atoms: C_16  and  O_17 
REMARK    8  A    between atoms: O_17  and  C_18 
REMARK    9  A    between atoms: C_18  and  C_19 
REMARK   10  A    between atoms: C_19  and  C_20 
ROOT
ATOM      1  C   UNL d   1      25.612 -14.779  -2.135  0.00  0.00     0.033 A 
ATOM      2  C   UNL d   1      24.292 -15.185  -2.289  0.00  0.00     0.020 A 
ATOM      3  C   UNL d   1      23.841 -16.355  -1.636  0.00  0.00     0.039 A 
ATOM      4  C   UNL d   1      24.693 -17.152  -0.832  0.00  0.00     0.086 A 
ATOM      5  C   UNL d   1      26.037 -16.755  -0.722  0.00  0.00     0.045 A 
ATOM      6 BR   UNL d   1      27.459 -17.604   0.237  0.00  0.00    -0.048 Br
ATOM      7  C   UNL d   1      26.472 -15.592  -1.378  0.00  0.00     0.039 A 
ENDROOT
BRANCH   1   8
ATOM      8  C   UNL d   1      26.242 -13.639  -2.863  0.00  0.00     0.257 C 
ATOM      9  N   UNL d   1      26.052 -13.459  -4.249  0.00  0.00    -0.298 N 
ATOM     10  H   UNL d   1      25.447 -14.128  -4.709  0.00  0.00     0.171 HD
ATOM     11  O   UNL d   1      26.887 -12.881  -2.133  0.00  0.00    -0.267 OA
BRANCH   9  12
ATOM     12  C   UNL d   1      26.547 -12.383  -5.027  0.00  0.00     0.193 C 
ATOM     13  S   UNL d   1      25.958 -10.800  -4.985  0.00  0.00    -0.039 SA
BRANCH  12  14
ATOM     14  N   UNL d   1      27.622 -12.692  -5.881  0.00  0.00    -0.273 N 
ATOM     15  H   UNL d   1      27.854 -12.220  -6.754  0.00  0.00     0.189 HD
BRANCH  14  16
ATOM     16  N   UNL d   1      28.526 -13.773  -5.523  0.00  0.00    -0.268 N 
ATOM     17  C   UNL d   1      28.094 -15.088  -5.471  0.00  0.00     0.236 C 
ATOM     18  O   UNL d   1      26.931 -15.393  -5.733  0.00  0.00    -0.272 OA
ATOM     19  H   UNL d   1      29.485 -13.494  -5.308  0.00  0.00     0.190 HD
BRANCH  17  20
ATOM     20  C   UNL d   1      29.164 -16.122  -5.066  0.00  0.00     0.104 C 
BRANCH  20  21
ATOM     21  C   UNL d   1      30.163 -15.543  -4.049  0.00  0.00     0.005 C 
ATOM     22  C   UNL d   1      29.535 -15.204  -2.701  0.00  0.00     0.005 C 
ENDBRANCH  20  21
ENDBRANCH  17  20
ENDBRANCH  14  16
ENDBRANCH  12  14
ENDBRANCH   9  12
ENDBRANCH   1   8
BRANCH   4  23
ATOM     23  O   UNL d   1      24.041 -18.231  -0.271  0.00  0.00    -0.349 OA
BRANCH  23  24
ATOM     24  C   UNL d   1      22.681 -18.036   0.110  0.00  0.00     0.180 C 
BRANCH  24  25
ATOM     25  C   UNL d   1      21.689 -18.660  -0.859  0.00  0.00     0.065 C 
BRANCH  25  26
ATOM     26  C   UNL d   1      20.556 -19.324  -0.106  0.00  0.00    -0.056 A 
ATOM     27  C   UNL d   1      20.629 -19.522   1.279  0.00  0.00     0.007 A 
ATOM     28  C   UNL d   1      19.641 -20.258   1.938  0.00  0.00     0.001 A 
ATOM     29  C   UNL d   1      18.524 -20.711   1.239  0.00  0.00     0.000 A 
ATOM     30  C   UNL d   1      18.402 -20.449  -0.123  0.00  0.00     0.001 A 
ATOM     31  C   UNL d   1      19.414 -19.759  -0.794  0.00  0.00     0.007 A 
ENDBRANCH  25  26
ENDBRANCH  24  25
ENDBRANCH  23  24
ENDBRANCH   4  23
TORSDOF 10
ENDMDL
MODEL 6
REMARK VINA RESULT:    -8.138      5.421      7.226
REMARK INTER + INTRA:         -13.005
REMARK INTER:                 -11.121
REMARK INTRA:                  -1.884
REMARK CONF_INDEPENDENT:        2.983
REMARK UNBOUND:                -1.884
REMARK  10 active torsions:
REMARK  status: ('A' for Active; 'I' for Inactive)
REMARK    1  A    between atoms: C_2  and  C_3 
REMARK    2  A    between atoms: C_3  and  C_4 
REMARK       I    between atoms: C_4  and  N_6 
REMARK    3  A    between atoms: N_6  and  N_7 
REMARK    4  A    between atoms: N_7  and  C_8 
REMARK    5  A    between atoms: C_8  and  N_10 
REMARK       I    between atoms: N_10  and  C_11 
REMARK    6  A    between atoms: C_11  and  C_13 
REMARK    7  A    between atoms: C_16  and  O_17 
REMARK    8  A    between atoms: O_17  and  C_18 
REMARK    9  A    between atoms: C_18  and  C_19 
REMARK   10  A    between atoms: C_19  and  C_20 
ROOT
ATOM      1  C   UNL d   1      27.575 -14.582   0.323  0.00  0.00     0.033 A 
ATOM      2  C   UNL d   1      26.719 -14.050  -0.634  0.00  0.00     0.020 A 
ATOM      3  C   UNL d   1      25.751 -14.882  -1.243  0.00  0.00     0.039 A 
ATOM      4  C   UNL d   1      25.623 -16.257  -0.926  0.00  0.00     0.086 A 
ATOM      5  C   UNL d   1      26.525 -16.792   0.009  0.00  0.00     0.045 A 
ATOM      6 BR   UNL d   1      26.667 -18.594   0.637  0.00  0.00    -0.048 Br
ATOM      7  C   UNL d   1      27.483 -15.956   0.604  0.00  0.00     0.039 A 
ENDROOT
BRANCH   1   8
ATOM      8  C   UNL d   1      28.713 -13.848   0.948  0.00  0.00     0.257 C 
ATOM      9  N   UNL d   1      29.235 -14.233   2.200  0.00  0.00    -0.298 N 
ATOM     10  H   UNL d   1      28.813 -15.046   2.630  0.00  0.00     0.171 HD
ATOM     11  O   UNL d   1      29.152 -12.928   0.250  0.00  0.00    -0.267 OA
BRANCH   9  12
ATOM     12  C   UNL d   1      30.349 -13.650   2.855  0.00  0.00     0.193 C 
ATOM     13  S   UNL d   1      31.023 -12.148   2.477  0.00  0.00    -0.039 SA
BRANCH  12  14
ATOM     14  N   UNL d   1      30.903 -14.406   3.904  0.00  0.00    -0.273 N 
ATOM     15  H   UNL d   1      31.652 -15.093   3.823  0.00  0.00     0.189 HD
BRANCH  14  16
ATOM     16  N   UNL d   1      30.405 -14.216   5.257  0.00  0.00    -0.268 N 
ATOM     17  C   UNL d   1      29.073 -14.433   5.572  0.00  0.00     0.236 C 
ATOM     18  O   UNL d   1      28.264 -14.801   4.722  0.00  0.00    -0.272 OA
ATOM     19  H   UNL d   1      31.096 -13.908   5.943  0.00  0.00     0.190 HD
BRANCH  17  20
ATOM     20  C   UNL d   1      28.692 -14.181   7.045  0.00  0.00     0.104 C 
BRANCH  20  21
ATOM     21  C   UNL d   1      28.650 -12.679   7.377  0.00  0.00     0.005 C 
ATOM     22  C   UNL d   1      28.064 -11.823   6.259  0.00  0.00     0.005 C 
ENDBRANCH  20  21
ENDBRANCH  17  20
ENDBRANCH  14  16
ENDBRANCH  12  14
ENDBRANCH   9  12
ENDBRANCH   1   8
BRANCH   4  23
ATOM     23  O   UNL d   1      24.599 -16.871  -1.619  0.00  0.00    -0.349 OA
BRANCH  23  24
ATOM     24  C   UNL d   1      23.445 -17.240  -0.868  0.00  0.00     0.180 C 
BRANCH  24  25
ATOM     25  C   UNL d   1      23.136 -18.728  -0.931  0.00  0.00     0.065 C 
BRANCH  25  26
ATOM     26  C   UNL d   1      21.734 -19.002  -0.429  0.00  0.00    -0.056 A 
ATOM     27  C   UNL d   1      21.434 -18.949   0.939  0.00  0.00     0.007 A 
ATOM     28  C   UNL d   1      20.175 -19.339   1.399  0.00  0.00     0.001 A 
ATOM     29  C   UNL d   1      19.174 -19.682   0.492  0.00  0.00     0.000 A 
ATOM     30  C   UNL d   1      19.438 -19.659  -0.876  0.00  0.00     0.001 A 
ATOM     31  C   UNL d   1      20.712 -19.321  -1.335  0.00  0.00     0.007 A 
ENDBRANCH  25  26
ENDBRANCH  24  25
ENDBRANCH  23  24
ENDBRANCH   4  23
TORSDOF 10
ENDMDL
MODEL 7
REMARK VINA RESULT:    -8.042      3.524      9.717
REMARK INTER + INTRA:         -13.332
REMARK INTER:                 -11.025
REMARK INTRA:                  -2.306
REMARK CONF_INDEPENDENT:        2.983
REMARK UNBOUND:                -2.306
REMARK  10 active torsions:
REMARK  status: ('A' for Active; 'I' for Inactive)
REMARK    1  A    between atoms: C_2  and  C_3 
REMARK    2  A    between atoms: C_3  and  C_4 
REMARK       I    between atoms: C_4  and  N_6 
REMARK    3  A    between atoms: N_6  and  N_7 
REMARK    4  A    between atoms: N_7  and  C_8 
REMARK    5  A    between atoms: C_8  and  N_10 
REMARK       I    between atoms: N_10  and  C_11 
REMARK    6  A    between atoms: C_11  and  C_13 
REMARK    7  A    between atoms: C_16  and  O_17 
REMARK    8  A    between atoms: O_17  and  C_18 
REMARK    9  A    between atoms: C_18  and  C_19 
REMARK   10  A    between atoms: C_19  and  C_20 
ROOT
ATOM      1  C   UNL d   1      25.751 -14.898  -3.440  0.00  0.00     0.033 A 
ATOM      2  C   UNL d   1      26.491 -15.501  -4.450  0.00  0.00     0.020 A 
ATOM      3  C   UNL d   1      27.146 -14.695  -5.410  0.00  0.00     0.039 A 
ATOM      4  C   UNL d   1      27.067 -13.281  -5.396  0.00  0.00     0.086 A 
ATOM      5  C   UNL d   1      26.277 -12.687  -4.397  0.00  0.00     0.045 A 
ATOM      6 BR   UNL d   1      25.917 -10.830  -4.104  0.00  0.00    -0.048 Br
ATOM      7  C   UNL d   1      25.630 -13.498  -3.451  0.00  0.00     0.039 A 
ENDROOT
BRANCH   1   8
ATOM      8  C   UNL d   1      24.916 -15.632  -2.444  0.00  0.00     0.257 C 
ATOM      9  N   UNL d   1      25.440 -16.713  -1.705  0.00  0.00    -0.298 N 
ATOM     10  H   UNL d   1      26.412 -16.940  -1.870  0.00  0.00     0.171 HD
ATOM     11  O   UNL d   1      23.777 -15.174  -2.320  0.00  0.00    -0.267 OA
BRANCH   9  12
ATOM     12  C   UNL d   1      24.761 -17.438  -0.693  0.00  0.00     0.193 C 
ATOM     13  S   UNL d   1      25.503 -18.209   0.614  0.00  0.00    -0.039 SA
BRANCH  12  14
ATOM     14  N   UNL d   1      23.361 -17.488  -0.814  0.00  0.00    -0.273 N 
ATOM     15  H   UNL d   1      22.772 -16.814  -1.301  0.00  0.00     0.189 HD
BRANCH  14  16
ATOM     16  N   UNL d   1      22.635 -18.596  -0.213  0.00  0.00    -0.268 N 
ATOM     17  C   UNL d   1      21.265 -18.730  -0.370  0.00  0.00     0.236 C 
ATOM     18  O   UNL d   1      20.611 -17.922  -1.028  0.00  0.00    -0.272 OA
ATOM     19  H   UNL d   1      23.199 -19.251   0.330  0.00  0.00     0.190 HD
BRANCH  17  20
ATOM     20  C   UNL d   1      20.634 -19.949   0.333  0.00  0.00     0.104 C 
BRANCH  20  21
ATOM     21  C   UNL d   1      19.177 -20.174  -0.109  0.00  0.00     0.005 C 
ATOM     22  C   UNL d   1      18.384 -21.072   0.835  0.00  0.00     0.005 C 
ENDBRANCH  20  21
ENDBRANCH  17  20
ENDBRANCH  14  16
ENDBRANCH  12  14
ENDBRANCH   9  12
ENDBRANCH   1   8
BRANCH   4  23
ATOM     23  O   UNL d   1      27.801 -12.695  -6.407  0.00  0.00    -0.349 OA
BRANCH  23  24
ATOM     24  C   UNL d   1      28.514 -13.572  -7.277  0.00  0.00     0.180 C 
BRANCH  24  25
ATOM     25  C   UNL d   1      29.970 -13.759  -6.883  0.00  0.00     0.065 C 
BRANCH  25  26
ATOM     26  C   UNL d   1      30.153 -15.055  -6.123  0.00  0.00    -0.056 A 
ATOM     27  C   UNL d   1      30.243 -15.065  -4.724  0.00  0.00     0.007 A 
ATOM     28  C   UNL d   1      30.550 -16.247  -4.047  0.00  0.00     0.001 A 
ATOM     29  C   UNL d   1      30.664 -17.446  -4.748  0.00  0.00     0.000 A 
ATOM     30  C   UNL d   1      30.496 -17.461  -6.131  0.00  0.00     0.001 A 
ATOM     31  C   UNL d   1      30.241 -16.271  -6.816  0.00  0.00     0.007 A 
ENDBRANCH  25  26
ENDBRANCH  24  25
ENDBRANCH  23  24
ENDBRANCH   4  23
TORSDOF 10
ENDMDL
MODEL 8
REMARK VINA RESULT:    -7.873      2.190      3.665
REMARK INTER + INTRA:         -13.020
REMARK INTER:                 -10.856
REMARK INTRA:                  -2.164
REMARK CONF_INDEPENDENT:        2.983
REMARK UNBOUND:                -2.164
REMARK  10 active torsions:
REMARK  status: ('A' for Active; 'I' for Inactive)
REMARK    1  A    between atoms: C_2  and  C_3 
REMARK    2  A    between atoms: C_3  and  C_4 
REMARK       I    between atoms: C_4  and  N_6 
REMARK    3  A    between atoms: N_6  and  N_7 
REMARK    4  A    between atoms: N_7  and  C_8 
REMARK    5  A    between atoms: C_8  and  N_10 
REMARK       I    between atoms: N_10  and  C_11 
REMARK    6  A    between atoms: C_11  and  C_13 
REMARK    7  A    between atoms: C_16  and  O_17 
REMARK    8  A    between atoms: O_17  and  C_18 
REMARK    9  A    between atoms: C_18  and  C_19 
REMARK   10  A    between atoms: C_19  and  C_20 
ROOT
ATOM      1  C   UNL d   1      26.765 -14.986  -3.192  0.00  0.00     0.033 A 
ATOM      2  C   UNL d   1      25.410 -14.704  -3.324  0.00  0.00     0.020 A 
ATOM      3  C   UNL d   1      24.496 -15.213  -2.373  0.00  0.00     0.039 A 
ATOM      4  C   UNL d   1      24.904 -16.021  -1.284  0.00  0.00     0.086 A 
ATOM      5  C   UNL d   1      26.270 -16.337  -1.188  0.00  0.00     0.045 A 
ATOM      6 BR   UNL d   1      27.158 -17.423   0.114  0.00  0.00    -0.048 Br
ATOM      7  C   UNL d   1      27.167 -15.827  -2.141  0.00  0.00     0.039 A 
ENDROOT
BRANCH   1   8
ATOM      8  C   UNL d   1      27.812 -14.614  -4.188  0.00  0.00     0.257 C 
ATOM      9  N   UNL d   1      28.304 -15.553  -5.119  0.00  0.00    -0.298 N 
ATOM     10  H   UNL d   1      27.888 -16.475  -5.088  0.00  0.00     0.171 HD
ATOM     11  O   UNL d   1      28.152 -13.429  -4.130  0.00  0.00    -0.267 OA
BRANCH   9  12
ATOM     12  C   UNL d   1      29.247 -15.295  -6.144  0.00  0.00     0.193 C 
ATOM     13  S   UNL d   1      30.834 -15.875  -6.175  0.00  0.00    -0.039 SA
BRANCH  12  14
ATOM     14  N   UNL d   1      28.787 -14.499  -7.209  0.00  0.00    -0.273 N 
ATOM     15  H   UNL d   1      28.835 -14.730  -8.200  0.00  0.00     0.189 HD
BRANCH  14  16
ATOM     16  N   UNL d   1      28.164 -13.217  -6.920  0.00  0.00    -0.268 N 
ATOM     17  C   UNL d   1      28.461 -12.087  -7.664  0.00  0.00     0.236 C 
ATOM     18  O   UNL d   1      29.258 -12.125  -8.601  0.00  0.00    -0.272 OA
ATOM     19  H   UNL d   1      27.509 -13.211  -6.137  0.00  0.00     0.190 HD
BRANCH  17  20
ATOM     20  C   UNL d   1      27.730 -10.799  -7.234  0.00  0.00     0.104 C 
BRANCH  20  21
ATOM     21  C   UNL d   1      26.255 -11.067  -6.887  0.00  0.00     0.005 C 
ATOM     22  C   UNL d   1      26.019 -11.360  -5.409  0.00  0.00     0.005 C 
ENDBRANCH  20  21
ENDBRANCH  17  20
ENDBRANCH  14  16
ENDBRANCH  12  14
ENDBRANCH   9  12
ENDBRANCH   1   8
BRANCH   4  23
ATOM     23  O   UNL d   1      23.853 -16.387  -0.467  0.00  0.00    -0.349 OA
BRANCH  23  24
ATOM     24  C   UNL d   1      23.643 -17.784  -0.273  0.00  0.00     0.180 C 
BRANCH  24  25
ATOM     25  C   UNL d   1      22.666 -18.390  -1.267  0.00  0.00     0.065 C 
BRANCH  25  26
ATOM     26  C   UNL d   1      21.436 -18.910  -0.555  0.00  0.00    -0.056 A 
ATOM     27  C   UNL d   1      20.318 -19.352  -1.275  0.00  0.00     0.007 A 
ATOM     28  C   UNL d   1      19.142 -19.698  -0.606  0.00  0.00     0.001 A 
ATOM     29  C   UNL d   1      19.106 -19.706   0.787  0.00  0.00     0.000 A 
ATOM     30  C   UNL d   1      20.238 -19.347   1.513  0.00  0.00     0.001 A 
ATOM     31  C   UNL d   1      21.399 -18.950   0.847  0.00  0.00     0.007 A 
ENDBRANCH  25  26
ENDBRANCH  24  25
ENDBRANCH  23  24
ENDBRANCH   4  23
TORSDOF 10
ENDMDL
MODEL 9
REMARK VINA RESULT:    -7.821      4.184     10.671
REMARK INTER + INTRA:         -12.978
REMARK INTER:                 -10.804
REMARK INTRA:                  -2.174
REMARK CONF_INDEPENDENT:        2.983
REMARK UNBOUND:                -2.174
REMARK  10 active torsions:
REMARK  status: ('A' for Active; 'I' for Inactive)
REMARK    1  A    between atoms: C_2  and  C_3 
REMARK    2  A    between atoms: C_3  and  C_4 
REMARK       I    between atoms: C_4  and  N_6 
REMARK    3  A    between atoms: N_6  and  N_7 
REMARK    4  A    between atoms: N_7  and  C_8 
REMARK    5  A    between atoms: C_8  and  N_10 
REMARK       I    between atoms: N_10  and  C_11 
REMARK    6  A    between atoms: C_11  and  C_13 
REMARK    7  A    between atoms: C_16  and  O_17 
REMARK    8  A    between atoms: O_17  and  C_18 
REMARK    9  A    between atoms: C_18  and  C_19 
REMARK   10  A    between atoms: C_19  and  C_20 
ROOT
ATOM      1  C   UNL d   1      25.750 -14.931  -3.480  0.00  0.00     0.033 A 
ATOM      2  C   UNL d   1      26.493 -15.571  -4.465  0.00  0.00     0.020 A 
ATOM      3  C   UNL d   1      27.147 -14.803  -5.456  0.00  0.00     0.039 A 
ATOM      4  C   UNL d   1      27.065 -13.389  -5.497  0.00  0.00     0.086 A 
ATOM      5  C   UNL d   1      26.273 -12.758  -4.523  0.00  0.00     0.045 A 
ATOM      6 BR   UNL d   1      25.908 -10.892  -4.304  0.00  0.00    -0.048 Br
ATOM      7  C   UNL d   1      25.627 -13.533  -3.546  0.00  0.00     0.039 A 
ENDROOT
BRANCH   1   8
ATOM      8  C   UNL d   1      24.917 -15.627  -2.456  0.00  0.00     0.257 C 
ATOM      9  N   UNL d   1      25.412 -16.736  -1.739  0.00  0.00    -0.298 N 
ATOM     10  H   UNL d   1      26.365 -17.011  -1.940  0.00  0.00     0.171 HD
ATOM     11  O   UNL d   1      23.807 -15.113  -2.289  0.00  0.00    -0.267 OA
BRANCH   9  12
ATOM     12  C   UNL d   1      24.735 -17.430  -0.705  0.00  0.00     0.193 C 
ATOM     13  S   UNL d   1      25.482 -18.198   0.601  0.00  0.00    -0.039 SA
BRANCH  12  14
ATOM     14  N   UNL d   1      23.332 -17.452  -0.802  0.00  0.00    -0.273 N 
ATOM     15  H   UNL d   1      22.745 -16.736  -1.228  0.00  0.00     0.189 HD
BRANCH  14  16
ATOM     16  N   UNL d   1      22.600 -18.590  -0.268  0.00  0.00    -0.268 N 
ATOM     17  C   UNL d   1      21.257 -18.779  -0.549  0.00  0.00     0.236 C 
ATOM     18  O   UNL d   1      20.634 -17.997  -1.266  0.00  0.00    -0.272 OA
ATOM     19  H   UNL d   1      23.139 -19.222   0.325  0.00  0.00     0.190 HD
BRANCH  17  20
ATOM     20  C   UNL d   1      20.614 -20.024   0.096  0.00  0.00     0.104 C 
BRANCH  20  21
ATOM     21  C   UNL d   1      19.252 -19.700   0.733  0.00  0.00     0.005 C 
ATOM     22  C   UNL d   1      18.544 -20.920   1.313  0.00  0.00     0.005 C 
ENDBRANCH  20  21
ENDBRANCH  17  20
ENDBRANCH  14  16
ENDBRANCH  12  14
ENDBRANCH   9  12
ENDBRANCH   1   8
BRANCH   4  23
ATOM     23  O   UNL d   1      27.798 -12.843  -6.531  0.00  0.00    -0.349 OA
BRANCH  23  24
ATOM     24  C   UNL d   1      29.095 -13.389  -6.760  0.00  0.00     0.180 C 
BRANCH  24  25
ATOM     25  C   UNL d   1      29.832 -12.728  -7.914  0.00  0.00     0.065 C 
BRANCH  25  26
ATOM     26  C   UNL d   1      28.874 -11.922  -8.765  0.00  0.00    -0.056 A 
ATOM     27  C   UNL d   1      28.928 -10.522  -8.783  0.00  0.00     0.007 A 
ATOM     28  C   UNL d   1      27.952  -9.789  -9.463  0.00  0.00     0.001 A 
ATOM     29  C   UNL d   1      26.980 -10.447 -10.214  0.00  0.00     0.000 A 
ATOM     30  C   UNL d   1      26.967 -11.838 -10.269  0.00  0.00     0.001 A 
ATOM     31  C   UNL d   1      27.910 -12.574  -9.548  0.00  0.00     0.007 A 
ENDBRANCH  25  26
ENDBRANCH  24  25
ENDBRANCH  23  24
ENDBRANCH   4  23
TORSDOF 10
ENDMDL
