MODEL 1
REMARK VINA RESULT:   -11.863      0.000      0.000
REMARK INTER + INTRA:         -17.486
REMARK INTER:                 -16.337
REMARK INTRA:                  -1.149
REMARK CONF_INDEPENDENT:        4.474
REMARK UNBOUND:                -1.149
REMARK  15 active torsions:
REMARK  status: ('A' for Active; 'I' for Inactive)
REMARK    1  A    between atoms: C_2  and  C_35 
REMARK    2  A    between atoms: C_2  and  C_3 
REMARK    3  A    between atoms: C_3  and  C_4 
REMARK       I    between atoms: C_4  and  N_6 
REMARK    4  A    between atoms: N_6  and  C_7 
REMARK    5  A    between atoms: C_9  and  N_10 
REMARK       I    between atoms: N_10  and  C_11 
REMARK    6  A    between atoms: C_11  and  C_13 
REMARK    7  A    between atoms: C_13  and  C_14 
REMARK    8  A    between atoms: C_14  and  C_16 
REMARK    9  A    between atoms: C_16  and  C_17 
REMARK   10  A    between atoms: C_22  and  N_23 
REMARK       I    between atoms: N_23  and  C_24 
REMARK   11  A    between atoms: C_24  and  C_26 
REMARK   12  A    between atoms: C_27  and  C_26 
REMARK   13  A    between atoms: C_27  and  C_29 
REMARK   14  A    between atoms: C_29  and  C_30 
REMARK   15  A    between atoms: C_35  and  C_36 
ROOT
ATOM      1  C   UNL d   1      31.544 -15.521   2.414  0.00  0.00     0.760 A 
ATOM      2  N   UNL d   1      30.747 -15.485   1.358  0.00  0.00     0.132 NA
ATOM      3  C   UNL d   1      30.735 -16.507   0.527  0.00  0.00     0.760 A 
ATOM      4  N   UNL d   1      31.537 -17.560   0.689  0.00  0.00     0.132 NA
ATOM      5  C   UNL d   1      32.274 -17.515   1.818  0.00  0.00     0.760 A 
ATOM      6  N   UNL d   1      32.350 -16.510   2.663  0.00  0.00     0.132 NA
ENDROOT
BRANCH   1   7
ATOM      7  N   UNL d   1      31.570 -14.472   3.347  0.00  0.00    -0.155 N 
ATOM      8  C   UNL d   1      30.339 -14.065   3.775  0.00  0.00     0.236 C 
ATOM      9  O   UNL d   1      29.377 -14.627   3.302  0.00  0.00    -0.273 OA
ATOM     10  H   UNL d   1      32.350 -14.463   3.978  0.00  0.00     0.187 HD
BRANCH   8  11
ATOM     11  C   UNL d   1      30.244 -12.966   4.865  0.00  0.00     0.108 C 
BRANCH  11  12
ATOM     12  C   UNL d   1      28.925 -13.017   5.712  0.00  0.00    -0.009 C 
ATOM     13  C   UNL d   1      27.705 -13.122   4.817  0.00  0.00     0.010 C 
BRANCH  12  14
ATOM     14  C   UNL d   1      28.924 -14.140   6.787  0.00  0.00     0.013 C 
BRANCH  14  15
ATOM     15  C   UNL d   1      29.331 -13.686   8.232  0.00  0.00    -0.051 C 
ATOM     16  C   UNL d   1      30.859 -13.508   8.289  0.00  0.00     0.014 C 
ATOM     17  C   UNL d   1      28.626 -12.408   8.736  0.00  0.00     0.014 C 
ATOM     18  C   UNL d   1      28.901 -14.758   9.244  0.00  0.00     0.014 C 
ENDBRANCH  14  15
ENDBRANCH  12  14
ENDBRANCH  11  12
ENDBRANCH   8  11
ENDBRANCH   1   7
BRANCH   3  19
ATOM     19  N   UNL d   1      29.888 -16.443  -0.609  0.00  0.00    -0.155 N 
ATOM     20  C   UNL d   1      28.523 -16.640  -0.501  0.00  0.00     0.236 C 
ATOM     21  O   UNL d   1      27.972 -17.007   0.532  0.00  0.00    -0.273 OA
ATOM     22  H   UNL d   1      30.327 -16.332  -1.507  0.00  0.00     0.187 HD
BRANCH  20  23
ATOM     23  C   UNL d   1      27.665 -16.420  -1.764  0.00  0.00     0.108 C 
BRANCH  23  24
ATOM     24  C   UNL d   1      26.202 -16.109  -1.331  0.00  0.00    -0.009 C 
ATOM     25  C   UNL d   1      25.900 -14.641  -1.672  0.00  0.00     0.010 C 
BRANCH  24  26
ATOM     26  C   UNL d   1      25.145 -17.072  -1.943  0.00  0.00     0.013 C 
BRANCH  26  27
ATOM     27  C   UNL d   1      24.082 -17.654  -0.944  0.00  0.00    -0.051 C 
ATOM     28  C   UNL d   1      23.268 -18.758  -1.640  0.00  0.00     0.014 C 
ATOM     29  C   UNL d   1      24.681 -18.200   0.366  0.00  0.00     0.014 C 
ATOM     30  C   UNL d   1      23.125 -16.534  -0.497  0.00  0.00     0.014 C 
ENDBRANCH  26  27
ENDBRANCH  24  26
ENDBRANCH  23  24
ENDBRANCH  20  23
ENDBRANCH   3  19
BRANCH   5  31
ATOM     31  N   UNL d   1      33.040 -18.637   2.126  0.00  0.00    -0.155 N 
ATOM     32  C   UNL d   1      32.823 -19.439   3.231  0.00  0.00     0.236 C 
ATOM     33  O   UNL d   1      31.905 -19.298   4.043  0.00  0.00    -0.273 OA
ATOM     34  H   UNL d   1      33.782 -18.770   1.464  0.00  0.00     0.187 HD
BRANCH  32  35
ATOM     35  C   UNL d   1      33.779 -20.606   3.481  0.00  0.00     0.108 C 
BRANCH  35  36
ATOM     36  C   UNL d   1      34.640 -20.563   4.744  0.00  0.00    -0.009 C 
ATOM     37  C   UNL d   1      35.968 -19.917   4.369  0.00  0.00     0.010 C 
BRANCH  36  38
ATOM     38  C   UNL d   1      34.826 -21.935   5.432  0.00  0.00     0.013 C 
BRANCH  38  39
ATOM     39  C   UNL d   1      34.015 -22.162   6.749  0.00  0.00    -0.051 C 
ATOM     40  C   UNL d   1      34.542 -21.253   7.868  0.00  0.00     0.014 C 
ATOM     41  C   UNL d   1      32.502 -21.951   6.586  0.00  0.00     0.014 C 
ATOM     42  C   UNL d   1      34.184 -23.621   7.195  0.00  0.00     0.014 C 
ENDBRANCH  38  39
ENDBRANCH  36  38
ENDBRANCH  35  36
ENDBRANCH  32  35
ENDBRANCH   5  31
TORSDOF 15
ENDMDL
MODEL 2
REMARK VINA RESULT:   -11.234      0.688      7.071
REMARK INTER + INTRA:         -16.982
REMARK INTER:                 -15.709
REMARK INTRA:                  -1.273
REMARK CONF_INDEPENDENT:        4.474
REMARK UNBOUND:                -1.273
REMARK  15 active torsions:
REMARK  status: ('A' for Active; 'I' for Inactive)
REMARK    1  A    between atoms: C_2  and  C_35 
REMARK    2  A    between atoms: C_2  and  C_3 
REMARK    3  A    between atoms: C_3  and  C_4 
REMARK       I    between atoms: C_4  and  N_6 
REMARK    4  A    between atoms: N_6  and  C_7 
REMARK    5  A    between atoms: C_9  and  N_10 
REMARK       I    between atoms: N_10  and  C_11 
REMARK    6  A    between atoms: C_11  and  C_13 
REMARK    7  A    between atoms: C_13  and  C_14 
REMARK    8  A    between atoms: C_14  and  C_16 
REMARK    9  A    between atoms: C_16  and  C_17 
REMARK   10  A    between atoms: C_22  and  N_23 
REMARK       I    between atoms: N_23  and  C_24 
REMARK   11  A    between atoms: C_24  and  C_26 
REMARK   12  A    between atoms: C_27  and  C_26 
REMARK   13  A    between atoms: C_27  and  C_29 
REMARK   14  A    between atoms: C_29  and  C_30 
REMARK   15  A    between atoms: C_35  and  C_36 
ROOT
ATOM      1  C   UNL d   1      30.608 -16.149   0.603  0.00  0.00     0.760 A 
ATOM      2  N   UNL d   1      30.476 -15.166   1.480  0.00  0.00     0.132 NA
ATOM      3  C   UNL d   1      31.178 -15.200   2.595  0.00  0.00     0.760 A 
ATOM      4  N   UNL d   1      31.984 -16.220   2.891  0.00  0.00     0.132 NA
ATOM      5  C   UNL d   1      32.079 -17.142   1.913  0.00  0.00     0.760 A 
ATOM      6  N   UNL d   1      31.380 -17.176   0.798  0.00  0.00     0.132 NA
ENDROOT
BRANCH   1   7
ATOM      7  N   UNL d   1      29.907 -16.143  -0.614  0.00  0.00    -0.155 N 
ATOM      8  C   UNL d   1      28.564 -16.358  -0.493  0.00  0.00     0.236 C 
ATOM      9  O   UNL d   1      28.132 -16.544   0.622  0.00  0.00    -0.273 OA
ATOM     10  H   UNL d   1      30.255 -15.522  -1.319  0.00  0.00     0.187 HD
BRANCH   8  11
ATOM     11  C   UNL d   1      27.674 -16.296  -1.761  0.00  0.00     0.108 C 
BRANCH  11  12
ATOM     12  C   UNL d   1      26.186 -15.886  -1.479  0.00  0.00    -0.009 C 
ATOM     13  C   UNL d   1      25.899 -14.487  -1.990  0.00  0.00     0.010 C 
BRANCH  12  14
ATOM     14  C   UNL d   1      25.149 -16.904  -2.032  0.00  0.00     0.013 C 
BRANCH  14  15
ATOM     15  C   UNL d   1      24.120 -17.451  -0.982  0.00  0.00    -0.051 C 
ATOM     16  C   UNL d   1      24.889 -18.003   0.231  0.00  0.00     0.014 C 
ATOM     17  C   UNL d   1      23.056 -16.432  -0.521  0.00  0.00     0.014 C 
ATOM     18  C   UNL d   1      23.290 -18.576  -1.619  0.00  0.00     0.014 C 
ENDBRANCH  14  15
ENDBRANCH  12  14
ENDBRANCH  11  12
ENDBRANCH   8  11
ENDBRANCH   1   7
BRANCH   3  19
ATOM     19  N   UNL d   1      31.009 -14.147   3.530  0.00  0.00    -0.155 N 
ATOM     20  C   UNL d   1      29.778 -13.547   3.725  0.00  0.00     0.236 C 
ATOM     21  O   UNL d   1      28.794 -13.781   3.029  0.00  0.00    -0.273 OA
ATOM     22  H   UNL d   1      31.834 -13.796   3.984  0.00  0.00     0.187 HD
BRANCH  20  23
ATOM     23  C   UNL d   1      29.660 -12.504   4.855  0.00  0.00     0.108 C 
BRANCH  23  24
ATOM     24  C   UNL d   1      29.140 -13.211   6.141  0.00  0.00    -0.009 C 
ATOM     25  C   UNL d   1      28.685 -14.629   5.762  0.00  0.00     0.010 C 
BRANCH  24  26
ATOM     26  C   UNL d   1      30.167 -13.229   7.310  0.00  0.00     0.013 C 
BRANCH  26  27
ATOM     27  C   UNL d   1      29.686 -12.589   8.661  0.00  0.00    -0.051 C 
ATOM     28  C   UNL d   1      30.309 -11.192   8.823  0.00  0.00     0.014 C 
ATOM     29  C   UNL d   1      28.156 -12.494   8.804  0.00  0.00     0.014 C 
ATOM     30  C   UNL d   1      30.132 -13.474   9.839  0.00  0.00     0.014 C 
ENDBRANCH  26  27
ENDBRANCH  24  26
ENDBRANCH  23  24
ENDBRANCH  20  23
ENDBRANCH   3  19
BRANCH   5  31
ATOM     31  N   UNL d   1      33.001 -18.172   2.091  0.00  0.00    -0.155 N 
ATOM     32  C   UNL d   1      32.888 -19.147   3.064  0.00  0.00     0.236 C 
ATOM     33  O   UNL d   1      31.947 -19.260   3.852  0.00  0.00    -0.273 OA
ATOM     34  H   UNL d   1      33.765 -18.098   1.446  0.00  0.00     0.187 HD
BRANCH  32  35
ATOM     35  C   UNL d   1      34.006 -20.185   3.185  0.00  0.00     0.108 C 
BRANCH  35  36
ATOM     36  C   UNL d   1      34.591 -20.441   4.574  0.00  0.00    -0.009 C 
ATOM     37  C   UNL d   1      36.046 -19.987   4.546  0.00  0.00     0.010 C 
BRANCH  36  38
ATOM     38  C   UNL d   1      34.439 -21.899   5.067  0.00  0.00     0.013 C 
BRANCH  38  39
ATOM     39  C   UNL d   1      33.869 -22.081   6.511  0.00  0.00    -0.051 C 
ATOM     40  C   UNL d   1      34.524 -21.084   7.478  0.00  0.00     0.014 C 
ATOM     41  C   UNL d   1      32.341 -21.948   6.594  0.00  0.00     0.014 C 
ATOM     42  C   UNL d   1      34.188 -23.502   6.997  0.00  0.00     0.014 C 
ENDBRANCH  38  39
ENDBRANCH  36  38
ENDBRANCH  35  36
ENDBRANCH  32  35
ENDBRANCH   5  31
TORSDOF 15
ENDMDL
MODEL 3
REMARK VINA RESULT:   -11.180      1.121      1.802
REMARK INTER + INTRA:         -17.081
REMARK INTER:                 -15.655
REMARK INTRA:                  -1.427
REMARK CONF_INDEPENDENT:        4.474
REMARK UNBOUND:                -1.427
REMARK  15 active torsions:
REMARK  status: ('A' for Active; 'I' for Inactive)
REMARK    1  A    between atoms: C_2  and  C_35 
REMARK    2  A    between atoms: C_2  and  C_3 
REMARK    3  A    between atoms: C_3  and  C_4 
REMARK       I    between atoms: C_4  and  N_6 
REMARK    4  A    between atoms: N_6  and  C_7 
REMARK    5  A    between atoms: C_9  and  N_10 
REMARK       I    between atoms: N_10  and  C_11 
REMARK    6  A    between atoms: C_11  and  C_13 
REMARK    7  A    between atoms: C_13  and  C_14 
REMARK    8  A    between atoms: C_14  and  C_16 
REMARK    9  A    between atoms: C_16  and  C_17 
REMARK   10  A    between atoms: C_22  and  N_23 
REMARK       I    between atoms: N_23  and  C_24 
REMARK   11  A    between atoms: C_24  and  C_26 
REMARK   12  A    between atoms: C_27  and  C_26 
REMARK   13  A    between atoms: C_27  and  C_29 
REMARK   14  A    between atoms: C_29  and  C_30 
REMARK   15  A    between atoms: C_35  and  C_36 
ROOT
ATOM      1  C   UNL d   1      31.697 -15.610   2.309  0.00  0.00     0.760 A 
ATOM      2  N   UNL d   1      30.846 -15.553   1.297  0.00  0.00     0.132 NA
ATOM      3  C   UNL d   1      30.752 -16.580   0.478  0.00  0.00     0.760 A 
ATOM      4  N   UNL d   1      31.523 -17.660   0.607  0.00  0.00     0.132 NA
ATOM      5  C   UNL d   1      32.321 -17.634   1.693  0.00  0.00     0.760 A 
ATOM      6  N   UNL d   1      32.479 -16.626   2.523  0.00  0.00     0.132 NA
ENDROOT
BRANCH   1   7
ATOM      7  N   UNL d   1      31.812 -14.555   3.229  0.00  0.00    -0.155 N 
ATOM      8  C   UNL d   1      31.703 -13.311   2.678  0.00  0.00     0.236 C 
ATOM      9  O   UNL d   1      31.541 -13.249   1.481  0.00  0.00    -0.273 OA
ATOM     10  H   UNL d   1      31.452 -14.732   4.148  0.00  0.00     0.187 HD
BRANCH   8  11
ATOM     11  C   UNL d   1      31.736 -12.070   3.608  0.00  0.00     0.108 C 
BRANCH  11  12
ATOM     12  C   UNL d   1      30.485 -11.941   4.547  0.00  0.00    -0.009 C 
ATOM     13  C   UNL d   1      30.023 -10.499   4.645  0.00  0.00     0.010 C 
BRANCH  12  14
ATOM     14  C   UNL d   1      29.311 -12.876   4.144  0.00  0.00     0.013 C 
BRANCH  14  15
ATOM     15  C   UNL d   1      28.702 -13.729   5.311  0.00  0.00    -0.051 C 
ATOM     16  C   UNL d   1      29.846 -14.396   6.094  0.00  0.00     0.014 C 
ATOM     17  C   UNL d   1      27.779 -12.950   6.273  0.00  0.00     0.014 C 
ATOM     18  C   UNL d   1      27.781 -14.811   4.725  0.00  0.00     0.014 C 
ENDBRANCH  14  15
ENDBRANCH  12  14
ENDBRANCH  11  12
ENDBRANCH   8  11
ENDBRANCH   1   7
BRANCH   3  19
ATOM     19  N   UNL d   1      29.847 -16.494  -0.611  0.00  0.00    -0.155 N 
ATOM     20  C   UNL d   1      28.514 -16.835  -0.468  0.00  0.00     0.236 C 
ATOM     21  O   UNL d   1      28.053 -17.350   0.546  0.00  0.00    -0.273 OA
ATOM     22  H   UNL d   1      30.228 -16.256  -1.511  0.00  0.00     0.187 HD
BRANCH  20  23
ATOM     23  C   UNL d   1      27.577 -16.583  -1.667  0.00  0.00     0.108 C 
BRANCH  23  24
ATOM     24  C   UNL d   1      26.148 -16.272  -1.133  0.00  0.00    -0.009 C 
ATOM     25  C   UNL d   1      25.905 -14.759  -1.257  0.00  0.00     0.010 C 
BRANCH  24  26
ATOM     26  C   UNL d   1      25.023 -17.094  -1.825  0.00  0.00     0.013 C 
BRANCH  26  27
ATOM     27  C   UNL d   1      23.891 -17.644  -0.885  0.00  0.00    -0.051 C 
ATOM     28  C   UNL d   1      22.924 -16.505  -0.520  0.00  0.00     0.014 C 
ATOM     29  C   UNL d   1      23.102 -18.827  -1.474  0.00  0.00     0.014 C 
ATOM     30  C   UNL d   1      24.518 -18.199   0.407  0.00  0.00     0.014 C 
ENDBRANCH  26  27
ENDBRANCH  24  26
ENDBRANCH  23  24
ENDBRANCH  20  23
ENDBRANCH   3  19
BRANCH   5  31
ATOM     31  N   UNL d   1      33.063 -18.781   1.970  0.00  0.00    -0.155 N 
ATOM     32  C   UNL d   1      32.896 -19.550   3.106  0.00  0.00     0.236 C 
ATOM     33  O   UNL d   1      32.048 -19.354   3.981  0.00  0.00    -0.273 OA
ATOM     34  H   UNL d   1      33.747 -18.958   1.259  0.00  0.00     0.187 HD
BRANCH  32  35
ATOM     35  C   UNL d   1      33.821 -20.752   3.312  0.00  0.00     0.108 C 
BRANCH  35  36
ATOM     36  C   UNL d   1      34.632 -20.811   4.607  0.00  0.00    -0.009 C 
ATOM     37  C   UNL d   1      36.037 -20.317   4.286  0.00  0.00     0.010 C 
BRANCH  36  38
ATOM     38  C   UNL d   1      34.637 -22.199   5.289  0.00  0.00     0.013 C 
BRANCH  38  39
ATOM     39  C   UNL d   1      33.967 -22.275   6.699  0.00  0.00    -0.051 C 
ATOM     40  C   UNL d   1      32.470 -21.950   6.602  0.00  0.00     0.014 C 
ATOM     41  C   UNL d   1      34.154 -23.629   7.400  0.00  0.00     0.014 C 
ATOM     42  C   UNL d   1      34.625 -21.238   7.621  0.00  0.00     0.014 C 
ENDBRANCH  38  39
ENDBRANCH  36  38
ENDBRANCH  35  36
ENDBRANCH  32  35
ENDBRANCH   5  31
TORSDOF 15
ENDMDL
MODEL 4
REMARK VINA RESULT:   -11.085      1.133      2.457
REMARK INTER + INTRA:         -17.291
REMARK INTER:                 -15.560
REMARK INTRA:                  -1.731
REMARK CONF_INDEPENDENT:        4.474
REMARK UNBOUND:                -1.731
REMARK  15 active torsions:
REMARK  status: ('A' for Active; 'I' for Inactive)
REMARK    1  A    between atoms: C_2  and  C_35 
REMARK    2  A    between atoms: C_2  and  C_3 
REMARK    3  A    between atoms: C_3  and  C_4 
REMARK       I    between atoms: C_4  and  N_6 
REMARK    4  A    between atoms: N_6  and  C_7 
REMARK    5  A    between atoms: C_9  and  N_10 
REMARK       I    between atoms: N_10  and  C_11 
REMARK    6  A    between atoms: C_11  and  C_13 
REMARK    7  A    between atoms: C_13  and  C_14 
REMARK    8  A    between atoms: C_14  and  C_16 
REMARK    9  A    between atoms: C_16  and  C_17 
REMARK   10  A    between atoms: C_22  and  N_23 
REMARK       I    between atoms: N_23  and  C_24 
REMARK   11  A    between atoms: C_24  and  C_26 
REMARK   12  A    between atoms: C_27  and  C_26 
REMARK   13  A    between atoms: C_27  and  C_29 
REMARK   14  A    between atoms: C_29  and  C_30 
REMARK   15  A    between atoms: C_35  and  C_36 
ROOT
ATOM      1  C   UNL d   1      31.357 -15.220   2.538  0.00  0.00     0.760 A 
ATOM      2  N   UNL d   1      30.570 -15.223   1.474  0.00  0.00     0.132 NA
ATOM      3  C   UNL d   1      30.664 -16.212   0.608  0.00  0.00     0.760 A 
ATOM      4  N   UNL d   1      31.561 -17.188   0.745  0.00  0.00     0.132 NA
ATOM      5  C   UNL d   1      32.279 -17.114   1.884  0.00  0.00     0.760 A 
ATOM      6  N   UNL d   1      32.251 -16.136   2.764  0.00  0.00     0.132 NA
ENDROOT
BRANCH   1   7
ATOM      7  N   UNL d   1      31.274 -14.206   3.507  0.00  0.00    -0.155 N 
ATOM      8  C   UNL d   1      30.045 -14.079   4.088  0.00  0.00     0.236 C 
ATOM      9  O   UNL d   1      29.172 -14.824   3.703  0.00  0.00    -0.273 OA
ATOM     10  H   UNL d   1      32.104 -14.042   4.045  0.00  0.00     0.187 HD
BRANCH   8  11
ATOM     11  C   UNL d   1      29.853 -13.045   5.228  0.00  0.00     0.108 C 
BRANCH  11  12
ATOM     12  C   UNL d   1      28.437 -12.369   5.247  0.00  0.00    -0.009 C 
ATOM     13  C   UNL d   1      28.143 -11.757   6.603  0.00  0.00     0.010 C 
BRANCH  12  14
ATOM     14  C   UNL d   1      28.234 -11.328   4.111  0.00  0.00     0.013 C 
BRANCH  14  15
ATOM     15  C   UNL d   1      27.707 -11.911   2.753  0.00  0.00    -0.051 C 
ATOM     16  C   UNL d   1      28.887 -12.050   1.776  0.00  0.00     0.014 C 
ATOM     17  C   UNL d   1      26.950 -13.252   2.870  0.00  0.00     0.014 C 
ATOM     18  C   UNL d   1      26.659 -10.957   2.160  0.00  0.00     0.014 C 
ENDBRANCH  14  15
ENDBRANCH  12  14
ENDBRANCH  11  12
ENDBRANCH   8  11
ENDBRANCH   1   7
BRANCH   3  19
ATOM     19  N   UNL d   1      29.825 -16.189  -0.535  0.00  0.00    -0.155 N 
ATOM     20  C   UNL d   1      28.496 -16.564  -0.461  0.00  0.00     0.236 C 
ATOM     21  O   UNL d   1      27.988 -17.059   0.541  0.00  0.00    -0.273 OA
ATOM     22  H   UNL d   1      30.253 -15.971  -1.418  0.00  0.00     0.187 HD
BRANCH  20  23
ATOM     23  C   UNL d   1      27.627 -16.381  -1.722  0.00  0.00     0.108 C 
BRANCH  23  24
ATOM     24  C   UNL d   1      26.170 -16.047  -1.287  0.00  0.00    -0.009 C 
ATOM     25  C   UNL d   1      25.904 -14.564  -1.591  0.00  0.00     0.010 C 
BRANCH  24  26
ATOM     26  C   UNL d   1      25.093 -16.968  -1.927  0.00  0.00     0.013 C 
BRANCH  26  27
ATOM     27  C   UNL d   1      24.038 -17.586  -0.940  0.00  0.00    -0.051 C 
ATOM     28  C   UNL d   1      23.277 -18.723  -1.643  0.00  0.00     0.014 C 
ATOM     29  C   UNL d   1      24.638 -18.102   0.380  0.00  0.00     0.014 C 
ATOM     30  C   UNL d   1      23.033 -16.501  -0.514  0.00  0.00     0.014 C 
ENDBRANCH  26  27
ENDBRANCH  24  26
ENDBRANCH  23  24
ENDBRANCH  20  23
ENDBRANCH   3  19
BRANCH   5  31
ATOM     31  N   UNL d   1      33.146 -18.167   2.164  0.00  0.00    -0.155 N 
ATOM     32  C   UNL d   1      32.932 -19.097   3.165  0.00  0.00     0.236 C 
ATOM     33  O   UNL d   1      31.937 -19.142   3.892  0.00  0.00    -0.273 OA
ATOM     34  H   UNL d   1      33.954 -18.148   1.569  0.00  0.00     0.187 HD
BRANCH  32  35
ATOM     35  C   UNL d   1      33.998 -20.168   3.402  0.00  0.00     0.108 C 
BRANCH  35  36
ATOM     36  C   UNL d   1      34.477 -20.391   4.837  0.00  0.00    -0.009 C 
ATOM     37  C   UNL d   1      35.845 -19.733   4.967  0.00  0.00     0.010 C 
BRANCH  36  38
ATOM     38  C   UNL d   1      34.491 -21.873   5.278  0.00  0.00     0.013 C 
BRANCH  38  39
ATOM     39  C   UNL d   1      33.882 -22.178   6.685  0.00  0.00    -0.051 C 
ATOM     40  C   UNL d   1      32.363 -21.950   6.674  0.00  0.00     0.014 C 
ATOM     41  C   UNL d   1      34.184 -23.595   7.195  0.00  0.00     0.014 C 
ATOM     42  C   UNL d   1      34.503 -21.225   7.715  0.00  0.00     0.014 C 
ENDBRANCH  38  39
ENDBRANCH  36  38
ENDBRANCH  35  36
ENDBRANCH  32  35
ENDBRANCH   5  31
TORSDOF 15
ENDMDL
MODEL 5
REMARK VINA RESULT:   -11.052      1.373      6.309
REMARK INTER + INTRA:         -17.327
REMARK INTER:                 -15.527
REMARK INTRA:                  -1.800
REMARK CONF_INDEPENDENT:        4.474
REMARK UNBOUND:                -1.800
REMARK  15 active torsions:
REMARK  status: ('A' for Active; 'I' for Inactive)
REMARK    1  A    between atoms: C_2  and  C_35 
REMARK    2  A    between atoms: C_2  and  C_3 
REMARK    3  A    between atoms: C_3  and  C_4 
REMARK       I    between atoms: C_4  and  N_6 
REMARK    4  A    between atoms: N_6  and  C_7 
REMARK    5  A    between atoms: C_9  and  N_10 
REMARK       I    between atoms: N_10  and  C_11 
REMARK    6  A    between atoms: C_11  and  C_13 
REMARK    7  A    between atoms: C_13  and  C_14 
REMARK    8  A    between atoms: C_14  and  C_16 
REMARK    9  A    between atoms: C_16  and  C_17 
REMARK   10  A    between atoms: C_22  and  N_23 
REMARK       I    between atoms: N_23  and  C_24 
REMARK   11  A    between atoms: C_24  and  C_26 
REMARK   12  A    between atoms: C_27  and  C_26 
REMARK   13  A    between atoms: C_27  and  C_29 
REMARK   14  A    between atoms: C_29  and  C_30 
REMARK   15  A    between atoms: C_35  and  C_36 
ROOT
ATOM      1  C   UNL d   1      30.830 -16.607   0.527  0.00  0.00     0.760 A 
ATOM      2  N   UNL d   1      30.823 -15.529   1.295  0.00  0.00     0.132 NA
ATOM      3  C   UNL d   1      31.575 -15.505   2.376  0.00  0.00     0.760 A 
ATOM      4  N   UNL d   1      32.310 -16.554   2.749  0.00  0.00     0.132 NA
ATOM      5  C   UNL d   1      32.280 -17.579   1.875  0.00  0.00     0.760 A 
ATOM      6  N   UNL d   1      31.525 -17.671   0.802  0.00  0.00     0.132 NA
ENDROOT
BRANCH   1   7
ATOM      7  N   UNL d   1      30.071 -16.671  -0.653  0.00  0.00    -0.155 N 
ATOM      8  C   UNL d   1      28.748 -16.373  -0.490  0.00  0.00     0.236 C 
ATOM      9  O   UNL d   1      28.375 -16.110   0.631  0.00  0.00    -0.273 OA
ATOM     10  H   UNL d   1      30.545 -16.408  -1.496  0.00  0.00     0.187 HD
BRANCH   8  11
ATOM     11  C   UNL d   1      27.826 -16.334  -1.736  0.00  0.00     0.108 C 
BRANCH  11  12
ATOM     12  C   UNL d   1      26.324 -16.015  -1.410  0.00  0.00    -0.009 C 
ATOM     13  C   UNL d   1      25.950 -14.620  -1.874  0.00  0.00     0.010 C 
BRANCH  12  14
ATOM     14  C   UNL d   1      25.333 -17.073  -1.971  0.00  0.00     0.013 C 
BRANCH  14  15
ATOM     15  C   UNL d   1      24.220 -17.546  -0.972  0.00  0.00    -0.051 C 
ATOM     16  C   UNL d   1      23.400 -16.325  -0.521  0.00  0.00     0.014 C 
ATOM     17  C   UNL d   1      23.284 -18.648  -1.514  0.00  0.00     0.014 C 
ATOM     18  C   UNL d   1      24.878 -18.202   0.251  0.00  0.00     0.014 C 
ENDBRANCH  14  15
ENDBRANCH  12  14
ENDBRANCH  11  12
ENDBRANCH   8  11
ENDBRANCH   1   7
BRANCH   3  19
ATOM     19  N   UNL d   1      31.541 -14.348   3.196  0.00  0.00    -0.155 N 
ATOM     20  C   UNL d   1      31.435 -13.082   2.650  0.00  0.00     0.236 C 
ATOM     21  O   UNL d   1      31.496 -12.858   1.445  0.00  0.00    -0.273 OA
ATOM     22  H   UNL d   1      31.681 -14.477   4.183  0.00  0.00     0.187 HD
BRANCH  20  23
ATOM     23  C   UNL d   1      31.271 -11.894   3.620  0.00  0.00     0.108 C 
BRANCH  23  24
ATOM     24  C   UNL d   1      30.539 -12.388   4.903  0.00  0.00    -0.009 C 
ATOM     25  C   UNL d   1      30.923 -11.460   6.065  0.00  0.00     0.010 C 
BRANCH  24  26
ATOM     26  C   UNL d   1      28.995 -12.503   4.743  0.00  0.00     0.013 C 
BRANCH  26  27
ATOM     27  C   UNL d   1      28.434 -13.947   4.484  0.00  0.00    -0.051 C 
ATOM     28  C   UNL d   1      28.334 -14.198   2.969  0.00  0.00     0.014 C 
ATOM     29  C   UNL d   1      29.255 -15.070   5.143  0.00  0.00     0.014 C 
ATOM     30  C   UNL d   1      27.031 -14.074   5.104  0.00  0.00     0.014 C 
ENDBRANCH  26  27
ENDBRANCH  24  26
ENDBRANCH  23  24
ENDBRANCH  20  23
ENDBRANCH   3  19
BRANCH   5  31
ATOM     31  N   UNL d   1      33.123 -18.660   2.127  0.00  0.00    -0.155 N 
ATOM     32  C   UNL d   1      32.951 -19.544   3.176  0.00  0.00     0.236 C 
ATOM     33  O   UNL d   1      32.016 -19.521   3.980  0.00  0.00    -0.273 OA
ATOM     34  H   UNL d   1      33.881 -18.697   1.471  0.00  0.00     0.187 HD
BRANCH  32  35
ATOM     35  C   UNL d   1      33.988 -20.652   3.370  0.00  0.00     0.108 C 
BRANCH  35  36
ATOM     36  C   UNL d   1      34.694 -20.737   4.724  0.00  0.00    -0.009 C 
ATOM     37  C   UNL d   1      36.091 -20.155   4.546  0.00  0.00     0.010 C 
BRANCH  36  38
ATOM     38  C   UNL d   1      34.720 -22.156   5.337  0.00  0.00     0.013 C 
BRANCH  38  39
ATOM     39  C   UNL d   1      34.022 -22.318   6.726  0.00  0.00    -0.051 C 
ATOM     40  C   UNL d   1      32.535 -21.952   6.628  0.00  0.00     0.014 C 
ATOM     41  C   UNL d   1      34.165 -23.724   7.329  0.00  0.00     0.014 C 
ATOM     42  C   UNL d   1      34.686 -21.368   7.732  0.00  0.00     0.014 C 
ENDBRANCH  38  39
ENDBRANCH  36  38
ENDBRANCH  35  36
ENDBRANCH  32  35
ENDBRANCH   5  31
TORSDOF 15
ENDMDL
MODEL 6
REMARK VINA RESULT:   -10.832      1.065      1.501
REMARK INTER + INTRA:         -16.754
REMARK INTER:                 -15.306
REMARK INTRA:                  -1.448
REMARK CONF_INDEPENDENT:        4.474
REMARK UNBOUND:                -1.448
REMARK  15 active torsions:
REMARK  status: ('A' for Active; 'I' for Inactive)
REMARK    1  A    between atoms: C_2  and  C_35 
REMARK    2  A    between atoms: C_2  and  C_3 
REMARK    3  A    between atoms: C_3  and  C_4 
REMARK       I    between atoms: C_4  and  N_6 
REMARK    4  A    between atoms: N_6  and  C_7 
REMARK    5  A    between atoms: C_9  and  N_10 
REMARK       I    between atoms: N_10  and  C_11 
REMARK    6  A    between atoms: C_11  and  C_13 
REMARK    7  A    between atoms: C_13  and  C_14 
REMARK    8  A    between atoms: C_14  and  C_16 
REMARK    9  A    between atoms: C_16  and  C_17 
REMARK   10  A    between atoms: C_22  and  N_23 
REMARK       I    between atoms: N_23  and  C_24 
REMARK   11  A    between atoms: C_24  and  C_26 
REMARK   12  A    between atoms: C_27  and  C_26 
REMARK   13  A    between atoms: C_27  and  C_29 
REMARK   14  A    between atoms: C_29  and  C_30 
REMARK   15  A    between atoms: C_35  and  C_36 
ROOT
ATOM      1  C   UNL d   1      31.462 -15.478   2.486  0.00  0.00     0.760 A 
ATOM      2  N   UNL d   1      30.760 -15.459   1.364  0.00  0.00     0.132 NA
ATOM      3  C   UNL d   1      30.893 -16.450   0.506  0.00  0.00     0.760 A 
ATOM      4  N   UNL d   1      31.749 -17.452   0.709  0.00  0.00     0.132 NA
ATOM      5  C   UNL d   1      32.379 -17.397   1.900  0.00  0.00     0.760 A 
ATOM      6  N   UNL d   1      32.310 -16.419   2.777  0.00  0.00     0.132 NA
ENDROOT
BRANCH   1   7
ATOM      7  N   UNL d   1      31.333 -14.463   3.447  0.00  0.00    -0.155 N 
ATOM      8  C   UNL d   1      30.054 -14.028   3.641  0.00  0.00     0.236 C 
ATOM      9  O   UNL d   1      29.189 -14.539   2.967  0.00  0.00    -0.273 OA
ATOM     10  H   UNL d   1      31.973 -14.503   4.219  0.00  0.00     0.187 HD
BRANCH   8  11
ATOM     11  C   UNL d   1      29.777 -12.964   4.735  0.00  0.00     0.108 C 
BRANCH  11  12
ATOM     12  C   UNL d   1      28.621 -13.348   5.724  0.00  0.00    -0.009 C 
ATOM     13  C   UNL d   1      27.409 -13.864   4.972  0.00  0.00     0.010 C 
BRANCH  12  14
ATOM     14  C   UNL d   1      29.060 -14.352   6.827  0.00  0.00     0.013 C 
BRANCH  14  15
ATOM     15  C   UNL d   1      29.343 -13.720   8.235  0.00  0.00    -0.051 C 
ATOM     16  C   UNL d   1      30.851 -13.444   8.366  0.00  0.00     0.014 C 
ATOM     17  C   UNL d   1      28.537 -12.441   8.548  0.00  0.00     0.014 C 
ATOM     18  C   UNL d   1      28.903 -14.701   9.332  0.00  0.00     0.014 C 
ENDBRANCH  14  15
ENDBRANCH  12  14
ENDBRANCH  11  12
ENDBRANCH   8  11
ENDBRANCH   1   7
BRANCH   3  19
ATOM     19  N   UNL d   1      30.145 -16.403  -0.699  0.00  0.00    -0.155 N 
ATOM     20  C   UNL d   1      29.669 -15.207  -1.204  0.00  0.00     0.236 C 
ATOM     21  O   UNL d   1      29.738 -14.141  -0.599  0.00  0.00    -0.273 OA
ATOM     22  H   UNL d   1      29.903 -17.280  -1.126  0.00  0.00     0.187 HD
BRANCH  20  23
ATOM     23  C   UNL d   1      28.983 -15.235  -2.585  0.00  0.00     0.108 C 
BRANCH  23  24
ATOM     24  C   UNL d   1      27.444 -15.358  -2.381  0.00  0.00    -0.009 C 
ATOM     25  C   UNL d   1      26.757 -15.119  -3.735  0.00  0.00     0.010 C 
BRANCH  24  26
ATOM     26  C   UNL d   1      26.999 -16.704  -1.739  0.00  0.00     0.013 C 
BRANCH  26  27
ATOM     27  C   UNL d   1      26.296 -16.601  -0.338  0.00  0.00    -0.051 C 
ATOM     28  C   UNL d   1      24.774 -16.481  -0.531  0.00  0.00     0.014 C 
ATOM     29  C   UNL d   1      26.608 -17.772   0.611  0.00  0.00     0.014 C 
ATOM     30  C   UNL d   1      26.805 -15.352   0.404  0.00  0.00     0.014 C 
ENDBRANCH  26  27
ENDBRANCH  24  26
ENDBRANCH  23  24
ENDBRANCH  20  23
ENDBRANCH   3  19
BRANCH   5  31
ATOM     31  N   UNL d   1      33.192 -18.475   2.243  0.00  0.00    -0.155 N 
ATOM     32  C   UNL d   1      32.916 -19.351   3.276  0.00  0.00     0.236 C 
ATOM     33  O   UNL d   1      31.904 -19.323   3.982  0.00  0.00    -0.273 OA
ATOM     34  H   UNL d   1      34.012 -18.516   1.667  0.00  0.00     0.187 HD
BRANCH  32  35
ATOM     35  C   UNL d   1      33.928 -20.457   3.582  0.00  0.00     0.108 C 
BRANCH  35  36
ATOM     36  C   UNL d   1      34.528 -20.504   4.987  0.00  0.00    -0.009 C 
ATOM     37  C   UNL d   1      35.785 -19.642   4.974  0.00  0.00     0.010 C 
BRANCH  36  38
ATOM     38  C   UNL d   1      34.798 -21.932   5.515  0.00  0.00     0.013 C 
BRANCH  38  39
ATOM     39  C   UNL d   1      34.202 -22.272   6.919  0.00  0.00    -0.051 C 
ATOM     40  C   UNL d   1      32.701 -21.950   6.958  0.00  0.00     0.014 C 
ATOM     41  C   UNL d   1      34.425 -23.729   7.349  0.00  0.00     0.014 C 
ATOM     42  C   UNL d   1      34.905 -21.415   7.980  0.00  0.00     0.014 C 
ENDBRANCH  38  39
ENDBRANCH  36  38
ENDBRANCH  35  36
ENDBRANCH  32  35
ENDBRANCH   5  31
TORSDOF 15
ENDMDL
MODEL 7
REMARK VINA RESULT:   -10.615      0.911      6.813
REMARK INTER + INTRA:         -16.506
REMARK INTER:                 -15.090
REMARK INTRA:                  -1.416
REMARK CONF_INDEPENDENT:        4.474
REMARK UNBOUND:                -1.416
REMARK  15 active torsions:
REMARK  status: ('A' for Active; 'I' for Inactive)
REMARK    1  A    between atoms: C_2  and  C_35 
REMARK    2  A    between atoms: C_2  and  C_3 
REMARK    3  A    between atoms: C_3  and  C_4 
REMARK       I    between atoms: C_4  and  N_6 
REMARK    4  A    between atoms: N_6  and  C_7 
REMARK    5  A    between atoms: C_9  and  N_10 
REMARK       I    between atoms: N_10  and  C_11 
REMARK    6  A    between atoms: C_11  and  C_13 
REMARK    7  A    between atoms: C_13  and  C_14 
REMARK    8  A    between atoms: C_14  and  C_16 
REMARK    9  A    between atoms: C_16  and  C_17 
REMARK   10  A    between atoms: C_22  and  N_23 
REMARK       I    between atoms: N_23  and  C_24 
REMARK   11  A    between atoms: C_24  and  C_26 
REMARK   12  A    between atoms: C_27  and  C_26 
REMARK   13  A    between atoms: C_27  and  C_29 
REMARK   14  A    between atoms: C_29  and  C_30 
REMARK   15  A    between atoms: C_35  and  C_36 
ROOT
ATOM      1  C   UNL d   1      32.331 -16.896   1.907  0.00  0.00     0.760 A 
ATOM      2  N   UNL d   1      31.543 -17.088   0.861  0.00  0.00     0.132 NA
ATOM      3  C   UNL d   1      30.566 -16.235   0.628  0.00  0.00     0.760 A 
ATOM      4  N   UNL d   1      30.316 -15.207   1.440  0.00  0.00     0.132 NA
ATOM      5  C   UNL d   1      31.204 -15.078   2.446  0.00  0.00     0.760 A 
ATOM      6  N   UNL d   1      32.174 -15.915   2.746  0.00  0.00     0.132 NA
ENDROOT
BRANCH   1   7
ATOM      7  N   UNL d   1      33.406 -17.758   2.181  0.00  0.00    -0.155 N 
ATOM      8  C   UNL d   1      33.136 -18.717   3.115  0.00  0.00     0.236 C 
ATOM      9  O   UNL d   1      32.031 -18.712   3.608  0.00  0.00    -0.273 OA
ATOM     10  H   UNL d   1      34.014 -17.963   1.411  0.00  0.00     0.187 HD
BRANCH   8  11
ATOM     11  C   UNL d   1      34.221 -19.776   3.443  0.00  0.00     0.108 C 
BRANCH  11  12
ATOM     12  C   UNL d   1      33.657 -21.223   3.662  0.00  0.00    -0.009 C 
ATOM     13  C   UNL d   1      33.666 -22.014   2.368  0.00  0.00     0.010 C 
BRANCH  12  14
ATOM     14  C   UNL d   1      34.381 -22.003   4.795  0.00  0.00     0.013 C 
BRANCH  14  15
ATOM     15  C   UNL d   1      33.751 -21.849   6.224  0.00  0.00    -0.051 C 
ATOM     16  C   UNL d   1      34.527 -20.770   6.999  0.00  0.00     0.014 C 
ATOM     17  C   UNL d   1      32.240 -21.533   6.238  0.00  0.00     0.014 C 
ATOM     18  C   UNL d   1      33.847 -23.187   6.971  0.00  0.00     0.014 C 
ENDBRANCH  14  15
ENDBRANCH  12  14
ENDBRANCH  11  12
ENDBRANCH   8  11
ENDBRANCH   1   7
BRANCH   3  19
ATOM     19  N   UNL d   1      29.721 -16.466  -0.487  0.00  0.00    -0.155 N 
ATOM     20  C   UNL d   1      28.349 -16.563  -0.342  0.00  0.00     0.236 C 
ATOM     21  O   UNL d   1      27.783 -16.589   0.748  0.00  0.00    -0.273 OA
ATOM     22  H   UNL d   1      30.162 -16.642  -1.373  0.00  0.00     0.187 HD
BRANCH  20  23
ATOM     23  C   UNL d   1      27.499 -16.683  -1.624  0.00  0.00     0.108 C 
BRANCH  23  24
ATOM     24  C   UNL d   1      26.055 -16.187  -1.319  0.00  0.00    -0.009 C 
ATOM     25  C   UNL d   1      25.913 -14.754  -1.857  0.00  0.00     0.010 C 
BRANCH  24  26
ATOM     26  C   UNL d   1      24.938 -17.121  -1.868  0.00  0.00     0.013 C 
BRANCH  26  27
ATOM     27  C   UNL d   1      23.933 -17.693  -0.805  0.00  0.00    -0.051 C 
ATOM     28  C   UNL d   1      24.710 -18.193   0.425  0.00  0.00     0.014 C 
ATOM     29  C   UNL d   1      22.848 -16.694  -0.362  0.00  0.00     0.014 C 
ATOM     30  C   UNL d   1      23.152 -18.871  -1.414  0.00  0.00     0.014 C 
ENDBRANCH  26  27
ENDBRANCH  24  26
ENDBRANCH  23  24
ENDBRANCH  20  23
ENDBRANCH   3  19
BRANCH   5  31
ATOM     31  N   UNL d   1      31.088 -13.955   3.262  0.00  0.00    -0.155 N 
ATOM     32  C   UNL d   1      30.068 -13.028   3.157  0.00  0.00     0.236 C 
ATOM     33  O   UNL d   1      29.117 -13.102   2.375  0.00  0.00    -0.273 OA
ATOM     34  H   UNL d   1      31.850 -13.891   3.912  0.00  0.00     0.187 HD
BRANCH  32  35
ATOM     35  C   UNL d   1      30.097 -11.808   4.080  0.00  0.00     0.108 C 
BRANCH  35  36
ATOM     36  C   UNL d   1      29.201 -11.831   5.318  0.00  0.00    -0.009 C 
ATOM     37  C   UNL d   1      28.449 -10.506   5.361  0.00  0.00     0.010 C 
BRANCH  36  38
ATOM     38  C   UNL d   1      29.950 -12.126   6.639  0.00  0.00     0.013 C 
BRANCH  38  39
ATOM     39  C   UNL d   1      29.502 -13.407   7.413  0.00  0.00    -0.051 C 
ATOM     40  C   UNL d   1      28.525 -13.041   8.540  0.00  0.00     0.014 C 
ATOM     41  C   UNL d   1      28.870 -14.483   6.516  0.00  0.00     0.014 C 
ATOM     42  C   UNL d   1      30.737 -14.067   8.043  0.00  0.00     0.014 C 
ENDBRANCH  38  39
ENDBRANCH  36  38
ENDBRANCH  35  36
ENDBRANCH  32  35
ENDBRANCH   5  31
TORSDOF 15
ENDMDL
MODEL 8
REMARK VINA RESULT:   -10.373      1.854      8.332
REMARK INTER + INTRA:         -16.752
REMARK INTER:                 -14.847
REMARK INTRA:                  -1.904
REMARK CONF_INDEPENDENT:        4.474
REMARK UNBOUND:                -1.904
REMARK  15 active torsions:
REMARK  status: ('A' for Active; 'I' for Inactive)
REMARK    1  A    between atoms: C_2  and  C_35 
REMARK    2  A    between atoms: C_2  and  C_3 
REMARK    3  A    between atoms: C_3  and  C_4 
REMARK       I    between atoms: C_4  and  N_6 
REMARK    4  A    between atoms: N_6  and  C_7 
REMARK    5  A    between atoms: C_9  and  N_10 
REMARK       I    between atoms: N_10  and  C_11 
REMARK    6  A    between atoms: C_11  and  C_13 
REMARK    7  A    between atoms: C_13  and  C_14 
REMARK    8  A    between atoms: C_14  and  C_16 
REMARK    9  A    between atoms: C_16  and  C_17 
REMARK   10  A    between atoms: C_22  and  N_23 
REMARK       I    between atoms: N_23  and  C_24 
REMARK   11  A    between atoms: C_24  and  C_26 
REMARK   12  A    between atoms: C_27  and  C_26 
REMARK   13  A    between atoms: C_27  and  C_29 
REMARK   14  A    between atoms: C_29  and  C_30 
REMARK   15  A    between atoms: C_35  and  C_36 
ROOT
ATOM      1  C   UNL d   1      32.837 -18.232   2.248  0.00  0.00     0.760 A 
ATOM      2  N   UNL d   1      32.908 -17.058   2.855  0.00  0.00     0.132 NA
ATOM      3  C   UNL d   1      32.258 -16.031   2.346  0.00  0.00     0.760 A 
ATOM      4  N   UNL d   1      31.566 -16.125   1.210  0.00  0.00     0.132 NA
ATOM      5  C   UNL d   1      31.523 -17.371   0.699  0.00  0.00     0.760 A 
ATOM      6  N   UNL d   1      32.177 -18.423   1.145  0.00  0.00     0.132 NA
ENDROOT
BRANCH   1   7
ATOM      7  N   UNL d   1      33.485 -19.364   2.767  0.00  0.00    -0.155 N 
ATOM      8  C   UNL d   1      32.892 -19.895   3.876  0.00  0.00     0.236 C 
ATOM      9  O   UNL d   1      31.905 -19.336   4.296  0.00  0.00    -0.273 OA
ATOM     10  H   UNL d   1      33.926 -19.966   2.096  0.00  0.00     0.187 HD
BRANCH   8  11
ATOM     11  C   UNL d   1      33.473 -21.194   4.493  0.00  0.00     0.108 C 
BRANCH  11  12
ATOM     12  C   UNL d   1      33.002 -21.472   5.963  0.00  0.00    -0.009 C 
ATOM     13  C   UNL d   1      31.490 -21.575   6.041  0.00  0.00     0.010 C 
BRANCH  12  14
ATOM     14  C   UNL d   1      33.678 -22.715   6.605  0.00  0.00     0.013 C 
BRANCH  14  15
ATOM     15  C   UNL d   1      35.076 -22.451   7.267  0.00  0.00    -0.051 C 
ATOM     16  C   UNL d   1      35.280 -23.450   8.420  0.00  0.00     0.014 C 
ATOM     17  C   UNL d   1      36.276 -22.504   6.297  0.00  0.00     0.014 C 
ATOM     18  C   UNL d   1      35.118 -21.018   7.816  0.00  0.00     0.014 C 
ENDBRANCH  14  15
ENDBRANCH  12  14
ENDBRANCH  11  12
ENDBRANCH   8  11
ENDBRANCH   1   7
BRANCH   3  19
ATOM     19  N   UNL d   1      32.360 -14.777   3.001  0.00  0.00    -0.155 N 
ATOM     20  C   UNL d   1      31.966 -13.606   2.379  0.00  0.00     0.236 C 
ATOM     21  O   UNL d   1      31.631 -13.546   1.199  0.00  0.00    -0.273 OA
ATOM     22  H   UNL d   1      32.809 -14.760   3.900  0.00  0.00     0.187 HD
BRANCH  20  23
ATOM     23  C   UNL d   1      31.988 -12.308   3.213  0.00  0.00     0.108 C 
BRANCH  23  24
ATOM     24  C   UNL d   1      30.865 -12.381   4.288  0.00  0.00    -0.009 C 
ATOM     25  C   UNL d   1      30.355 -10.955   4.550  0.00  0.00     0.010 C 
BRANCH  24  26
ATOM     26  C   UNL d   1      29.703 -13.349   3.923  0.00  0.00     0.013 C 
BRANCH  26  27
ATOM     27  C   UNL d   1      28.851 -13.890   5.126  0.00  0.00    -0.051 C 
ATOM     28  C   UNL d   1      28.155 -15.200   4.719  0.00  0.00     0.014 C 
ATOM     29  C   UNL d   1      29.657 -14.112   6.419  0.00  0.00     0.014 C 
ATOM     30  C   UNL d   1      27.780 -12.853   5.508  0.00  0.00     0.014 C 
ENDBRANCH  26  27
ENDBRANCH  24  26
ENDBRANCH  23  24
ENDBRANCH  20  23
ENDBRANCH   3  19
BRANCH   5  31
ATOM     31  N   UNL d   1      30.713 -17.578  -0.415  0.00  0.00    -0.155 N 
ATOM     32  C   UNL d   1      30.818 -16.856  -1.590  0.00  0.00     0.236 C 
ATOM     33  O   UNL d   1      31.662 -15.986  -1.816  0.00  0.00    -0.273 OA
ATOM     34  H   UNL d   1      30.031 -18.294  -0.248  0.00  0.00     0.187 HD
BRANCH  32  35
ATOM     35  C   UNL d   1      29.823 -17.149  -2.714  0.00  0.00     0.108 C 
BRANCH  35  36
ATOM     36  C   UNL d   1      28.520 -16.350  -2.738  0.00  0.00    -0.009 C 
ATOM     37  C   UNL d   1      28.510 -15.533  -4.024  0.00  0.00     0.010 C 
BRANCH  36  38
ATOM     38  C   UNL d   1      28.289 -15.476  -1.483  0.00  0.00     0.013 C 
BRANCH  38  39
ATOM     39  C   UNL d   1      27.179 -15.965  -0.498  0.00  0.00    -0.051 C 
ATOM     40  C   UNL d   1      27.140 -15.076   0.753  0.00  0.00     0.014 C 
ATOM     41  C   UNL d   1      25.779 -16.029  -1.126  0.00  0.00     0.014 C 
ATOM     42  C   UNL d   1      27.501 -17.400  -0.057  0.00  0.00     0.014 C 
ENDBRANCH  38  39
ENDBRANCH  36  38
ENDBRANCH  35  36
ENDBRANCH  32  35
ENDBRANCH   5  31
TORSDOF 15
ENDMDL
MODEL 9
REMARK VINA RESULT:    -9.936      1.328      8.585
REMARK INTER + INTRA:         -16.430
REMARK INTER:                 -14.410
REMARK INTRA:                  -2.019
REMARK CONF_INDEPENDENT:        4.474
REMARK UNBOUND:                -2.019
REMARK  15 active torsions:
REMARK  status: ('A' for Active; 'I' for Inactive)
REMARK    1  A    between atoms: C_2  and  C_35 
REMARK    2  A    between atoms: C_2  and  C_3 
REMARK    3  A    between atoms: C_3  and  C_4 
REMARK       I    between atoms: C_4  and  N_6 
REMARK    4  A    between atoms: N_6  and  C_7 
REMARK    5  A    between atoms: C_9  and  N_10 
REMARK       I    between atoms: N_10  and  C_11 
REMARK    6  A    between atoms: C_11  and  C_13 
REMARK    7  A    between atoms: C_13  and  C_14 
REMARK    8  A    between atoms: C_14  and  C_16 
REMARK    9  A    between atoms: C_16  and  C_17 
REMARK   10  A    between atoms: C_22  and  N_23 
REMARK       I    between atoms: N_23  and  C_24 
REMARK   11  A    between atoms: C_24  and  C_26 
REMARK   12  A    between atoms: C_27  and  C_26 
REMARK   13  A    between atoms: C_27  and  C_29 
REMARK   14  A    between atoms: C_29  and  C_30 
REMARK   15  A    between atoms: C_35  and  C_36 
ROOT
ATOM      1  C   UNL d   1      31.393 -15.045   2.764  0.00  0.00     0.760 A 
ATOM      2  N   UNL d   1      32.343 -15.942   2.973  0.00  0.00     0.132 NA
ATOM      3  C   UNL d   1      32.486 -16.937   2.121  0.00  0.00     0.760 A 
ATOM      4  N   UNL d   1      31.672 -17.096   1.077  0.00  0.00     0.132 NA
ATOM      5  C   UNL d   1      30.770 -16.105   0.933  0.00  0.00     0.760 A 
ATOM      6  N   UNL d   1      30.561 -15.109   1.767  0.00  0.00     0.132 NA
ENDROOT
BRANCH   1   7
ATOM      7  N   UNL d   1      31.220 -13.948   3.624  0.00  0.00    -0.155 N 
ATOM      8  C   UNL d   1      30.103 -14.016   4.408  0.00  0.00     0.236 C 
ATOM      9  O   UNL d   1      29.388 -14.982   4.268  0.00  0.00    -0.273 OA
ATOM     10  H   UNL d   1      32.059 -13.531   3.980  0.00  0.00     0.187 HD
BRANCH   8  11
ATOM     11  C   UNL d   1      29.848 -12.900   5.454  0.00  0.00     0.108 C 
BRANCH  11  12
ATOM     12  C   UNL d   1      28.351 -12.436   5.542  0.00  0.00    -0.009 C 
ATOM     13  C   UNL d   1      27.987 -12.036   6.959  0.00  0.00     0.010 C 
BRANCH  12  14
ATOM     14  C   UNL d   1      27.995 -11.306   4.536  0.00  0.00     0.013 C 
BRANCH  14  15
ATOM     15  C   UNL d   1      27.643 -11.786   3.084  0.00  0.00    -0.051 C 
ATOM     16  C   UNL d   1      26.628 -10.810   2.466  0.00  0.00     0.014 C 
ATOM     17  C   UNL d   1      28.856 -11.961   2.145  0.00  0.00     0.014 C 
ATOM     18  C   UNL d   1      27.031 -13.193   3.146  0.00  0.00     0.014 C 
ENDBRANCH  14  15
ENDBRANCH  12  14
ENDBRANCH  11  12
ENDBRANCH   8  11
ENDBRANCH   1   7
BRANCH   3  19
ATOM     19  N   UNL d   1      33.499 -17.898   2.371  0.00  0.00    -0.155 N 
ATOM     20  C   UNL d   1      33.287 -18.960   3.231  0.00  0.00     0.236 C 
ATOM     21  O   UNL d   1      32.283 -19.076   3.928  0.00  0.00    -0.273 OA
ATOM     22  H   UNL d   1      34.404 -17.732   1.965  0.00  0.00     0.187 HD
BRANCH  20  23
ATOM     23  C   UNL d   1      34.395 -20.027   3.340  0.00  0.00     0.108 C 
BRANCH  23  24
ATOM     24  C   UNL d   1      33.747 -21.388   3.733  0.00  0.00    -0.009 C 
ATOM     25  C   UNL d   1      33.599 -22.237   2.461  0.00  0.00     0.010 C 
BRANCH  24  26
ATOM     26  C   UNL d   1      34.515 -22.152   4.850  0.00  0.00     0.013 C 
BRANCH  26  27
ATOM     27  C   UNL d   1      33.937 -22.012   6.304  0.00  0.00    -0.051 C 
ATOM     28  C   UNL d   1      34.158 -23.323   7.076  0.00  0.00     0.014 C 
ATOM     29  C   UNL d   1      34.524 -20.834   7.103  0.00  0.00     0.014 C 
ATOM     30  C   UNL d   1      32.427 -21.722   6.234  0.00  0.00     0.014 C 
ENDBRANCH  26  27
ENDBRANCH  24  26
ENDBRANCH  23  24
ENDBRANCH  20  23
ENDBRANCH   3  19
BRANCH   5  31
ATOM     31  N   UNL d   1      29.968 -16.130  -0.206  0.00  0.00    -0.155 N 
ATOM     32  C   UNL d   1      28.716 -15.549  -0.280  0.00  0.00     0.236 C 
ATOM     33  O   UNL d   1      28.178 -14.900   0.620  0.00  0.00    -0.273 OA
ATOM     34  H   UNL d   1      30.400 -16.645  -0.950  0.00  0.00     0.187 HD
BRANCH  32  35
ATOM     35  C   UNL d   1      27.918 -15.705  -1.577  0.00  0.00     0.108 C 
BRANCH  35  36
ATOM     36  C   UNL d   1      26.491 -15.156  -1.604  0.00  0.00    -0.009 C 
ATOM     37  C   UNL d   1      26.588 -13.636  -1.619  0.00  0.00     0.010 C 
BRANCH  36  38
ATOM     38  C   UNL d   1      25.589 -15.678  -0.462  0.00  0.00     0.013 C 
BRANCH  38  39
ATOM     39  C   UNL d   1      24.692 -16.912  -0.802  0.00  0.00    -0.051 C 
ATOM     40  C   UNL d   1      25.183 -18.157  -0.049  0.00  0.00     0.014 C 
ATOM     41  C   UNL d   1      23.200 -16.692  -0.511  0.00  0.00     0.014 C 
ATOM     42  C   UNL d   1      24.783 -17.195  -2.308  0.00  0.00     0.014 C 
ENDBRANCH  38  39
ENDBRANCH  36  38
ENDBRANCH  35  36
ENDBRANCH  32  35
ENDBRANCH   5  31
TORSDOF 15
ENDMDL
