MODEL 1
REMARK VINA RESULT:   -10.225      0.000      0.000
REMARK INTER + INTRA:         -14.954
REMARK INTER:                 -13.208
REMARK INTRA:                  -1.747
REMARK CONF_INDEPENDENT:        2.983
REMARK UNBOUND:                -1.747
REMARK  10 active torsions:
REMARK  status: ('A' for Active; 'I' for Inactive)
REMARK    1  A    between atoms: C_9  and  N_10 
REMARK       I    between atoms: N_10  and  C_11 
REMARK    2  A    between atoms: C_11  and  C_13 
REMARK    3  A    between atoms: C_13  and  C_14 
REMARK    4  A    between atoms: C_13  and  N_21 
REMARK    5  A    between atoms: C_14  and  C_15 
REMARK    6  A    between atoms: C_15  and  C_16 
REMARK    7  A    between atoms: C_16  and  N_17 
REMARK       I    between atoms: N_17  and  C_18 
REMARK       I    between atoms: C_18  and  N_19 
REMARK       I    between atoms: N_21  and  C_22 
REMARK    8  A    between atoms: C_22  and  O_24 
REMARK    9  A    between atoms: O_24  and  C_25 
REMARK   10  A    between atoms: C_25  and  C_26 
ROOT
ATOM      1  C   UNL d   1      25.126 -16.950  -1.845  0.00  0.00     0.179 C 
ENDROOT
BRANCH   1   2
ATOM      2  C   UNL d   1      25.236 -15.688  -2.756  0.00  0.00     0.245 C 
ATOM      3  N   UNL d   1      26.379 -15.554  -3.569  0.00  0.00    -0.325 N 
ATOM      4  H   UNL d   1      27.026 -16.325  -3.652  0.00  0.00     0.169 HD
ATOM      5  O   UNL d   1      24.324 -14.862  -2.679  0.00  0.00    -0.271 OA
BRANCH   3   6
ATOM      6  C   UNL d   1      26.712 -14.410  -4.354  0.00  0.00     0.037 A 
ATOM      7  C   UNL d   1      26.060 -13.207  -4.148  0.00  0.00     0.067 A 
ATOM      8  C   UNL d   1      26.318 -12.100  -4.939  0.00  0.00     0.092 A 
ATOM      9  O   UNL d   1      25.531 -10.983  -4.623  0.00  0.00    -0.275 OA
ATOM     10  C   UNL d   1      27.259 -12.107  -5.955  0.00  0.00     0.004 A 
ATOM     11  C   UNL d   1      25.668  -9.808  -5.319  0.00  0.00     0.288 A 
ATOM     12  C   UNL d   1      26.687  -9.796  -6.380  0.00  0.00     0.090 A 
ATOM     13  O   UNL d   1      24.991  -8.820  -5.071  0.00  0.00    -0.260 OA
ATOM     14  C   UNL d   1      27.443 -10.857  -6.706  0.00  0.00    -0.043 A 
ATOM     15  C   UNL d   1      28.462 -10.777  -7.798  0.00  0.00     0.049 C 
ATOM     16  C   UNL d   1      27.955 -13.306  -6.165  0.00  0.00     0.017 A 
ATOM     17  C   UNL d   1      27.685 -14.452  -5.371  0.00  0.00     0.030 A 
ENDBRANCH   3   6
ENDBRANCH   1   2
BRANCH   1  18
ATOM     18  C   UNL d   1      26.125 -16.886  -0.680  0.00  0.00     0.037 C 
BRANCH  18  19
ATOM     19  C   UNL d   1      26.295 -15.494  -0.100  0.00  0.00     0.023 C 
BRANCH  19  20
ATOM     20  C   UNL d   1      27.714 -15.002  -0.247  0.00  0.00     0.138 C 
BRANCH  20  21
ATOM     21  N   UNL d   1      28.652 -16.030   0.211  0.00  0.00    -0.227 N 
ATOM     22  C   UNL d   1      29.516 -16.631  -0.618  0.00  0.00     0.665 C 
ATOM     23  N   UNL d   1      29.557 -16.324  -1.916  0.00  0.00    -0.235 N 
ATOM     24  N   UNL d   1      30.353 -17.555  -0.143  0.00  0.00    -0.235 N 
ATOM     25  H   UNL d   1      28.934 -15.632  -2.313  0.00  0.00     0.174 HD
ATOM     26  H   UNL d   1      30.208 -16.763  -2.551  0.00  0.00     0.174 HD
ATOM     27  H   UNL d   1      30.363 -17.824   0.832  0.00  0.00     0.174 HD
ATOM     28  H   UNL d   1      31.020 -18.014  -0.750  0.00  0.00     0.174 HD
ATOM     29  H   UNL d   1      28.658 -16.312   1.184  0.00  0.00     0.177 HD
ENDBRANCH  20  21
ENDBRANCH  19  20
ENDBRANCH  18  19
ENDBRANCH   1  18
BRANCH   1  30
ATOM     30  N   UNL d   1      23.751 -17.041  -1.287  0.00  0.00    -0.324 N 
ATOM     31  C   UNL d   1      23.269 -18.138  -0.618  0.00  0.00     0.361 C 
ATOM     32  O   UNL d   1      23.926 -19.162  -0.441  0.00  0.00    -0.238 OA
ATOM     33  H   UNL d   1      23.135 -16.238  -1.413  0.00  0.00     0.165 HD
BRANCH  31  34
ATOM     34  O   UNL d   1      22.012 -17.953  -0.146  0.00  0.00    -0.299 OA
BRANCH  34  35
ATOM     35  C   UNL d   1      20.961 -18.629  -0.893  0.00  0.00     0.219 C 
BRANCH  35  36
ATOM     36  C   UNL d   1      20.024 -19.410   0.015  0.00  0.00    -0.034 A 
ATOM     37  C   UNL d   1      20.293 -19.573   1.388  0.00  0.00     0.009 A 
ATOM     38  C   UNL d   1      19.501 -20.425   2.174  0.00  0.00     0.001 A 
ATOM     39  C   UNL d   1      18.386 -21.052   1.622  0.00  0.00     0.000 A 
ATOM     40  C   UNL d   1      18.089 -20.868   0.275  0.00  0.00     0.001 A 
ATOM     41  C   UNL d   1      18.907 -20.064  -0.519  0.00  0.00     0.009 A 
ENDBRANCH  35  36
ENDBRANCH  34  35
ENDBRANCH  31  34
ENDBRANCH   1  30
TORSDOF 10
ENDMDL
MODEL 2
REMARK VINA RESULT:   -10.134      1.677      2.426
REMARK INTER + INTRA:         -14.690
REMARK INTER:                 -13.117
REMARK INTRA:                  -1.573
REMARK CONF_INDEPENDENT:        2.983
REMARK UNBOUND:                -1.573
REMARK  10 active torsions:
REMARK  status: ('A' for Active; 'I' for Inactive)
REMARK    1  A    between atoms: C_9  and  N_10 
REMARK       I    between atoms: N_10  and  C_11 
REMARK    2  A    between atoms: C_11  and  C_13 
REMARK    3  A    between atoms: C_13  and  C_14 
REMARK    4  A    between atoms: C_13  and  N_21 
REMARK    5  A    between atoms: C_14  and  C_15 
REMARK    6  A    between atoms: C_15  and  C_16 
REMARK    7  A    between atoms: C_16  and  N_17 
REMARK       I    between atoms: N_17  and  C_18 
REMARK       I    between atoms: C_18  and  N_19 
REMARK       I    between atoms: N_21  and  C_22 
REMARK    8  A    between atoms: C_22  and  O_24 
REMARK    9  A    between atoms: O_24  and  C_25 
REMARK   10  A    between atoms: C_25  and  C_26 
ROOT
ATOM      1  C   UNL d   1      25.109 -16.883  -1.717  0.00  0.00     0.179 C 
ENDROOT
BRANCH   1   2
ATOM      2  C   UNL d   1      25.163 -15.688  -2.720  0.00  0.00     0.245 C 
ATOM      3  N   UNL d   1      26.294 -15.571  -3.553  0.00  0.00    -0.325 N 
ATOM      4  H   UNL d   1      26.970 -16.321  -3.585  0.00  0.00     0.169 HD
ATOM      5  O   UNL d   1      24.221 -14.894  -2.694  0.00  0.00    -0.271 OA
BRANCH   3   6
ATOM      6  C   UNL d   1      26.576 -14.477  -4.424  0.00  0.00     0.037 A 
ATOM      7  C   UNL d   1      27.595 -14.570  -5.355  0.00  0.00     0.067 A 
ATOM      8  C   UNL d   1      27.930 -13.500  -6.168  0.00  0.00     0.092 A 
ATOM      9  O   UNL d   1      29.019 -13.753  -7.016  0.00  0.00    -0.275 OA
ATOM     10  C   UNL d   1      27.257 -12.290  -6.133  0.00  0.00     0.004 A 
ATOM     11  C   UNL d   1      29.474 -12.790  -7.882  0.00  0.00     0.288 A 
ATOM     12  C   UNL d   1      28.745 -11.512  -7.874  0.00  0.00     0.090 A 
ATOM     13  O   UNL d   1      30.425 -12.979  -8.627  0.00  0.00    -0.260 OA
ATOM     14  C   UNL d   1      27.707 -11.246  -7.063  0.00  0.00    -0.043 A 
ATOM     15  C   UNL d   1      27.010  -9.923  -7.105  0.00  0.00     0.049 C 
ATOM     16  C   UNL d   1      26.200 -12.181  -5.218  0.00  0.00     0.017 A 
ATOM     17  C   UNL d   1      25.859 -13.266  -4.367  0.00  0.00     0.030 A 
ENDBRANCH   3   6
ENDBRANCH   1   2
BRANCH   1  18
ATOM     18  C   UNL d   1      26.068 -16.664  -0.538  0.00  0.00     0.037 C 
BRANCH  18  19
ATOM     19  C   UNL d   1      27.423 -17.321  -0.724  0.00  0.00     0.023 C 
BRANCH  19  20
ATOM     20  C   UNL d   1      28.532 -16.299  -0.767  0.00  0.00     0.138 C 
BRANCH  20  21
ATOM     21  N   UNL d   1      28.958 -15.963   0.594  0.00  0.00    -0.227 N 
ATOM     22  C   UNL d   1      28.488 -14.891   1.246  0.00  0.00     0.665 C 
ATOM     23  N   UNL d   1      27.608 -14.065   0.677  0.00  0.00    -0.235 N 
ATOM     24  N   UNL d   1      28.906 -14.638   2.488  0.00  0.00    -0.235 N 
ATOM     25  H   UNL d   1      27.272 -14.221  -0.265  0.00  0.00     0.174 HD
ATOM     26  H   UNL d   1      27.240 -13.258   1.160  0.00  0.00     0.174 HD
ATOM     27  H   UNL d   1      29.571 -15.232   2.965  0.00  0.00     0.174 HD
ATOM     28  H   UNL d   1      28.556 -13.839   3.002  0.00  0.00     0.174 HD
ATOM     29  H   UNL d   1      29.633 -16.547   1.072  0.00  0.00     0.177 HD
ENDBRANCH  20  21
ENDBRANCH  19  20
ENDBRANCH  18  19
ENDBRANCH   1  18
BRANCH   1  30
ATOM     30  N   UNL d   1      23.727 -17.023  -1.187  0.00  0.00    -0.324 N 
ATOM     31  C   UNL d   1      23.330 -18.034  -0.348  0.00  0.00     0.361 C 
ATOM     32  O   UNL d   1      24.079 -18.935   0.023  0.00  0.00    -0.238 OA
ATOM     33  H   UNL d   1      23.039 -16.325  -1.468  0.00  0.00     0.165 HD
BRANCH  31  34
ATOM     34  O   UNL d   1      22.041 -17.906   0.052  0.00  0.00    -0.299 OA
BRANCH  34  35
ATOM     35  C   UNL d   1      21.065 -18.619  -0.759  0.00  0.00     0.219 C 
BRANCH  35  36
ATOM     36  C   UNL d   1      20.083 -19.412   0.091  0.00  0.00    -0.034 A 
ATOM     37  C   UNL d   1      20.272 -19.576   1.477  0.00  0.00     0.009 A 
ATOM     38  C   UNL d   1      19.444 -20.437   2.213  0.00  0.00     0.001 A 
ATOM     39  C   UNL d   1      18.371 -21.074   1.594  0.00  0.00     0.000 A 
ATOM     40  C   UNL d   1      18.152 -20.890   0.233  0.00  0.00     0.001 A 
ATOM     41  C   UNL d   1      19.007 -20.076  -0.510  0.00  0.00     0.009 A 
ENDBRANCH  35  36
ENDBRANCH  34  35
ENDBRANCH  31  34
ENDBRANCH   1  30
TORSDOF 10
ENDMDL
MODEL 3
REMARK VINA RESULT:   -10.079      1.924      2.725
REMARK INTER + INTRA:         -15.103
REMARK INTER:                 -13.062
REMARK INTRA:                  -2.040
REMARK CONF_INDEPENDENT:        2.983
REMARK UNBOUND:                -2.040
REMARK  10 active torsions:
REMARK  status: ('A' for Active; 'I' for Inactive)
REMARK    1  A    between atoms: C_9  and  N_10 
REMARK       I    between atoms: N_10  and  C_11 
REMARK    2  A    between atoms: C_11  and  C_13 
REMARK    3  A    between atoms: C_13  and  C_14 
REMARK    4  A    between atoms: C_13  and  N_21 
REMARK    5  A    between atoms: C_14  and  C_15 
REMARK    6  A    between atoms: C_15  and  C_16 
REMARK    7  A    between atoms: C_16  and  N_17 
REMARK       I    between atoms: N_17  and  C_18 
REMARK       I    between atoms: C_18  and  N_19 
REMARK       I    between atoms: N_21  and  C_22 
REMARK    8  A    between atoms: C_22  and  O_24 
REMARK    9  A    between atoms: O_24  and  C_25 
REMARK   10  A    between atoms: C_25  and  C_26 
ROOT
ATOM      1  C   UNL d   1      24.963 -17.651  -0.683  0.00  0.00     0.179 C 
ENDROOT
BRANCH   1   2
ATOM      2  C   UNL d   1      25.420 -16.371  -1.449  0.00  0.00     0.245 C 
ATOM      3  N   UNL d   1      25.280 -16.351  -2.851  0.00  0.00    -0.325 N 
ATOM      4  H   UNL d   1      24.769 -17.090  -3.312  0.00  0.00     0.169 HD
ATOM      5  O   UNL d   1      25.914 -15.463  -0.777  0.00  0.00    -0.271 OA
BRANCH   3   6
ATOM      6  C   UNL d   1      25.767 -15.331  -3.721  0.00  0.00     0.037 A 
ATOM      7  C   UNL d   1      26.863 -15.568  -4.532  0.00  0.00     0.067 A 
ATOM      8  C   UNL d   1      27.395 -14.576  -5.338  0.00  0.00     0.092 A 
ATOM      9  O   UNL d   1      28.533 -14.976  -6.052  0.00  0.00    -0.275 OA
ATOM     10  C   UNL d   1      26.854 -13.302  -5.416  0.00  0.00     0.004 A 
ATOM     11  C   UNL d   1      29.177 -14.103  -6.894  0.00  0.00     0.288 A 
ATOM     12  C   UNL d   1      28.592 -12.758  -7.008  0.00  0.00     0.090 A 
ATOM     13  O   UNL d   1      30.176 -14.421  -7.524  0.00  0.00    -0.260 OA
ATOM     14  C   UNL d   1      27.509 -12.351  -6.324  0.00  0.00    -0.043 A 
ATOM     15  C   UNL d   1      26.965 -10.967  -6.486  0.00  0.00     0.049 C 
ATOM     16  C   UNL d   1      25.724 -13.046  -4.626  0.00  0.00     0.017 A 
ATOM     17  C   UNL d   1      25.182 -14.051  -3.783  0.00  0.00     0.030 A 
ENDBRANCH   3   6
ENDBRANCH   1   2
BRANCH   1  18
ATOM     18  C   UNL d   1      25.794 -17.866   0.591  0.00  0.00     0.037 C 
BRANCH  18  19
ATOM     19  C   UNL d   1      27.259 -18.156   0.320  0.00  0.00     0.023 C 
BRANCH  19  20
ATOM     20  C   UNL d   1      28.085 -16.893   0.335  0.00  0.00     0.138 C 
BRANCH  20  21
ATOM     21  N   UNL d   1      28.454 -16.519  -1.033  0.00  0.00    -0.227 N 
ATOM     22  C   UNL d   1      29.493 -17.075  -1.671  0.00  0.00     0.665 C 
ATOM     23  N   UNL d   1      30.254 -17.998  -1.081  0.00  0.00    -0.235 N 
ATOM     24  N   UNL d   1      29.778 -16.701  -2.920  0.00  0.00    -0.235 N 
ATOM     25  H   UNL d   1      30.072 -18.304  -0.133  0.00  0.00     0.174 HD
ATOM     26  H   UNL d   1      31.036 -18.431  -1.553  0.00  0.00     0.174 HD
ATOM     27  H   UNL d   1      29.233 -16.005  -3.412  0.00  0.00     0.174 HD
ATOM     28  H   UNL d   1      30.552 -17.115  -3.423  0.00  0.00     0.174 HD
ATOM     29  H   UNL d   1      27.920 -15.815  -1.527  0.00  0.00     0.177 HD
ENDBRANCH  20  21
ENDBRANCH  19  20
ENDBRANCH  18  19
ENDBRANCH   1  18
BRANCH   1  30
ATOM     30  N   UNL d   1      23.533 -17.515  -0.300  0.00  0.00    -0.324 N 
ATOM     31  C   UNL d   1      22.526 -18.289  -0.820  0.00  0.00     0.361 C 
ATOM     32  O   UNL d   1      22.713 -19.154  -1.674  0.00  0.00    -0.238 OA
ATOM     33  H   UNL d   1      23.293 -16.802   0.388  0.00  0.00     0.165 HD
BRANCH  31  34
ATOM     34  O   UNL d   1      21.319 -18.022  -0.263  0.00  0.00    -0.299 OA
BRANCH  34  35
ATOM     35  C   UNL d   1      20.179 -18.642  -0.923  0.00  0.00     0.219 C 
BRANCH  35  36
ATOM     36  C   UNL d   1      19.471 -19.642  -0.022  0.00  0.00    -0.034 A 
ATOM     37  C   UNL d   1      18.419 -20.449  -0.499  0.00  0.00     0.009 A 
ATOM     38  C   UNL d   1      17.678 -21.251   0.384  0.00  0.00     0.001 A 
ATOM     39  C   UNL d   1      18.031 -21.321   1.729  0.00  0.00     0.000 A 
ATOM     40  C   UNL d   1      19.091 -20.556   2.204  0.00  0.00     0.001 A 
ATOM     41  C   UNL d   1      19.795 -19.719   1.338  0.00  0.00     0.009 A 
ENDBRANCH  35  36
ENDBRANCH  34  35
ENDBRANCH  31  34
ENDBRANCH   1  30
TORSDOF 10
ENDMDL
MODEL 4
REMARK VINA RESULT:    -9.825      6.118      9.496
REMARK INTER + INTRA:         -15.866
REMARK INTER:                 -12.808
REMARK INTRA:                  -3.058
REMARK CONF_INDEPENDENT:        2.983
REMARK UNBOUND:                -3.058
REMARK  10 active torsions:
REMARK  status: ('A' for Active; 'I' for Inactive)
REMARK    1  A    between atoms: C_9  and  N_10 
REMARK       I    between atoms: N_10  and  C_11 
REMARK    2  A    between atoms: C_11  and  C_13 
REMARK    3  A    between atoms: C_13  and  C_14 
REMARK    4  A    between atoms: C_13  and  N_21 
REMARK    5  A    between atoms: C_14  and  C_15 
REMARK    6  A    between atoms: C_15  and  C_16 
REMARK    7  A    between atoms: C_16  and  N_17 
REMARK       I    between atoms: N_17  and  C_18 
REMARK       I    between atoms: C_18  and  N_19 
REMARK       I    between atoms: N_21  and  C_22 
REMARK    8  A    between atoms: C_22  and  O_24 
REMARK    9  A    between atoms: O_24  and  C_25 
REMARK   10  A    between atoms: C_25  and  C_26 
ROOT
ATOM      1  C   UNL d   1      27.445 -13.837   1.613  0.00  0.00     0.179 C 
ENDROOT
BRANCH   1   2
ATOM      2  C   UNL d   1      27.832 -13.835   3.125  0.00  0.00     0.245 C 
ATOM      3  N   UNL d   1      27.907 -12.593   3.789  0.00  0.00    -0.325 N 
ATOM      4  H   UNL d   1      27.581 -11.758   3.324  0.00  0.00     0.169 HD
ATOM      5  O   UNL d   1      28.087 -14.925   3.639  0.00  0.00    -0.271 OA
BRANCH   3   6
ATOM      6  C   UNL d   1      28.376 -12.390   5.121  0.00  0.00     0.037 A 
ATOM      7  C   UNL d   1      28.494 -13.459   5.991  0.00  0.00     0.067 A 
ATOM      8  C   UNL d   1      28.885 -13.280   7.307  0.00  0.00     0.092 A 
ATOM      9  O   UNL d   1      28.901 -14.464   8.059  0.00  0.00    -0.275 OA
ATOM     10  C   UNL d   1      29.215 -12.040   7.830  0.00  0.00     0.004 A 
ATOM     11  C   UNL d   1      29.266 -14.450   9.383  0.00  0.00     0.288 A 
ATOM     12  C   UNL d   1      29.649 -13.143   9.938  0.00  0.00     0.090 A 
ATOM     13  O   UNL d   1      29.283 -15.466  10.065  0.00  0.00    -0.260 OA
ATOM     14  C   UNL d   1      29.630 -11.997   9.239  0.00  0.00    -0.043 A 
ATOM     15  C   UNL d   1      30.031 -10.699   9.866  0.00  0.00     0.049 C 
ATOM     16  C   UNL d   1      29.133 -10.944   6.959  0.00  0.00     0.017 A 
ATOM     17  C   UNL d   1      28.716 -11.114   5.613  0.00  0.00     0.030 A 
ENDBRANCH   3   6
ENDBRANCH   1   2
BRANCH   1  18
ATOM     18  C   UNL d   1      28.468 -13.058   0.774  0.00  0.00     0.037 C 
BRANCH  18  19
ATOM     19  C   UNL d   1      29.434 -13.947   0.012  0.00  0.00     0.023 C 
BRANCH  19  20
ATOM     20  C   UNL d   1      30.693 -14.204   0.804  0.00  0.00     0.138 C 
BRANCH  20  21
ATOM     21  N   UNL d   1      30.361 -14.826   2.088  0.00  0.00    -0.227 N 
ATOM     22  C   UNL d   1      31.027 -14.541   3.215  0.00  0.00     0.665 C 
ATOM     23  N   UNL d   1      32.042 -13.675   3.218  0.00  0.00    -0.235 N 
ATOM     24  N   UNL d   1      30.675 -15.132   4.358  0.00  0.00    -0.235 N 
ATOM     25  H   UNL d   1      32.341 -13.210   2.370  0.00  0.00     0.174 HD
ATOM     26  H   UNL d   1      32.549 -13.445   4.062  0.00  0.00     0.174 HD
ATOM     27  H   UNL d   1      29.913 -15.796   4.410  0.00  0.00     0.174 HD
ATOM     28  H   UNL d   1      31.159 -14.924   5.222  0.00  0.00     0.174 HD
ATOM     29  H   UNL d   1      29.607 -15.500   2.144  0.00  0.00     0.177 HD
ENDBRANCH  20  21
ENDBRANCH  19  20
ENDBRANCH  18  19
ENDBRANCH   1  18
BRANCH   1  30
ATOM     30  N   UNL d   1      27.391 -15.237   1.118  0.00  0.00    -0.324 N 
ATOM     31  C   UNL d   1      26.750 -15.615  -0.036  0.00  0.00     0.361 C 
ATOM     32  O   UNL d   1      26.137 -14.828  -0.755  0.00  0.00    -0.238 OA
ATOM     33  H   UNL d   1      27.858 -15.954   1.672  0.00  0.00     0.165 HD
BRANCH  31  34
ATOM     34  O   UNL d   1      26.900 -16.934  -0.310  0.00  0.00    -0.299 OA
BRANCH  34  35
ATOM     35  C   UNL d   1      26.024 -17.828   0.434  0.00  0.00     0.219 C 
BRANCH  35  36
ATOM     36  C   UNL d   1      24.603 -17.818  -0.108  0.00  0.00    -0.034 A 
ATOM     37  C   UNL d   1      23.912 -16.613  -0.345  0.00  0.00     0.009 A 
ATOM     38  C   UNL d   1      22.552 -16.628  -0.695  0.00  0.00     0.001 A 
ATOM     39  C   UNL d   1      21.894 -17.838  -0.895  0.00  0.00     0.000 A 
ATOM     40  C   UNL d   1      22.577 -19.034  -0.700  0.00  0.00     0.001 A 
ATOM     41  C   UNL d   1      23.912 -19.021  -0.300  0.00  0.00     0.009 A 
ENDBRANCH  35  36
ENDBRANCH  34  35
ENDBRANCH  31  34
ENDBRANCH   1  30
TORSDOF 10
ENDMDL
MODEL 5
REMARK VINA RESULT:    -9.750      6.416      9.457
REMARK INTER + INTRA:         -15.655
REMARK INTER:                 -12.733
REMARK INTRA:                  -2.921
REMARK CONF_INDEPENDENT:        2.983
REMARK UNBOUND:                -2.921
REMARK  10 active torsions:
REMARK  status: ('A' for Active; 'I' for Inactive)
REMARK    1  A    between atoms: C_9  and  N_10 
REMARK       I    between atoms: N_10  and  C_11 
REMARK    2  A    between atoms: C_11  and  C_13 
REMARK    3  A    between atoms: C_13  and  C_14 
REMARK    4  A    between atoms: C_13  and  N_21 
REMARK    5  A    between atoms: C_14  and  C_15 
REMARK    6  A    between atoms: C_15  and  C_16 
REMARK    7  A    between atoms: C_16  and  N_17 
REMARK       I    between atoms: N_17  and  C_18 
REMARK       I    between atoms: C_18  and  N_19 
REMARK       I    between atoms: N_21  and  C_22 
REMARK    8  A    between atoms: C_22  and  O_24 
REMARK    9  A    between atoms: O_24  and  C_25 
REMARK   10  A    between atoms: C_25  and  C_26 
ROOT
ATOM      1  C   UNL d   1      27.435 -13.887   1.742  0.00  0.00     0.179 C 
ENDROOT
BRANCH   1   2
ATOM      2  C   UNL d   1      27.788 -14.058   3.252  0.00  0.00     0.245 C 
ATOM      3  N   UNL d   1      27.819 -12.904   4.061  0.00  0.00    -0.325 N 
ATOM      4  H   UNL d   1      27.485 -12.025   3.691  0.00  0.00     0.169 HD
ATOM      5  O   UNL d   1      28.055 -15.197   3.639  0.00  0.00    -0.271 OA
BRANCH   3   6
ATOM      6  C   UNL d   1      28.253 -12.851   5.419  0.00  0.00     0.037 A 
ATOM      7  C   UNL d   1      28.483 -11.633   6.033  0.00  0.00     0.067 A 
ATOM      8  C   UNL d   1      28.965 -11.556   7.329  0.00  0.00     0.092 A 
ATOM      9  O   UNL d   1      29.188 -10.245   7.773  0.00  0.00    -0.275 OA
ATOM     10  C   UNL d   1      29.215 -12.677   8.104  0.00  0.00     0.004 A 
ATOM     11  C   UNL d   1      29.667 -10.003   9.037  0.00  0.00     0.288 A 
ATOM     12  C   UNL d   1      29.906 -11.185   9.879  0.00  0.00     0.090 A 
ATOM     13  O   UNL d   1      29.878  -8.870   9.449  0.00  0.00    -0.260 OA
ATOM     14  C   UNL d   1      29.709 -12.449   9.469  0.00  0.00    -0.043 A 
ATOM     15  C   UNL d   1      29.973 -13.608  10.378  0.00  0.00     0.049 C 
ATOM     16  C   UNL d   1      28.961 -13.923   7.515  0.00  0.00     0.017 A 
ATOM     17  C   UNL d   1      28.483 -14.014   6.181  0.00  0.00     0.030 A 
ENDBRANCH   3   6
ENDBRANCH   1   2
BRANCH   1  18
ATOM     18  C   UNL d   1      28.453 -12.986   1.030  0.00  0.00     0.037 C 
BRANCH  18  19
ATOM     19  C   UNL d   1      29.352 -13.730   0.060  0.00  0.00     0.023 C 
BRANCH  19  20
ATOM     20  C   UNL d   1      30.633 -14.176   0.722  0.00  0.00     0.138 C 
BRANCH  20  21
ATOM     21  N   UNL d   1      30.337 -14.815   2.007  0.00  0.00    -0.227 N 
ATOM     22  C   UNL d   1      31.073 -14.590   3.104  0.00  0.00     0.665 C 
ATOM     23  N   UNL d   1      32.127 -13.772   3.074  0.00  0.00    -0.235 N 
ATOM     24  N   UNL d   1      30.753 -15.194   4.250  0.00  0.00    -0.235 N 
ATOM     25  H   UNL d   1      32.404 -13.300   2.223  0.00  0.00     0.174 HD
ATOM     26  H   UNL d   1      32.686 -13.588   3.895  0.00  0.00     0.174 HD
ATOM     27  H   UNL d   1      29.964 -15.823   4.326  0.00  0.00     0.174 HD
ATOM     28  H   UNL d   1      31.289 -15.031   5.092  0.00  0.00     0.174 HD
ATOM     29  H   UNL d   1      29.556 -15.455   2.086  0.00  0.00     0.177 HD
ENDBRANCH  20  21
ENDBRANCH  19  20
ENDBRANCH  18  19
ENDBRANCH   1  18
BRANCH   1  30
ATOM     30  N   UNL d   1      27.433 -15.218   1.080  0.00  0.00    -0.324 N 
ATOM     31  C   UNL d   1      26.849 -15.465  -0.137  0.00  0.00     0.361 C 
ATOM     32  O   UNL d   1      26.247 -14.608  -0.783  0.00  0.00    -0.238 OA
ATOM     33  H   UNL d   1      27.893 -15.988   1.564  0.00  0.00     0.165 HD
BRANCH  31  34
ATOM     34  O   UNL d   1      27.040 -16.738  -0.561  0.00  0.00    -0.299 OA
BRANCH  34  35
ATOM     35  C   UNL d   1      26.327 -17.759   0.194  0.00  0.00     0.219 C 
BRANCH  35  36
ATOM     36  C   UNL d   1      24.837 -17.758  -0.109  0.00  0.00    -0.034 A 
ATOM     37  C   UNL d   1      24.090 -18.952  -0.145  0.00  0.00     0.009 A 
ATOM     38  C   UNL d   1      22.755 -18.946  -0.578  0.00  0.00     0.001 A 
ATOM     39  C   UNL d   1      22.128 -17.744  -0.896  0.00  0.00     0.000 A 
ATOM     40  C   UNL d   1      22.844 -16.554  -0.828  0.00  0.00     0.001 A 
ATOM     41  C   UNL d   1      24.186 -16.565  -0.449  0.00  0.00     0.009 A 
ENDBRANCH  35  36
ENDBRANCH  34  35
ENDBRANCH  31  34
ENDBRANCH   1  30
TORSDOF 10
ENDMDL
MODEL 6
REMARK VINA RESULT:    -9.552      5.304      8.262
REMARK INTER + INTRA:         -15.496
REMARK INTER:                 -12.535
REMARK INTRA:                  -2.961
REMARK CONF_INDEPENDENT:        2.983
REMARK UNBOUND:                -2.961
REMARK  10 active torsions:
REMARK  status: ('A' for Active; 'I' for Inactive)
REMARK    1  A    between atoms: C_9  and  N_10 
REMARK       I    between atoms: N_10  and  C_11 
REMARK    2  A    between atoms: C_11  and  C_13 
REMARK    3  A    between atoms: C_13  and  C_14 
REMARK    4  A    between atoms: C_13  and  N_21 
REMARK    5  A    between atoms: C_14  and  C_15 
REMARK    6  A    between atoms: C_15  and  C_16 
REMARK    7  A    between atoms: C_16  and  N_17 
REMARK       I    between atoms: N_17  and  C_18 
REMARK       I    between atoms: C_18  and  N_19 
REMARK       I    between atoms: N_21  and  C_22 
REMARK    8  A    between atoms: C_22  and  O_24 
REMARK    9  A    between atoms: O_24  and  C_25 
REMARK   10  A    between atoms: C_25  and  C_26 
ROOT
ATOM      1  C   UNL d   1      27.165 -13.998   0.027  0.00  0.00     0.179 C 
ENDROOT
BRANCH   1   2
ATOM      2  C   UNL d   1      27.528 -13.429   1.434  0.00  0.00     0.245 C 
ATOM      3  N   UNL d   1      27.883 -14.342   2.448  0.00  0.00    -0.325 N 
ATOM      4  H   UNL d   1      28.030 -15.314   2.215  0.00  0.00     0.169 HD
ATOM      5  O   UNL d   1      27.444 -12.208   1.583  0.00  0.00    -0.271 OA
BRANCH   3   6
ATOM      6  C   UNL d   1      28.109 -14.016   3.818  0.00  0.00     0.037 A 
ATOM      7  C   UNL d   1      28.218 -12.695   4.214  0.00  0.00     0.067 A 
ATOM      8  C   UNL d   1      28.501 -12.354   5.526  0.00  0.00     0.092 A 
ATOM      9  O   UNL d   1      28.627 -10.973   5.737  0.00  0.00    -0.275 OA
ATOM     10  C   UNL d   1      28.657 -13.297   6.529  0.00  0.00     0.004 A 
ATOM     11  C   UNL d   1      28.908 -10.477   6.986  0.00  0.00     0.288 A 
ATOM     12  C   UNL d   1      29.044 -11.468   8.065  0.00  0.00     0.090 A 
ATOM     13  O   UNL d   1      29.030  -9.279   7.200  0.00  0.00    -0.260 OA
ATOM     14  C   UNL d   1      28.939 -12.795   7.881  0.00  0.00    -0.043 A 
ATOM     15  C   UNL d   1      29.090 -13.749   9.023  0.00  0.00     0.049 C 
ATOM     16  C   UNL d   1      28.521 -14.642   6.159  0.00  0.00     0.017 A 
ATOM     17  C   UNL d   1      28.249 -15.003   4.814  0.00  0.00     0.030 A 
ENDBRANCH   3   6
ENDBRANCH   1   2
BRANCH   1  18
ATOM     18  C   UNL d   1      28.420 -14.193  -0.836  0.00  0.00     0.037 C 
BRANCH  18  19
ATOM     19  C   UNL d   1      29.679 -13.610  -0.220  0.00  0.00     0.023 C 
BRANCH  19  20
ATOM     20  C   UNL d   1      30.721 -14.674   0.021  0.00  0.00     0.138 C 
BRANCH  20  21
ATOM     21  N   UNL d   1      30.600 -15.196   1.384  0.00  0.00    -0.227 N 
ATOM     22  C   UNL d   1      31.225 -14.631   2.425  0.00  0.00     0.665 C 
ATOM     23  N   UNL d   1      32.004 -13.559   2.266  0.00  0.00    -0.235 N 
ATOM     24  N   UNL d   1      31.072 -15.145   3.647  0.00  0.00    -0.235 N 
ATOM     25  H   UNL d   1      32.148 -13.144   1.354  0.00  0.00     0.174 HD
ATOM     26  H   UNL d   1      32.475 -13.118   3.043  0.00  0.00     0.174 HD
ATOM     27  H   UNL d   1      30.492 -15.956   3.822  0.00  0.00     0.174 HD
ATOM     28  H   UNL d   1      31.527 -14.727   4.448  0.00  0.00     0.174 HD
ATOM     29  H   UNL d   1      30.031 -16.015   1.564  0.00  0.00     0.177 HD
ENDBRANCH  20  21
ENDBRANCH  19  20
ENDBRANCH  18  19
ENDBRANCH   1  18
BRANCH   1  30
ATOM     30  N   UNL d   1      26.487 -15.312   0.184  0.00  0.00    -0.324 N 
ATOM     31  C   UNL d   1      27.146 -16.480   0.479  0.00  0.00     0.361 C 
ATOM     32  O   UNL d   1      28.366 -16.550   0.617  0.00  0.00    -0.238 OA
ATOM     33  H   UNL d   1      25.476 -15.341   0.063  0.00  0.00     0.165 HD
BRANCH  31  34
ATOM     34  O   UNL d   1      26.303 -17.530   0.639  0.00  0.00    -0.299 OA
BRANCH  34  35
ATOM     35  C   UNL d   1      25.769 -18.091  -0.593  0.00  0.00     0.219 C 
BRANCH  35  36
ATOM     36  C   UNL d   1      24.248 -18.109  -0.602  0.00  0.00    -0.034 A 
ATOM     37  C   UNL d   1      23.524 -19.315  -0.527  0.00  0.00     0.009 A 
ATOM     38  C   UNL d   1      22.130 -19.322  -0.694  0.00  0.00     0.001 A 
ATOM     39  C   UNL d   1      21.438 -18.124  -0.851  0.00  0.00     0.000 A 
ATOM     40  C   UNL d   1      22.140 -16.923  -0.890  0.00  0.00     0.001 A 
ATOM     41  C   UNL d   1      23.529 -16.920  -0.778  0.00  0.00     0.009 A 
ENDBRANCH  35  36
ENDBRANCH  34  35
ENDBRANCH  31  34
ENDBRANCH   1  30
TORSDOF 10
ENDMDL
MODEL 7
REMARK VINA RESULT:    -8.904      7.014     10.796
REMARK INTER + INTRA:         -14.901
REMARK INTER:                 -11.887
REMARK INTRA:                  -3.014
REMARK CONF_INDEPENDENT:        2.983
REMARK UNBOUND:                -3.014
REMARK  10 active torsions:
REMARK  status: ('A' for Active; 'I' for Inactive)
REMARK    1  A    between atoms: C_9  and  N_10 
REMARK       I    between atoms: N_10  and  C_11 
REMARK    2  A    between atoms: C_11  and  C_13 
REMARK    3  A    between atoms: C_13  and  C_14 
REMARK    4  A    between atoms: C_13  and  N_21 
REMARK    5  A    between atoms: C_14  and  C_15 
REMARK    6  A    between atoms: C_15  and  C_16 
REMARK    7  A    between atoms: C_16  and  N_17 
REMARK       I    between atoms: N_17  and  C_18 
REMARK       I    between atoms: C_18  and  N_19 
REMARK       I    between atoms: N_21  and  C_22 
REMARK    8  A    between atoms: C_22  and  O_24 
REMARK    9  A    between atoms: O_24  and  C_25 
REMARK   10  A    between atoms: C_25  and  C_26 
ROOT
ATOM      1  C   UNL d   1      28.200 -13.706   3.167  0.00  0.00     0.179 C 
ENDROOT
BRANCH   1   2
ATOM      2  C   UNL d   1      28.118 -13.895   4.714  0.00  0.00     0.245 C 
ATOM      3  N   UNL d   1      28.584 -12.849   5.535  0.00  0.00    -0.325 N 
ATOM      4  H   UNL d   1      28.828 -11.960   5.122  0.00  0.00     0.169 HD
ATOM      5  O   UNL d   1      27.679 -14.972   5.123  0.00  0.00    -0.271 OA
BRANCH   3   6
ATOM      6  C   UNL d   1      28.713 -12.902   6.955  0.00  0.00     0.037 A 
ATOM      7  C   UNL d   1      29.388 -13.948   7.557  0.00  0.00     0.067 A 
ATOM      8  C   UNL d   1      29.473 -14.057   8.935  0.00  0.00     0.092 A 
ATOM      9  O   UNL d   1      30.148 -15.206   9.372  0.00  0.00    -0.275 OA
ATOM     10  C   UNL d   1      28.926 -13.120   9.797  0.00  0.00     0.004 A 
ATOM     11  C   UNL d   1      30.313 -15.457  10.712  0.00  0.00     0.288 A 
ATOM     12  C   UNL d   1      29.763 -14.451  11.634  0.00  0.00     0.090 A 
ATOM     13  O   UNL d   1      30.891 -16.453  11.123  0.00  0.00    -0.260 OA
ATOM     14  C   UNL d   1      29.104 -13.350  11.237  0.00  0.00    -0.043 A 
ATOM     15  C   UNL d   1      28.568 -12.367  12.229  0.00  0.00     0.049 C 
ATOM     16  C   UNL d   1      28.262 -12.033   9.210  0.00  0.00     0.017 A 
ATOM     17  C   UNL d   1      28.155 -11.922   7.799  0.00  0.00     0.030 A 
ENDBRANCH   3   6
ENDBRANCH   1   2
BRANCH   1  18
ATOM     18  C   UNL d   1      29.515 -13.027   2.757  0.00  0.00     0.037 C 
BRANCH  18  19
ATOM     19  C   UNL d   1      30.743 -13.889   2.984  0.00  0.00     0.023 C 
BRANCH  19  20
ATOM     20  C   UNL d   1      31.341 -14.355   1.679  0.00  0.00     0.138 C 
BRANCH  20  21
ATOM     21  N   UNL d   1      30.671 -15.578   1.228  0.00  0.00    -0.227 N 
ATOM     22  C   UNL d   1      31.143 -16.321   0.218  0.00  0.00     0.665 C 
ATOM     23  N   UNL d   1      32.252 -15.974  -0.437  0.00  0.00    -0.235 N 
ATOM     24  N   UNL d   1      30.496 -17.430  -0.144  0.00  0.00    -0.235 N 
ATOM     25  H   UNL d   1      32.767 -15.138  -0.194  0.00  0.00     0.174 HD
ATOM     26  H   UNL d   1      32.623 -16.530  -1.195  0.00  0.00     0.174 HD
ATOM     27  H   UNL d   1      29.651 -17.738   0.320  0.00  0.00     0.174 HD
ATOM     28  H   UNL d   1      30.840 -18.011  -0.898  0.00  0.00     0.174 HD
ATOM     29  H   UNL d   1      29.819 -15.884   1.681  0.00  0.00     0.177 HD
ENDBRANCH  20  21
ENDBRANCH  19  20
ENDBRANCH  18  19
ENDBRANCH   1  18
BRANCH   1  30
ATOM     30  N   UNL d   1      28.124 -15.033   2.501  0.00  0.00    -0.324 N 
ATOM     31  C   UNL d   1      27.836 -15.205   1.170  0.00  0.00     0.361 C 
ATOM     32  O   UNL d   1      27.588 -14.271   0.408  0.00  0.00    -0.238 OA
ATOM     33  H   UNL d   1      28.295 -15.860   3.072  0.00  0.00     0.165 HD
BRANCH  31  34
ATOM     34  O   UNL d   1      27.892 -16.503   0.785  0.00  0.00    -0.299 OA
BRANCH  34  35
ATOM     35  C   UNL d   1      27.315 -16.790  -0.521  0.00  0.00     0.219 C 
BRANCH  35  36
ATOM     36  C   UNL d   1      25.820 -17.058  -0.440  0.00  0.00    -0.034 A 
ATOM     37  C   UNL d   1      25.316 -18.294   0.010  0.00  0.00     0.009 A 
ATOM     38  C   UNL d   1      23.943 -18.576  -0.071  0.00  0.00     0.001 A 
ATOM     39  C   UNL d   1      23.054 -17.602  -0.519  0.00  0.00     0.000 A 
ATOM     40  C   UNL d   1      23.537 -16.365  -0.932  0.00  0.00     0.001 A 
ATOM     41  C   UNL d   1      24.906 -16.103  -0.902  0.00  0.00     0.009 A 
ENDBRANCH  35  36
ENDBRANCH  34  35
ENDBRANCH  31  34
ENDBRANCH   1  30
TORSDOF 10
ENDMDL
MODEL 8
REMARK VINA RESULT:    -8.524      3.495      5.647
REMARK INTER + INTRA:         -14.733
REMARK INTER:                 -11.507
REMARK INTRA:                  -3.226
REMARK CONF_INDEPENDENT:        2.983
REMARK UNBOUND:                -3.226
REMARK  10 active torsions:
REMARK  status: ('A' for Active; 'I' for Inactive)
REMARK    1  A    between atoms: C_9  and  N_10 
REMARK       I    between atoms: N_10  and  C_11 
REMARK    2  A    between atoms: C_11  and  C_13 
REMARK    3  A    between atoms: C_13  and  C_14 
REMARK    4  A    between atoms: C_13  and  N_21 
REMARK    5  A    between atoms: C_14  and  C_15 
REMARK    6  A    between atoms: C_15  and  C_16 
REMARK    7  A    between atoms: C_16  and  N_17 
REMARK       I    between atoms: N_17  and  C_18 
REMARK       I    between atoms: C_18  and  N_19 
REMARK       I    between atoms: N_21  and  C_22 
REMARK    8  A    between atoms: C_22  and  O_24 
REMARK    9  A    between atoms: O_24  and  C_25 
REMARK   10  A    between atoms: C_25  and  C_26 
ROOT
ATOM      1  C   UNL d   1      25.347 -14.986  -2.284  0.00  0.00     0.179 C 
ENDROOT
BRANCH   1   2
ATOM      2  C   UNL d   1      26.119 -14.116  -1.243  0.00  0.00     0.245 C 
ATOM      3  N   UNL d   1      26.284 -14.629   0.059  0.00  0.00    -0.325 N 
ATOM      4  H   UNL d   1      26.029 -15.587   0.255  0.00  0.00     0.169 HD
ATOM      5  O   UNL d   1      26.508 -13.009  -1.619  0.00  0.00    -0.271 OA
BRANCH   3   6
ATOM      6  C   UNL d   1      26.836 -13.921   1.168  0.00  0.00     0.037 A 
ATOM      7  C   UNL d   1      26.459 -12.615   1.421  0.00  0.00     0.067 A 
ATOM      8  C   UNL d   1      27.027 -11.885   2.451  0.00  0.00     0.092 A 
ATOM      9  O   UNL d   1      26.565 -10.563   2.531  0.00  0.00    -0.275 OA
ATOM     10  C   UNL d   1      27.975 -12.414   3.312  0.00  0.00     0.004 A 
ATOM     11  C   UNL d   1      27.035  -9.711   3.500  0.00  0.00     0.288 A 
ATOM     12  C   UNL d   1      28.018 -10.274   4.438  0.00  0.00     0.090 A 
ATOM     13  O   UNL d   1      26.656  -8.552   3.589  0.00  0.00    -0.260 OA
ATOM     14  C   UNL d   1      28.482 -11.533   4.373  0.00  0.00    -0.043 A 
ATOM     15  C   UNL d   1      29.484 -12.042   5.360  0.00  0.00     0.049 C 
ATOM     16  C   UNL d   1      28.352 -13.747   3.095  0.00  0.00     0.017 A 
ATOM     17  C   UNL d   1      27.789 -14.499   2.031  0.00  0.00     0.030 A 
ENDBRANCH   3   6
ENDBRANCH   1   2
BRANCH   1  18
ATOM     18  C   UNL d   1      26.309 -15.855  -3.107  0.00  0.00     0.037 C 
BRANCH  18  19
ATOM     19  C   UNL d   1      27.512 -15.096  -3.637  0.00  0.00     0.023 C 
BRANCH  19  20
ATOM     20  C   UNL d   1      28.715 -15.270  -2.742  0.00  0.00     0.138 C 
BRANCH  20  21
ATOM     21  N   UNL d   1      28.364 -16.098  -1.586  0.00  0.00    -0.227 N 
ATOM     22  C   UNL d   1      29.098 -17.156  -1.214  0.00  0.00     0.665 C 
ATOM     23  N   UNL d   1      30.190 -17.513  -1.893  0.00  0.00    -0.235 N 
ATOM     24  N   UNL d   1      28.735 -17.870  -0.147  0.00  0.00    -0.235 N 
ATOM     25  H   UNL d   1      30.494 -17.000  -2.710  0.00  0.00     0.174 HD
ATOM     26  H   UNL d   1      30.757 -18.304  -1.620  0.00  0.00     0.174 HD
ATOM     27  H   UNL d   1      27.917 -17.641   0.402  0.00  0.00     0.174 HD
ATOM     28  H   UNL d   1      29.281 -18.666   0.156  0.00  0.00     0.174 HD
ATOM     29  H   UNL d   1      27.539 -15.881  -1.039  0.00  0.00     0.177 HD
ENDBRANCH  20  21
ENDBRANCH  19  20
ENDBRANCH  18  19
ENDBRANCH   1  18
BRANCH   1  30
ATOM     30  N   UNL d   1      24.393 -15.877  -1.573  0.00  0.00    -0.324 N 
ATOM     31  C   UNL d   1      24.775 -16.960  -0.820  0.00  0.00     0.361 C 
ATOM     32  O   UNL d   1      25.947 -17.308  -0.685  0.00  0.00    -0.238 OA
ATOM     33  H   UNL d   1      23.399 -15.667  -1.654  0.00  0.00     0.165 HD
BRANCH  31  34
ATOM     34  O   UNL d   1      23.728 -17.573  -0.216  0.00  0.00    -0.299 OA
BRANCH  34  35
ATOM     35  C   UNL d   1      23.063 -18.596  -1.011  0.00  0.00     0.219 C 
BRANCH  35  36
ATOM     36  C   UNL d   1      21.676 -18.922  -0.481  0.00  0.00    -0.034 A 
ATOM     37  C   UNL d   1      21.402 -18.953   0.901  0.00  0.00     0.009 A 
ATOM     38  C   UNL d   1      20.160 -19.407   1.372  0.00  0.00     0.001 A 
ATOM     39  C   UNL d   1      19.154 -19.752   0.473  0.00  0.00     0.000 A 
ATOM     40  C   UNL d   1      19.401 -19.689  -0.895  0.00  0.00     0.001 A 
ATOM     41  C   UNL d   1      20.651 -19.289  -1.363  0.00  0.00     0.009 A 
ENDBRANCH  35  36
ENDBRANCH  34  35
ENDBRANCH  31  34
ENDBRANCH   1  30
TORSDOF 10
ENDMDL
MODEL 9
REMARK VINA RESULT:    -8.507      5.723      9.459
REMARK INTER + INTRA:         -14.717
REMARK INTER:                 -11.490
REMARK INTRA:                  -3.227
REMARK CONF_INDEPENDENT:        2.983
REMARK UNBOUND:                -3.227
REMARK  10 active torsions:
REMARK  status: ('A' for Active; 'I' for Inactive)
REMARK    1  A    between atoms: C_9  and  N_10 
REMARK       I    between atoms: N_10  and  C_11 
REMARK    2  A    between atoms: C_11  and  C_13 
REMARK    3  A    between atoms: C_13  and  C_14 
REMARK    4  A    between atoms: C_13  and  N_21 
REMARK    5  A    between atoms: C_14  and  C_15 
REMARK    6  A    between atoms: C_15  and  C_16 
REMARK    7  A    between atoms: C_16  and  N_17 
REMARK       I    between atoms: N_17  and  C_18 
REMARK       I    between atoms: C_18  and  N_19 
REMARK       I    between atoms: N_21  and  C_22 
REMARK    8  A    between atoms: C_22  and  O_24 
REMARK    9  A    between atoms: O_24  and  C_25 
REMARK   10  A    between atoms: C_25  and  C_26 
ROOT
ATOM      1  C   UNL d   1      27.275 -13.149   0.497  0.00  0.00     0.179 C 
ENDROOT
BRANCH   1   2
ATOM      2  C   UNL d   1      27.530 -12.827   2.002  0.00  0.00     0.245 C 
ATOM      3  N   UNL d   1      28.059 -13.848   2.818  0.00  0.00    -0.325 N 
ATOM      4  H   UNL d   1      28.387 -14.705   2.396  0.00  0.00     0.169 HD
ATOM      5  O   UNL d   1      27.216 -11.702   2.395  0.00  0.00    -0.271 OA
BRANCH   3   6
ATOM      6  C   UNL d   1      28.226 -13.778   4.233  0.00  0.00     0.037 A 
ATOM      7  C   UNL d   1      28.325 -12.552   4.866  0.00  0.00     0.067 A 
ATOM      8  C   UNL d   1      28.552 -12.457   6.228  0.00  0.00     0.092 A 
ATOM      9  O   UNL d   1      28.677 -11.140   6.691  0.00  0.00    -0.275 OA
ATOM     10  C   UNL d   1      28.658 -13.568   7.050  0.00  0.00     0.004 A 
ATOM     11  C   UNL d   1      28.905 -10.881   8.021  0.00  0.00     0.288 A 
ATOM     12  C   UNL d   1      28.988 -12.052   8.906  0.00  0.00     0.090 A 
ATOM     13  O   UNL d   1      29.025  -9.743   8.452  0.00  0.00    -0.260 OA
ATOM     14  C   UNL d   1      28.882 -13.322   8.482  0.00  0.00    -0.043 A 
ATOM     15  C   UNL d   1      28.976 -14.469   9.437  0.00  0.00     0.049 C 
ATOM     16  C   UNL d   1      28.530 -14.822   6.438  0.00  0.00     0.017 A 
ATOM     17  C   UNL d   1      28.315 -14.931   5.039  0.00  0.00     0.030 A 
ENDBRANCH   3   6
ENDBRANCH   1   2
BRANCH   1  18
ATOM     18  C   UNL d   1      28.595 -13.313  -0.270  0.00  0.00     0.037 C 
BRANCH  18  19
ATOM     19  C   UNL d   1      29.799 -12.749   0.463  0.00  0.00     0.023 C 
BRANCH  19  20
ATOM     20  C   UNL d   1      30.897 -13.775   0.595  0.00  0.00     0.138 C 
BRANCH  20  21
ATOM     21  N   UNL d   1      30.664 -14.611   1.776  0.00  0.00    -0.227 N 
ATOM     22  C   UNL d   1      31.303 -14.406   2.935  0.00  0.00     0.665 C 
ATOM     23  N   UNL d   1      32.199 -13.426   3.067  0.00  0.00    -0.235 N 
ATOM     24  N   UNL d   1      31.045 -15.193   3.981  0.00  0.00    -0.235 N 
ATOM     25  H   UNL d   1      32.425 -12.811   2.296  0.00  0.00     0.174 HD
ATOM     26  H   UNL d   1      32.683 -13.255   3.938  0.00  0.00     0.174 HD
ATOM     27  H   UNL d   1      30.375 -15.950   3.933  0.00  0.00     0.174 HD
ATOM     28  H   UNL d   1      31.510 -15.050   4.868  0.00  0.00     0.174 HD
ATOM     29  H   UNL d   1      30.003 -15.377   1.731  0.00  0.00     0.177 HD
ENDBRANCH  20  21
ENDBRANCH  19  20
ENDBRANCH  18  19
ENDBRANCH   1  18
BRANCH   1  30
ATOM     30  N   UNL d   1      26.499 -14.412   0.385  0.00  0.00    -0.324 N 
ATOM     31  C   UNL d   1      27.052 -15.662   0.518  0.00  0.00     0.361 C 
ATOM     32  O   UNL d   1      28.250 -15.851   0.719  0.00  0.00    -0.238 OA
ATOM     33  H   UNL d   1      25.500 -14.340   0.196  0.00  0.00     0.165 HD
BRANCH  31  34
ATOM     34  O   UNL d   1      26.130 -16.653   0.443  0.00  0.00    -0.299 OA
BRANCH  34  35
ATOM     35  C   UNL d   1      25.859 -17.150  -0.898  0.00  0.00     0.219 C 
BRANCH  35  36
ATOM     36  C   UNL d   1      26.026 -16.068  -1.954  0.00  0.00    -0.034 A 
ATOM     37  C   UNL d   1      24.961 -15.220  -2.317  0.00  0.00     0.009 A 
ATOM     38  C   UNL d   1      25.090 -14.335  -3.399  0.00  0.00     0.001 A 
ATOM     39  C   UNL d   1      26.304 -14.226  -4.073  0.00  0.00     0.000 A 
ATOM     40  C   UNL d   1      27.374 -15.032  -3.699  0.00  0.00     0.001 A 
ATOM     41  C   UNL d   1      27.231 -15.949  -2.659  0.00  0.00     0.009 A 
ENDBRANCH  35  36
ENDBRANCH  34  35
ENDBRANCH  31  34
ENDBRANCH   1  30
TORSDOF 10
ENDMDL
