MODEL 1
REMARK VINA RESULT:   -32.826      0.000      0.000
REMARK INTER + INTRA:         -35.056
REMARK INTER:                 -34.318
REMARK INTRA:                  -0.739
REMARK CONF_INDEPENDENT:        1.492
REMARK UNBOUND:                -0.739
REMARK  5 active torsions:
REMARK  status: ('A' for Active; 'I' for Inactive)
REMARK       I    between atoms: C_2  and  N_3 
REMARK    1  A    between atoms: C_2  and  C_15 
REMARK    2  A    between atoms: N_3  and  C_4 
REMARK    3  A    between atoms: C_4  and  C_5 
REMARK    4  A    between atoms: C_5  and  C_6 
REMARK    5  A    between atoms: N_18  and  C_19 
ROOT
ATOM      1  C   UNL d   1      26.843 -15.256  -1.618  0.00  0.00     0.081 C 
ATOM      2  C   UNL d   1      25.512 -15.061  -2.386  0.00  0.00     0.044 C 
ATOM      3  C   UNL d   1      24.250 -15.914  -1.893  0.00  0.00     0.276 C 
ATOM      4  N   UNL d   1      24.516 -17.425  -1.839  0.00  0.00     0.117 N 
ATOM      5  C   UNL d   1      25.687 -17.396  -0.853  0.00  0.00     0.276 C 
ATOM      6  C   UNL d   1      26.988 -16.741  -1.353  0.00  0.00     0.044 C 
ENDROOT
BRANCH   1   7
ATOM      7  C   UNL d   1      27.104 -14.451  -0.315  0.00  0.00     0.221 C 
ATOM      8  O   UNL d   1      26.303 -13.695   0.183  0.00  0.00    -0.273 OA
ATOM      9  N   UNL d   1      28.362 -14.704   0.264  0.00  0.00    -0.360 N 
ATOM     10  H   UNL d   1      28.980 -15.390  -0.150  0.00  0.00     0.162 HD
BRANCH   9  11
ATOM     11  C   UNL d   1      28.702 -14.132   1.555  0.00  0.00     0.127 C 
BRANCH  11  12
ATOM     12  C   UNL d   1      27.512 -13.937   2.515  0.00  0.00     0.056 C 
BRANCH  12  13
ATOM     13  C   UNL d   1      27.895 -13.998   3.969  0.00  0.00    -0.048 A 
ATOM     14  C   UNL d   1      28.047 -12.984   4.833  0.00  0.00    -0.006 A 
ATOM     15  C   UNL d   1      27.913 -11.570   4.745  0.00  0.00     0.014 A 
ATOM     16  C   UNL d   1      28.415 -13.629   6.114  0.00  0.00     0.038 A 
ATOM     17  C   UNL d   1      28.159 -10.821   5.829  0.00  0.00     0.001 A 
ATOM     18  C   UNL d   1      28.520 -11.423   7.100  0.00  0.00     0.002 A 
ATOM     19  C   UNL d   1      28.647 -12.750   7.283  0.00  0.00     0.030 A 
ATOM     20  N   UNL d   1      28.473 -14.891   6.019  0.00  0.00    -0.385 N 
ATOM     21  C   UNL d   1      28.154 -15.320   4.640  0.00  0.00     0.155 A 
ATOM     22  H   UNL d   1      28.704 -15.511   6.801  0.00  0.00     0.160 HD
ENDBRANCH  12  13
ENDBRANCH  11  12
ENDBRANCH   9  11
ENDBRANCH   1   7
BRANCH   4  23
ATOM     23  C   UNL d   1      23.297 -18.392  -1.294  0.00  0.00     0.370 C 
ATOM     24  N   UNL d   1      23.056 -19.600  -0.157  0.00  0.00    -0.252 NA
ATOM     25  C   UNL d   1      21.567 -19.700  -0.008  0.00  0.00     0.046 C 
ATOM     26  H   UNL d   1      23.427 -19.383   0.773  0.00  0.00     0.130 HD
ATOM     27  C   UNL d   1      20.676 -20.550   0.682  0.00  0.00     0.028 C 
ATOM     28  C   UNL d   1      20.907 -18.668  -0.648  0.00  0.00     0.117 C 
ATOM     29  C   UNL d   1      19.267 -20.390   0.451  0.00  0.00     0.021 C 
ATOM     30  C   UNL d   1      18.838 -19.506  -0.529  0.00  0.00     0.118 C 
ATOM     31  N   UNL d   1      19.635 -18.576  -1.037  0.00  0.00    -0.252 NA
ATOM     32  S   UNL d   1      21.916 -17.287  -0.806  0.00  0.00    -0.057 SA
ENDBRANCH   4  23
TORSDOF 5
ENDMDL
MODEL 2
REMARK VINA RESULT:   -32.570      1.194      1.874
REMARK INTER + INTRA:         -35.159
REMARK INTER:                 -34.062
REMARK INTRA:                  -1.098
REMARK CONF_INDEPENDENT:        1.492
REMARK UNBOUND:                -1.098
REMARK  5 active torsions:
REMARK  status: ('A' for Active; 'I' for Inactive)
REMARK       I    between atoms: C_2  and  N_3 
REMARK    1  A    between atoms: C_2  and  C_15 
REMARK    2  A    between atoms: N_3  and  C_4 
REMARK    3  A    between atoms: C_4  and  C_5 
REMARK    4  A    between atoms: C_5  and  C_6 
REMARK    5  A    between atoms: N_18  and  C_19 
ROOT
ATOM      1  C   UNL d   1      26.893 -15.273  -1.516  0.00  0.00     0.081 C 
ATOM      2  C   UNL d   1      25.596 -15.094  -2.344  0.00  0.00     0.044 C 
ATOM      3  C   UNL d   1      24.315 -15.941  -1.891  0.00  0.00     0.276 C 
ATOM      4  N   UNL d   1      24.581 -17.450  -1.800  0.00  0.00     0.117 N 
ATOM      5  C   UNL d   1      25.708 -17.403  -0.766  0.00  0.00     0.276 C 
ATOM      6  C   UNL d   1      27.028 -16.753  -1.220  0.00  0.00     0.044 C 
ENDROOT
BRANCH   1   7
ATOM      7  C   UNL d   1      27.096 -14.446  -0.218  0.00  0.00     0.221 C 
ATOM      8  O   UNL d   1      26.605 -14.732   0.850  0.00  0.00    -0.273 OA
ATOM      9  N   UNL d   1      27.940 -13.331  -0.383  0.00  0.00    -0.360 N 
ATOM     10  H   UNL d   1      28.381 -13.159  -1.278  0.00  0.00     0.162 HD
BRANCH   9  11
ATOM     11  C   UNL d   1      28.336 -12.536   0.766  0.00  0.00     0.127 C 
BRANCH  11  12
ATOM     12  C   UNL d   1      27.179 -11.843   1.511  0.00  0.00     0.056 C 
BRANCH  12  13
ATOM     13  C   UNL d   1      27.404 -11.718   2.993  0.00  0.00    -0.048 A 
ATOM     14  C   UNL d   1      27.786 -12.666   3.860  0.00  0.00    -0.006 A 
ATOM     15  C   UNL d   1      28.118 -14.046   3.747  0.00  0.00     0.014 A 
ATOM     16  C   UNL d   1      27.855 -11.978   5.169  0.00  0.00     0.038 A 
ATOM     17  C   UNL d   1      28.458 -14.728   4.850  0.00  0.00     0.001 A 
ATOM     18  C   UNL d   1      28.535 -14.083   6.148  0.00  0.00     0.002 A 
ATOM     19  C   UNL d   1      28.264 -12.780   6.346  0.00  0.00     0.030 A 
ATOM     20  N   UNL d   1      27.546 -10.752   5.086  0.00  0.00    -0.385 N 
ATOM     21  C   UNL d   1      27.208 -10.398   3.690  0.00  0.00     0.155 A 
ATOM     22  H   UNL d   1      27.542 -10.111   5.885  0.00  0.00     0.160 HD
ENDBRANCH  12  13
ENDBRANCH  11  12
ENDBRANCH   9  11
ENDBRANCH   1   7
BRANCH   4  23
ATOM     23  C   UNL d   1      23.341 -18.411  -1.292  0.00  0.00     0.370 C 
ATOM     24  N   UNL d   1      23.052 -19.599  -0.145  0.00  0.00    -0.252 NA
ATOM     25  C   UNL d   1      21.558 -19.700  -0.061  0.00  0.00     0.046 C 
ATOM     26  H   UNL d   1      23.381 -19.363   0.796  0.00  0.00     0.130 HD
ATOM     27  C   UNL d   1      20.639 -20.539   0.606  0.00  0.00     0.028 C 
ATOM     28  C   UNL d   1      20.925 -18.682  -0.748  0.00  0.00     0.117 C 
ATOM     29  C   UNL d   1      19.242 -20.388   0.309  0.00  0.00     0.021 C 
ATOM     30  C   UNL d   1      18.855 -19.524  -0.706  0.00  0.00     0.118 C 
ATOM     31  N   UNL d   1      19.671 -18.601  -1.195  0.00  0.00    -0.252 NA
ATOM     32  S   UNL d   1      21.937 -17.301  -0.887  0.00  0.00    -0.057 SA
ENDBRANCH   4  23
TORSDOF 5
ENDMDL
MODEL 3
REMARK VINA RESULT:   -32.448      1.525      1.917
REMARK INTER + INTRA:         -35.057
REMARK INTER:                 -33.939
REMARK INTRA:                  -1.117
REMARK CONF_INDEPENDENT:        1.492
REMARK UNBOUND:                -1.117
REMARK  5 active torsions:
REMARK  status: ('A' for Active; 'I' for Inactive)
REMARK       I    between atoms: C_2  and  N_3 
REMARK    1  A    between atoms: C_2  and  C_15 
REMARK    2  A    between atoms: N_3  and  C_4 
REMARK    3  A    between atoms: C_4  and  C_5 
REMARK    4  A    between atoms: C_5  and  C_6 
REMARK    5  A    between atoms: N_18  and  C_19 
ROOT
ATOM      1  C   UNL d   1      26.863 -15.252  -1.390  0.00  0.00     0.081 C 
ATOM      2  C   UNL d   1      25.513 -14.960  -2.090  0.00  0.00     0.044 C 
ATOM      3  C   UNL d   1      24.251 -15.835  -1.639  0.00  0.00     0.276 C 
ATOM      4  N   UNL d   1      24.487 -17.349  -1.739  0.00  0.00     0.117 N 
ATOM      5  C   UNL d   1      25.689 -17.436  -0.796  0.00  0.00     0.276 C 
ATOM      6  C   UNL d   1      26.986 -16.757  -1.273  0.00  0.00     0.044 C 
ENDROOT
BRANCH   1   7
ATOM      7  C   UNL d   1      27.182 -14.581  -0.026  0.00  0.00     0.221 C 
ATOM      8  O   UNL d   1      27.541 -15.186   0.957  0.00  0.00    -0.273 OA
ATOM      9  N   UNL d   1      27.044 -13.180  -0.037  0.00  0.00    -0.360 N 
ATOM     10  H   UNL d   1      26.801 -12.704  -0.897  0.00  0.00     0.162 HD
BRANCH   9  11
ATOM     11  C   UNL d   1      27.436 -12.396   1.121  0.00  0.00     0.127 C 
BRANCH  11  12
ATOM     12  C   UNL d   1      28.953 -12.179   1.279  0.00  0.00     0.056 C 
BRANCH  12  13
ATOM     13  C   UNL d   1      29.565 -12.987   2.390  0.00  0.00    -0.048 A 
ATOM     14  C   UNL d   1      28.964 -13.513   3.467  0.00  0.00    -0.006 A 
ATOM     15  C   UNL d   1      27.626 -13.532   3.951  0.00  0.00     0.014 A 
ATOM     16  C   UNL d   1      30.044 -14.207   4.204  0.00  0.00     0.038 A 
ATOM     17  C   UNL d   1      27.358 -14.158   5.106  0.00  0.00     0.001 A 
ATOM     18  C   UNL d   1      28.394 -14.848   5.853  0.00  0.00     0.002 A 
ATOM     19  C   UNL d   1      29.679 -14.904   5.460  0.00  0.00     0.030 A 
ATOM     20  N   UNL d   1      31.166 -14.104   3.625  0.00  0.00    -0.385 N 
ATOM     21  C   UNL d   1      31.036 -13.311   2.384  0.00  0.00     0.155 A 
ATOM     22  H   UNL d   1      32.030 -14.525   3.980  0.00  0.00     0.160 HD
ENDBRANCH  12  13
ENDBRANCH  11  12
ENDBRANCH   9  11
ENDBRANCH   1   7
BRANCH   4  23
ATOM     23  C   UNL d   1      23.267 -18.343  -1.249  0.00  0.00     0.370 C 
ATOM     24  N   UNL d   1      23.011 -19.581  -0.148  0.00  0.00    -0.252 NA
ATOM     25  C   UNL d   1      21.521 -19.701  -0.040  0.00  0.00     0.046 C 
ATOM     26  H   UNL d   1      23.356 -19.382   0.796  0.00  0.00     0.130 HD
ATOM     27  C   UNL d   1      20.623 -20.577   0.607  0.00  0.00     0.028 C 
ATOM     28  C   UNL d   1      20.865 -18.661  -0.671  0.00  0.00     0.117 C 
ATOM     29  C   UNL d   1      19.218 -20.429   0.344  0.00  0.00     0.021 C 
ATOM     30  C   UNL d   1      18.804 -19.526  -0.625  0.00  0.00     0.118 C 
ATOM     31  N   UNL d   1      19.601 -18.575  -1.091  0.00  0.00    -0.252 NA
ATOM     32  S   UNL d   1      21.860 -17.266  -0.770  0.00  0.00    -0.057 SA
ENDBRANCH   4  23
TORSDOF 5
ENDMDL
MODEL 4
REMARK VINA RESULT:   -31.566      4.846      8.463
REMARK INTER + INTRA:         -33.986
REMARK INTER:                 -33.058
REMARK INTRA:                  -0.928
REMARK CONF_INDEPENDENT:        1.492
REMARK UNBOUND:                -0.928
REMARK  5 active torsions:
REMARK  status: ('A' for Active; 'I' for Inactive)
REMARK       I    between atoms: C_2  and  N_3 
REMARK    1  A    between atoms: C_2  and  C_15 
REMARK    2  A    between atoms: N_3  and  C_4 
REMARK    3  A    between atoms: C_4  and  C_5 
REMARK    4  A    between atoms: C_5  and  C_6 
REMARK    5  A    between atoms: N_18  and  C_19 
ROOT
ATOM      1  C   UNL d   1      26.640 -14.877  -2.682  0.00  0.00     0.081 C 
ATOM      2  C   UNL d   1      27.030 -15.871  -1.559  0.00  0.00     0.044 C 
ATOM      3  C   UNL d   1      26.023 -17.082  -1.272  0.00  0.00     0.276 C 
ATOM      4  N   UNL d   1      24.585 -16.628  -0.986  0.00  0.00     0.117 N 
ATOM      5  C   UNL d   1      24.332 -15.892  -2.304  0.00  0.00     0.276 C 
ATOM      6  C   UNL d   1      25.155 -14.613  -2.544  0.00  0.00     0.044 C 
ENDROOT
BRANCH   1   7
ATOM      7  C   UNL d   1      26.990 -15.210  -4.158  0.00  0.00     0.221 C 
ATOM      8  O   UNL d   1      26.166 -15.424  -5.016  0.00  0.00    -0.273 OA
ATOM      9  N   UNL d   1      28.373 -15.213  -4.426  0.00  0.00    -0.360 N 
ATOM     10  H   UNL d   1      29.029 -14.969  -3.695  0.00  0.00     0.162 HD
BRANCH   9  11
ATOM     11  C   UNL d   1      28.854 -15.373  -5.786  0.00  0.00     0.127 C 
BRANCH  11  12
ATOM     12  C   UNL d   1      30.311 -15.862  -5.910  0.00  0.00     0.056 C 
BRANCH  12  13
ATOM     13  C   UNL d   1      30.450 -17.359  -5.856  0.00  0.00    -0.048 A 
ATOM     14  C   UNL d   1      30.843 -18.195  -6.828  0.00  0.00    -0.006 A 
ATOM     15  C   UNL d   1      31.262 -18.027  -8.178  0.00  0.00     0.014 A 
ATOM     16  C   UNL d   1      30.802 -19.540  -6.212  0.00  0.00     0.038 A 
ATOM     17  C   UNL d   1      31.585 -19.109  -8.901  0.00  0.00     0.001 A 
ATOM     18  C   UNL d   1      31.555 -20.441  -8.327  0.00  0.00     0.002 A 
ATOM     19  C   UNL d   1      31.197 -20.693  -7.054  0.00  0.00     0.030 A 
ATOM     20  N   UNL d   1      30.425 -19.505  -5.003  0.00  0.00    -0.385 N 
ATOM     21  C   UNL d   1      30.140 -18.113  -4.591  0.00  0.00     0.155 A 
ATOM     22  H   UNL d   1      30.341 -20.336  -4.409  0.00  0.00     0.160 HD
ENDBRANCH  12  13
ENDBRANCH  11  12
ENDBRANCH   9  11
ENDBRANCH   1   7
BRANCH   4  23
ATOM     23  C   UNL d   1      23.455 -17.800  -0.727  0.00  0.00     0.370 C 
ATOM     24  N   UNL d   1      23.181 -19.081   0.319  0.00  0.00    -0.252 NA
ATOM     25  C   UNL d   1      21.732 -19.423   0.141  0.00  0.00     0.046 C 
ATOM     26  H   UNL d   1      23.306 -18.850   1.309  0.00  0.00     0.130 HD
ATOM     27  C   UNL d   1      20.867 -20.434   0.615  0.00  0.00     0.028 C 
ATOM     28  C   UNL d   1      21.061 -18.481  -0.615  0.00  0.00     0.117 C 
ATOM     29  C   UNL d   1      19.532 -20.490   0.086  0.00  0.00     0.021 C 
ATOM     30  C   UNL d   1      19.181 -19.642  -0.955  0.00  0.00     0.118 C 
ATOM     31  N   UNL d   1      19.903 -18.575  -1.270  0.00  0.00    -0.252 NA
ATOM     32  S   UNL d   1      21.839 -16.952  -0.538  0.00  0.00    -0.057 SA
ENDBRANCH   4  23
TORSDOF 5
ENDMDL
MODEL 5
REMARK VINA RESULT:   -31.154      1.729      2.093
REMARK INTER + INTRA:         -33.560
REMARK INTER:                 -32.645
REMARK INTRA:                  -0.915
REMARK CONF_INDEPENDENT:        1.492
REMARK UNBOUND:                -0.915
REMARK  5 active torsions:
REMARK  status: ('A' for Active; 'I' for Inactive)
REMARK       I    between atoms: C_2  and  N_3 
REMARK    1  A    between atoms: C_2  and  C_15 
REMARK    2  A    between atoms: N_3  and  C_4 
REMARK    3  A    between atoms: C_4  and  C_5 
REMARK    4  A    between atoms: C_5  and  C_6 
REMARK    5  A    between atoms: N_18  and  C_19 
ROOT
ATOM      1  C   UNL d   1      26.940 -15.404  -1.546  0.00  0.00     0.081 C 
ATOM      2  C   UNL d   1      25.598 -15.117  -2.263  0.00  0.00     0.044 C 
ATOM      3  C   UNL d   1      24.318 -15.951  -1.783  0.00  0.00     0.276 C 
ATOM      4  N   UNL d   1      24.529 -17.471  -1.823  0.00  0.00     0.117 N 
ATOM      5  C   UNL d   1      25.726 -17.542  -0.871  0.00  0.00     0.276 C 
ATOM      6  C   UNL d   1      27.036 -16.906  -1.369  0.00  0.00     0.044 C 
ENDROOT
BRANCH   1   7
ATOM      7  C   UNL d   1      27.265 -14.686  -0.208  0.00  0.00     0.221 C 
ATOM      8  O   UNL d   1      26.863 -15.052   0.872  0.00  0.00    -0.273 OA
ATOM      9  N   UNL d   1      28.109 -13.567  -0.355  0.00  0.00    -0.360 N 
ATOM     10  H   UNL d   1      28.475 -13.328  -1.268  0.00  0.00     0.162 HD
BRANCH   9  11
ATOM     11  C   UNL d   1      28.613 -12.871   0.815  0.00  0.00     0.127 C 
BRANCH  11  12
ATOM     12  C   UNL d   1      28.136 -11.413   0.962  0.00  0.00     0.056 C 
BRANCH  12  13
ATOM     13  C   UNL d   1      27.894 -11.000   2.388  0.00  0.00    -0.048 A 
ATOM     14  C   UNL d   1      28.667 -11.216   3.462  0.00  0.00    -0.006 A 
ATOM     15  C   UNL d   1      29.921 -11.855   3.675  0.00  0.00     0.014 A 
ATOM     16  C   UNL d   1      27.942 -10.582   4.586  0.00  0.00     0.038 A 
ATOM     17  C   UNL d   1      30.424 -11.909   4.916  0.00  0.00     0.001 A 
ATOM     18  C   UNL d   1      29.739 -11.297   6.040  0.00  0.00     0.002 A 
ATOM     19  C   UNL d   1      28.564 -10.652   5.930  0.00  0.00     0.030 A 
ATOM     20  N   UNL d   1      26.855 -10.046   4.218  0.00  0.00    -0.385 N 
ATOM     21  C   UNL d   1      26.655 -10.231   2.764  0.00  0.00     0.155 A 
ATOM     22  H   UNL d   1      26.220  -9.553   4.853  0.00  0.00     0.160 HD
ENDBRANCH  12  13
ENDBRANCH  11  12
ENDBRANCH   9  11
ENDBRANCH   1   7
BRANCH   4  23
ATOM     23  C   UNL d   1      23.290 -18.424  -1.299  0.00  0.00     0.370 C 
ATOM     24  N   UNL d   1      23.006 -19.606  -0.145  0.00  0.00    -0.252 NA
ATOM     25  C   UNL d   1      21.513 -19.700  -0.045  0.00  0.00     0.046 C 
ATOM     26  H   UNL d   1      23.346 -19.369   0.792  0.00  0.00     0.130 HD
ATOM     27  C   UNL d   1      20.596 -20.533   0.633  0.00  0.00     0.028 C 
ATOM     28  C   UNL d   1      20.878 -18.681  -0.730  0.00  0.00     0.117 C 
ATOM     29  C   UNL d   1      19.197 -20.376   0.349  0.00  0.00     0.021 C 
ATOM     30  C   UNL d   1      18.804 -19.514  -0.664  0.00  0.00     0.118 C 
ATOM     31  N   UNL d   1      19.620 -18.597  -1.165  0.00  0.00    -0.252 NA
ATOM     32  S   UNL d   1      21.895 -17.306  -0.884  0.00  0.00    -0.057 SA
ENDBRANCH   4  23
TORSDOF 5
ENDMDL
MODEL 6
REMARK VINA RESULT:   -30.982      2.120      3.219
REMARK INTER + INTRA:         -33.744
REMARK INTER:                 -32.473
REMARK INTRA:                  -1.271
REMARK CONF_INDEPENDENT:        1.492
REMARK UNBOUND:                -1.271
REMARK  5 active torsions:
REMARK  status: ('A' for Active; 'I' for Inactive)
REMARK       I    between atoms: C_2  and  N_3 
REMARK    1  A    between atoms: C_2  and  C_15 
REMARK    2  A    between atoms: N_3  and  C_4 
REMARK    3  A    between atoms: C_4  and  C_5 
REMARK    4  A    between atoms: C_5  and  C_6 
REMARK    5  A    between atoms: N_18  and  C_19 
ROOT
ATOM      1  C   UNL d   1      26.909 -15.170  -1.201  0.00  0.00     0.081 C 
ATOM      2  C   UNL d   1      25.626 -14.958  -2.043  0.00  0.00     0.044 C 
ATOM      3  C   UNL d   1      24.344 -15.836  -1.658  0.00  0.00     0.276 C 
ATOM      4  N   UNL d   1      24.620 -17.346  -1.638  0.00  0.00     0.117 N 
ATOM      5  C   UNL d   1      25.728 -17.343  -0.582  0.00  0.00     0.276 C 
ATOM      6  C   UNL d   1      27.051 -16.661  -0.977  0.00  0.00     0.044 C 
ENDROOT
BRANCH   1   7
ATOM      7  C   UNL d   1      27.081 -14.408   0.142  0.00  0.00     0.221 C 
ATOM      8  O   UNL d   1      26.211 -13.749   0.662  0.00  0.00    -0.273 OA
ATOM      9  N   UNL d   1      28.351 -14.576   0.729  0.00  0.00    -0.360 N 
ATOM     10  H   UNL d   1      29.032 -15.185   0.293  0.00  0.00     0.162 HD
BRANCH   9  11
ATOM     11  C   UNL d   1      28.622 -14.039   2.051  0.00  0.00     0.127 C 
BRANCH  11  12
ATOM     12  C   UNL d   1      29.374 -12.694   2.066  0.00  0.00     0.056 C 
BRANCH  12  13
ATOM     13  C   UNL d   1      28.656 -11.593   1.333  0.00  0.00    -0.048 A 
ATOM     14  C   UNL d   1      27.735 -10.741   1.803  0.00  0.00    -0.006 A 
ATOM     15  C   UNL d   1      27.121 -10.537   3.072  0.00  0.00     0.014 A 
ATOM     16  C   UNL d   1      27.391  -9.878   0.651  0.00  0.00     0.038 A 
ATOM     17  C   UNL d   1      26.198  -9.574   3.203  0.00  0.00     0.001 A 
ATOM     18  C   UNL d   1      25.839  -8.711   2.093  0.00  0.00     0.002 A 
ATOM     19  C   UNL d   1      26.383  -8.814   0.867  0.00  0.00     0.030 A 
ATOM     20  N   UNL d   1      28.040 -10.186  -0.392  0.00  0.00    -0.385 N 
ATOM     21  C   UNL d   1      28.944 -11.326  -0.120  0.00  0.00     0.155 A 
ATOM     22  H   UNL d   1      27.944  -9.697  -1.287  0.00  0.00     0.160 HD
ENDBRANCH  12  13
ENDBRANCH  11  12
ENDBRANCH   9  11
ENDBRANCH   1   7
BRANCH   4  23
ATOM     23  C   UNL d   1      23.379 -18.340  -1.203  0.00  0.00     0.370 C 
ATOM     24  N   UNL d   1      23.073 -19.573  -0.110  0.00  0.00    -0.252 NA
ATOM     25  C   UNL d   1      21.579 -19.696  -0.073  0.00  0.00     0.046 C 
ATOM     26  H   UNL d   1      23.371 -19.370   0.848  0.00  0.00     0.130 HD
ATOM     27  C   UNL d   1      20.651 -20.570   0.534  0.00  0.00     0.028 C 
ATOM     28  C   UNL d   1      20.952 -18.660  -0.740  0.00  0.00     0.117 C 
ATOM     29  C   UNL d   1      19.261 -20.425   0.203  0.00  0.00     0.021 C 
ATOM     30  C   UNL d   1      18.893 -19.527  -0.790  0.00  0.00     0.118 C 
ATOM     31  N   UNL d   1      19.711 -18.577  -1.220  0.00  0.00    -0.252 NA
ATOM     32  S   UNL d   1      21.950 -17.263  -0.797  0.00  0.00    -0.057 SA
ENDBRANCH   4  23
TORSDOF 5
ENDMDL
MODEL 7
REMARK VINA RESULT:   -30.920      3.176      3.833
REMARK INTER + INTRA:         -33.230
REMARK INTER:                 -32.412
REMARK INTRA:                  -0.818
REMARK CONF_INDEPENDENT:        1.492
REMARK UNBOUND:                -0.818
REMARK  5 active torsions:
REMARK  status: ('A' for Active; 'I' for Inactive)
REMARK       I    between atoms: C_2  and  N_3 
REMARK    1  A    between atoms: C_2  and  C_15 
REMARK    2  A    between atoms: N_3  and  C_4 
REMARK    3  A    between atoms: C_4  and  C_5 
REMARK    4  A    between atoms: C_5  and  C_6 
REMARK    5  A    between atoms: N_18  and  C_19 
ROOT
ATOM      1  C   UNL d   1      26.749 -15.216  -1.595  0.00  0.00     0.081 C 
ATOM      2  C   UNL d   1      25.388 -14.984  -2.297  0.00  0.00     0.044 C 
ATOM      3  C   UNL d   1      24.145 -15.857  -1.791  0.00  0.00     0.276 C 
ATOM      4  N   UNL d   1      24.408 -17.369  -1.817  0.00  0.00     0.117 N 
ATOM      5  C   UNL d   1      25.620 -17.388  -0.881  0.00  0.00     0.276 C 
ATOM      6  C   UNL d   1      26.900 -16.712  -1.404  0.00  0.00     0.044 C 
ENDROOT
BRANCH   1   7
ATOM      7  C   UNL d   1      27.067 -14.472  -0.269  0.00  0.00     0.221 C 
ATOM      8  O   UNL d   1      27.723 -14.944   0.630  0.00  0.00    -0.273 OA
ATOM      9  N   UNL d   1      26.542 -13.166  -0.212  0.00  0.00    -0.360 N 
ATOM     10  H   UNL d   1      26.050 -12.785  -1.011  0.00  0.00     0.162 HD
BRANCH   9  11
ATOM     11  C   UNL d   1      26.867 -12.295   0.903  0.00  0.00     0.127 C 
BRANCH  11  12
ATOM     12  C   UNL d   1      27.412 -10.908   0.510  0.00  0.00     0.056 C 
BRANCH  12  13
ATOM     13  C   UNL d   1      27.161  -9.846   1.546  0.00  0.00    -0.048 A 
ATOM     14  C   UNL d   1      26.793  -8.571   1.359  0.00  0.00    -0.006 A 
ATOM     15  C   UNL d   1      26.503  -7.774   0.216  0.00  0.00     0.014 A 
ATOM     16  C   UNL d   1      26.685  -8.003   2.722  0.00  0.00     0.038 A 
ATOM     17  C   UNL d   1      26.165  -6.488   0.385  0.00  0.00     0.001 A 
ATOM     18  C   UNL d   1      26.050  -5.901   1.707  0.00  0.00     0.002 A 
ATOM     19  C   UNL d   1      26.281  -6.583   2.844  0.00  0.00     0.030 A 
ATOM     20  N   UNL d   1      26.960  -8.852   3.621  0.00  0.00    -0.385 N 
ATOM     21  C   UNL d   1      27.308 -10.155   3.012  0.00  0.00     0.155 A 
ATOM     22  H   UNL d   1      26.933  -8.647   4.624  0.00  0.00     0.160 HD
ENDBRANCH  12  13
ENDBRANCH  11  12
ENDBRANCH   9  11
ENDBRANCH   1   7
BRANCH   4  23
ATOM     23  C   UNL d   1      23.210 -18.359  -1.267  0.00  0.00     0.370 C 
ATOM     24  N   UNL d   1      23.007 -19.599  -0.156  0.00  0.00    -0.252 NA
ATOM     25  C   UNL d   1      21.523 -19.713   0.029  0.00  0.00     0.046 C 
ATOM     26  H   UNL d   1      23.401 -19.404   0.769  0.00  0.00     0.130 HD
ATOM     27  C   UNL d   1      20.655 -20.586   0.719  0.00  0.00     0.028 C 
ATOM     28  C   UNL d   1      20.840 -18.668  -0.565  0.00  0.00     0.117 C 
ATOM     29  C   UNL d   1      19.240 -20.430   0.529  0.00  0.00     0.021 C 
ATOM     30  C   UNL d   1      18.780 -19.523  -0.415  0.00  0.00     0.118 C 
ATOM     31  N   UNL d   1      19.557 -18.575  -0.919  0.00  0.00    -0.252 NA
ATOM     32  S   UNL d   1      21.836 -17.277  -0.713  0.00  0.00    -0.057 SA
ENDBRANCH   4  23
TORSDOF 5
ENDMDL
MODEL 8
REMARK VINA RESULT:   -30.910      4.737      8.499
REMARK INTER + INTRA:         -33.224
REMARK INTER:                 -32.401
REMARK INTRA:                  -0.823
REMARK CONF_INDEPENDENT:        1.492
REMARK UNBOUND:                -0.823
REMARK  5 active torsions:
REMARK  status: ('A' for Active; 'I' for Inactive)
REMARK       I    between atoms: C_2  and  N_3 
REMARK    1  A    between atoms: C_2  and  C_15 
REMARK    2  A    between atoms: N_3  and  C_4 
REMARK    3  A    between atoms: C_4  and  C_5 
REMARK    4  A    between atoms: C_5  and  C_6 
REMARK    5  A    between atoms: N_18  and  C_19 
ROOT
ATOM      1  C   UNL d   1      26.761 -14.908  -2.618  0.00  0.00     0.081 C 
ATOM      2  C   UNL d   1      27.016 -15.708  -1.317  0.00  0.00     0.044 C 
ATOM      3  C   UNL d   1      26.030 -16.929  -1.003  0.00  0.00     0.276 C 
ATOM      4  N   UNL d   1      24.547 -16.533  -0.999  0.00  0.00     0.117 N 
ATOM      5  C   UNL d   1      24.467 -16.006  -2.434  0.00  0.00     0.276 C 
ATOM      6  C   UNL d   1      25.262 -14.723  -2.739  0.00  0.00     0.044 C 
ENDROOT
BRANCH   1   7
ATOM      7  C   UNL d   1      27.346 -15.421  -3.963  0.00  0.00     0.221 C 
ATOM      8  O   UNL d   1      26.697 -15.562  -4.973  0.00  0.00    -0.273 OA
ATOM      9  N   UNL d   1      28.729 -15.683  -3.915  0.00  0.00    -0.360 N 
ATOM     10  H   UNL d   1      29.250 -15.494  -3.068  0.00  0.00     0.162 HD
BRANCH   9  11
ATOM     11  C   UNL d   1      29.449 -16.039  -5.125  0.00  0.00     0.127 C 
BRANCH  11  12
ATOM     12  C   UNL d   1      30.869 -16.594  -4.900  0.00  0.00     0.056 C 
BRANCH  12  13
ATOM     13  C   UNL d   1      31.304 -17.580  -5.949  0.00  0.00    -0.048 A 
ATOM     14  C   UNL d   1      31.346 -18.918  -5.869  0.00  0.00    -0.006 A 
ATOM     15  C   UNL d   1      31.017 -19.867  -4.860  0.00  0.00     0.014 A 
ATOM     16  C   UNL d   1      31.839 -19.363  -7.192  0.00  0.00     0.038 A 
ATOM     17  C   UNL d   1      31.195 -21.172  -5.109  0.00  0.00     0.001 A 
ATOM     18  C   UNL d   1      31.677 -21.641  -6.395  0.00  0.00     0.002 A 
ATOM     19  C   UNL d   1      31.989 -20.820  -7.415  0.00  0.00     0.030 A 
ATOM     20  N   UNL d   1      32.065 -18.391  -7.973  0.00  0.00    -0.385 N 
ATOM     21  C   UNL d   1      31.762 -17.108  -7.303  0.00  0.00     0.155 A 
ATOM     22  H   UNL d   1      32.405 -18.501  -8.934  0.00  0.00     0.160 HD
ENDBRANCH  12  13
ENDBRANCH  11  12
ENDBRANCH   9  11
ENDBRANCH   1   7
BRANCH   4  23
ATOM     23  C   UNL d   1      23.442 -17.728  -0.737  0.00  0.00     0.370 C 
ATOM     24  N   UNL d   1      23.197 -19.014   0.311  0.00  0.00    -0.252 NA
ATOM     25  C   UNL d   1      21.754 -19.385   0.137  0.00  0.00     0.046 C 
ATOM     26  H   UNL d   1      23.319 -18.779   1.300  0.00  0.00     0.130 HD
ATOM     27  C   UNL d   1      20.912 -20.413   0.613  0.00  0.00     0.028 C 
ATOM     28  C   UNL d   1      21.063 -18.458  -0.618  0.00  0.00     0.117 C 
ATOM     29  C   UNL d   1      19.577 -20.497   0.088  0.00  0.00     0.021 C 
ATOM     30  C   UNL d   1      19.206 -19.657  -0.953  0.00  0.00     0.118 C 
ATOM     31  N   UNL d   1      19.905 -18.576  -1.270  0.00  0.00    -0.252 NA
ATOM     32  S   UNL d   1      21.809 -16.913  -0.545  0.00  0.00    -0.057 SA
ENDBRANCH   4  23
TORSDOF 5
ENDMDL
MODEL 9
REMARK VINA RESULT:   -30.187      2.376      4.292
REMARK INTER + INTRA:         -33.107
REMARK INTER:                 -31.678
REMARK INTRA:                  -1.428
REMARK CONF_INDEPENDENT:        1.492
REMARK UNBOUND:                -1.428
REMARK  5 active torsions:
REMARK  status: ('A' for Active; 'I' for Inactive)
REMARK       I    between atoms: C_2  and  N_3 
REMARK    1  A    between atoms: C_2  and  C_15 
REMARK    2  A    between atoms: N_3  and  C_4 
REMARK    3  A    between atoms: C_4  and  C_5 
REMARK    4  A    between atoms: C_5  and  C_6 
REMARK    5  A    between atoms: N_18  and  C_19 
ROOT
ATOM      1  C   UNL d   1      26.918 -15.307  -1.644  0.00  0.00     0.081 C 
ATOM      2  C   UNL d   1      25.589 -15.095  -2.410  0.00  0.00     0.044 C 
ATOM      3  C   UNL d   1      24.317 -15.931  -1.914  0.00  0.00     0.276 C 
ATOM      4  N   UNL d   1      24.563 -17.446  -1.860  0.00  0.00     0.117 N 
ATOM      5  C   UNL d   1      25.736 -17.432  -0.876  0.00  0.00     0.276 C 
ATOM      6  C   UNL d   1      27.045 -16.793  -1.377  0.00  0.00     0.044 C 
ENDROOT
BRANCH   1   7
ATOM      7  C   UNL d   1      27.191 -14.505  -0.342  0.00  0.00     0.221 C 
ATOM      8  O   UNL d   1      27.039 -13.310  -0.240  0.00  0.00    -0.273 OA
ATOM      9  N   UNL d   1      27.612 -15.305   0.739  0.00  0.00    -0.360 N 
ATOM     10  H   UNL d   1      27.669 -16.310   0.631  0.00  0.00     0.162 HD
BRANCH   9  11
ATOM     11  C   UNL d   1      27.776 -14.723   2.059  0.00  0.00     0.127 C 
BRANCH  11  12
ATOM     12  C   UNL d   1      29.195 -14.210   2.373  0.00  0.00     0.056 C 
BRANCH  12  13
ATOM     13  C   UNL d   1      30.020 -13.930   1.147  0.00  0.00    -0.048 A 
ATOM     14  C   UNL d   1      30.593 -14.806   0.310  0.00  0.00    -0.006 A 
ATOM     15  C   UNL d   1      30.644 -16.227   0.236  0.00  0.00     0.014 A 
ATOM     16  C   UNL d   1      31.263 -13.973  -0.714  0.00  0.00     0.038 A 
ATOM     17  C   UNL d   1      31.338 -16.805  -0.754  0.00  0.00     0.001 A 
ATOM     18  C   UNL d   1      32.005 -16.017  -1.774  0.00  0.00     0.002 A 
ATOM     19  C   UNL d   1      31.991 -14.672  -1.799  0.00  0.00     0.030 A 
ATOM     20  N   UNL d   1      31.102 -12.734  -0.506  0.00  0.00    -0.385 N 
ATOM     21  C   UNL d   1      30.290 -12.515   0.710  0.00  0.00     0.155 A 
ATOM     22  H   UNL d   1      31.485 -12.001  -1.112  0.00  0.00     0.160 HD
ENDBRANCH  12  13
ENDBRANCH  11  12
ENDBRANCH   9  11
ENDBRANCH   1   7
BRANCH   4  23
ATOM     23  C   UNL d   1      23.333 -18.397  -1.313  0.00  0.00     0.370 C 
ATOM     24  N   UNL d   1      23.067 -19.570  -0.145  0.00  0.00    -0.252 NA
ATOM     25  C   UNL d   1      21.575 -19.666  -0.026  0.00  0.00     0.046 C 
ATOM     26  H   UNL d   1      23.417 -19.324   0.786  0.00  0.00     0.130 HD
ATOM     27  C   UNL d   1      20.669 -20.495   0.670  0.00  0.00     0.028 C 
ATOM     28  C   UNL d   1      20.929 -18.654  -0.711  0.00  0.00     0.117 C 
ATOM     29  C   UNL d   1      19.265 -20.343   0.403  0.00  0.00     0.021 C 
ATOM     30  C   UNL d   1      18.858 -19.490  -0.613  0.00  0.00     0.118 C 
ATOM     31  N   UNL d   1      19.666 -18.576  -1.131  0.00  0.00    -0.252 NA
ATOM     32  S   UNL d   1      21.941 -17.278  -0.889  0.00  0.00    -0.057 SA
ENDBRANCH   4  23
TORSDOF 5
ENDMDL
