MODEL 1
REMARK VINA RESULT:   -31.006      0.000      0.000
REMARK INTER + INTRA:         -35.272
REMARK INTER:                 -34.287
REMARK INTRA:                  -0.985
REMARK CONF_INDEPENDENT:        3.281
REMARK UNBOUND:                -0.985
REMARK  11 active torsions:
REMARK  status: ('A' for Active; 'I' for Inactive)
REMARK    1  A    between atoms: C_2  and  C_3 
REMARK    2  A    between atoms: C_3  and  N_4 
REMARK    3  A    between atoms: C_5  and  S_6 
REMARK    4  A    between atoms: S_6  and  C_7 
REMARK    5  A    between atoms: C_7  and  C_8 
REMARK       I    between atoms: C_8  and  N_10 
REMARK    6  A    between atoms: N_10  and  C_11 
REMARK    7  A    between atoms: C_12  and  C_11 
REMARK    8  A    between atoms: C_12  and  C_22 
REMARK    9  A    between atoms: C_12  and  C_13 
REMARK   10  A    between atoms: C_25  and  O_26 
REMARK   11  A    between atoms: C_32  and  O_33 
ROOT
ATOM      1  C   UNL d   1      25.954 -15.394  -0.629  0.00  0.00     0.068 C 
ENDROOT
BRANCH   1   2
ATOM      2  C   UNL d   1      26.753 -14.511   0.349  0.00  0.00    -0.048 A 
ATOM      3  C   UNL d   1      26.704 -13.106   0.304  0.00  0.00     0.011 A 
ATOM      4  C   UNL d   1      27.257 -12.310   1.296  0.00  0.00     0.037 A 
ATOM      5  C   UNL d   1      28.006 -12.895   2.297  0.00  0.00     0.068 A 
ATOM      6  C   UNL d   1      28.100 -14.285   2.366  0.00  0.00     0.037 A 
ATOM      7  C   UNL d   1      27.509 -15.087   1.383  0.00  0.00     0.011 A 
BRANCH   5   8
ATOM      8  O   UNL d   1      28.633 -11.995   3.105  0.00  0.00    -0.356 OA
ATOM      9  C   UNL d   1      29.658 -12.537   3.923  0.00  0.00     0.210 C 
ENDBRANCH   5   8
ENDBRANCH   1   2
BRANCH   1  10
ATOM     10  C   UNL d   1      25.809 -14.780  -2.015  0.00  0.00    -0.040 C 
ATOM     11  C   UNL d   1      26.803 -14.748  -2.906  0.00  0.00    -0.005 A 
ATOM     12  C   UNL d   1      28.195 -15.020  -2.790  0.00  0.00     0.014 A 
ATOM     13  C   UNL d   1      26.156 -14.604  -4.217  0.00  0.00     0.038 A 
ATOM     14  C   UNL d   1      28.925 -15.162  -3.896  0.00  0.00     0.001 A 
ATOM     15  C   UNL d   1      28.320 -15.031  -5.208  0.00  0.00     0.002 A 
ATOM     16  C   UNL d   1      27.012 -14.761  -5.408  0.00  0.00     0.030 A 
ATOM     17  N   UNL d   1      24.885 -14.434  -4.109  0.00  0.00    -0.385 N 
ATOM     18  C   UNL d   1      24.488 -14.471  -2.675  0.00  0.00     0.155 C 
ATOM     19  H   UNL d   1      24.261 -14.340  -4.905  0.00  0.00     0.160 HD
ENDBRANCH   1  10
BRANCH   1  20
ATOM     20  C   UNL d   1      26.552 -16.845  -0.900  0.00  0.00     0.136 C 
BRANCH  20  21
ATOM     21  N   UNL d   1      25.611 -17.968  -0.722  0.00  0.00    -0.359 N 
ATOM     22  C   UNL d   1      24.316 -18.008  -1.185  0.00  0.00     0.227 C 
ATOM     23  O   UNL d   1      23.952 -17.199  -2.043  0.00  0.00    -0.273 OA
ATOM     24  H   UNL d   1      25.972 -18.817  -0.311  0.00  0.00     0.162 HD
BRANCH  22  25
ATOM     25  C   UNL d   1      23.383 -19.080  -0.517  0.00  0.00     0.185 C 
BRANCH  25  26
ATOM     26  S   UNL d   1      21.944 -18.235   0.232  0.00  0.00    -0.081 SA
BRANCH  26  27
ATOM     27  C   UNL d   1      20.524 -19.143  -0.114  0.00  0.00     0.187 C 
ATOM     28  N   UNL d   1      19.897 -19.896   0.936  0.00  0.00    -0.315 N 
ATOM     29  C   UNL d   1      18.981 -20.808   0.288  0.00  0.00     0.347 C 
ATOM     30  N   UNL d   1      18.788 -20.043  -0.918  0.00  0.00    -0.265 N 
ATOM     31  N   UNL d   1      19.891 -19.270  -1.241  0.00  0.00    -0.150 NA
ATOM     32  H   UNL d   1      18.225 -20.452  -1.659  0.00  0.00     0.187 HD
BRANCH  28  33
ATOM     33  C   UNL d   1      20.060 -19.754   2.373  0.00  0.00     0.129 C 
BRANCH  33  34
ATOM     34  C   UNL d   1      19.249 -20.825   3.112  0.00  0.00     0.015 C 
ATOM     35  C   UNL d   1      19.530 -20.820   4.608  0.00  0.00     0.006 C 
ENDBRANCH  33  34
ENDBRANCH  28  33
BRANCH  29  36
ATOM     36  O   UNL d   1      17.818 -20.975   1.038  0.00  0.00    -0.358 OA
ATOM     37  H   UNL d   1      17.447 -21.830   0.784  0.00  0.00     0.214 HD
ENDBRANCH  29  36
ENDBRANCH  26  27
ENDBRANCH  25  26
ENDBRANCH  22  25
ENDBRANCH  20  21
ENDBRANCH   1  20
TORSDOF 11
ENDMDL
MODEL 2
REMARK VINA RESULT:   -30.585      1.069      1.687
REMARK INTER + INTRA:         -35.020
REMARK INTER:                 -33.866
REMARK INTRA:                  -1.154
REMARK CONF_INDEPENDENT:        3.281
REMARK UNBOUND:                -1.154
REMARK  11 active torsions:
REMARK  status: ('A' for Active; 'I' for Inactive)
REMARK    1  A    between atoms: C_2  and  C_3 
REMARK    2  A    between atoms: C_3  and  N_4 
REMARK    3  A    between atoms: C_5  and  S_6 
REMARK    4  A    between atoms: S_6  and  C_7 
REMARK    5  A    between atoms: C_7  and  C_8 
REMARK       I    between atoms: C_8  and  N_10 
REMARK    6  A    between atoms: N_10  and  C_11 
REMARK    7  A    between atoms: C_12  and  C_11 
REMARK    8  A    between atoms: C_12  and  C_22 
REMARK    9  A    between atoms: C_12  and  C_13 
REMARK   10  A    between atoms: C_25  and  O_26 
REMARK   11  A    between atoms: C_32  and  O_33 
ROOT
ATOM      1  C   UNL d   1      26.464 -15.979  -0.430  0.00  0.00     0.068 C 
ENDROOT
BRANCH   1   2
ATOM      2  C   UNL d   1      27.036 -14.921   0.533  0.00  0.00    -0.048 A 
ATOM      3  C   UNL d   1      26.271 -13.833   0.994  0.00  0.00     0.011 A 
ATOM      4  C   UNL d   1      26.708 -12.993   2.006  0.00  0.00     0.037 A 
ATOM      5  C   UNL d   1      27.991 -13.128   2.495  0.00  0.00     0.068 A 
ATOM      6  C   UNL d   1      28.792 -14.179   2.049  0.00  0.00     0.037 A 
ATOM      7  C   UNL d   1      28.334 -15.048   1.052  0.00  0.00     0.011 A 
BRANCH   5   8
ATOM      8  O   UNL d   1      28.353 -12.139   3.359  0.00  0.00    -0.356 OA
ATOM      9  C   UNL d   1      27.902 -10.841   3.007  0.00  0.00     0.210 C 
ENDBRANCH   5   8
ENDBRANCH   1   2
BRANCH   1  10
ATOM     10  C   UNL d   1      26.928 -15.799  -1.870  0.00  0.00    -0.040 C 
ATOM     11  C   UNL d   1      26.233 -15.111  -2.780  0.00  0.00    -0.005 A 
ATOM     12  C   UNL d   1      24.907 -14.595  -2.774  0.00  0.00     0.014 A 
ATOM     13  C   UNL d   1      27.207 -14.715  -3.805  0.00  0.00     0.038 A 
ATOM     14  C   UNL d   1      24.545 -13.721  -3.713  0.00  0.00     0.001 A 
ATOM     15  C   UNL d   1      25.481 -13.302  -4.739  0.00  0.00     0.002 A 
ATOM     16  C   UNL d   1      26.752 -13.752  -4.826  0.00  0.00     0.030 A 
ATOM     17  N   UNL d   1      28.366 -15.233  -3.593  0.00  0.00    -0.385 N 
ATOM     18  C   UNL d   1      28.338 -16.045  -2.347  0.00  0.00     0.155 C 
ATOM     19  H   UNL d   1      29.176 -15.056  -4.180  0.00  0.00     0.160 HD
ENDBRANCH   1  10
BRANCH   1  20
ATOM     20  C   UNL d   1      26.819 -17.493  -0.087  0.00  0.00     0.136 C 
BRANCH  20  21
ATOM     21  N   UNL d   1      25.705 -18.454  -0.202  0.00  0.00    -0.359 N 
ATOM     22  C   UNL d   1      24.483 -18.196  -0.779  0.00  0.00     0.227 C 
ATOM     23  O   UNL d   1      24.350 -17.207  -1.505  0.00  0.00    -0.273 OA
ATOM     24  H   UNL d   1      25.882 -19.408   0.078  0.00  0.00     0.162 HD
BRANCH  22  25
ATOM     25  C   UNL d   1      23.326 -19.190  -0.405  0.00  0.00     0.185 C 
BRANCH  25  26
ATOM     26  S   UNL d   1      21.879 -18.230   0.169  0.00  0.00    -0.081 SA
BRANCH  26  27
ATOM     27  C   UNL d   1      20.451 -19.139  -0.141  0.00  0.00     0.187 C 
ATOM     28  N   UNL d   1      19.800 -19.819   0.943  0.00  0.00    -0.315 N 
ATOM     29  C   UNL d   1      18.880 -20.757   0.339  0.00  0.00     0.347 C 
ATOM     30  N   UNL d   1      18.713 -20.063  -0.914  0.00  0.00    -0.265 N 
ATOM     31  N   UNL d   1      19.831 -19.325  -1.267  0.00  0.00    -0.150 NA
ATOM     32  H   UNL d   1      18.154 -20.509  -1.636  0.00  0.00     0.187 HD
BRANCH  28  33
ATOM     33  C   UNL d   1      19.946 -19.592   2.372  0.00  0.00     0.129 C 
BRANCH  33  34
ATOM     34  C   UNL d   1      19.386 -20.781   3.162  0.00  0.00     0.015 C 
ATOM     35  C   UNL d   1      19.901 -20.804   4.594  0.00  0.00     0.006 C 
ENDBRANCH  33  34
ENDBRANCH  28  33
BRANCH  29  36
ATOM     36  O   UNL d   1      17.705 -20.863   1.082  0.00  0.00    -0.358 OA
ATOM     37  H   UNL d   1      17.342 -21.739   0.898  0.00  0.00     0.214 HD
ENDBRANCH  29  36
ENDBRANCH  26  27
ENDBRANCH  25  26
ENDBRANCH  22  25
ENDBRANCH  20  21
ENDBRANCH   1  20
TORSDOF 11
ENDMDL
MODEL 3
REMARK VINA RESULT:   -30.557      1.973      4.629
REMARK INTER + INTRA:         -35.053
REMARK INTER:                 -33.838
REMARK INTRA:                  -1.216
REMARK CONF_INDEPENDENT:        3.281
REMARK UNBOUND:                -1.216
REMARK  11 active torsions:
REMARK  status: ('A' for Active; 'I' for Inactive)
REMARK    1  A    between atoms: C_2  and  C_3 
REMARK    2  A    between atoms: C_3  and  N_4 
REMARK    3  A    between atoms: C_5  and  S_6 
REMARK    4  A    between atoms: S_6  and  C_7 
REMARK    5  A    between atoms: C_7  and  C_8 
REMARK       I    between atoms: C_8  and  N_10 
REMARK    6  A    between atoms: N_10  and  C_11 
REMARK    7  A    between atoms: C_12  and  C_11 
REMARK    8  A    between atoms: C_12  and  C_22 
REMARK    9  A    between atoms: C_12  and  C_13 
REMARK   10  A    between atoms: C_25  and  O_26 
REMARK   11  A    between atoms: C_32  and  O_33 
ROOT
ATOM      1  C   UNL d   1      26.629 -15.682  -1.490  0.00  0.00     0.068 C 
ENDROOT
BRANCH   1   2
ATOM      2  C   UNL d   1      26.463 -14.736  -2.694  0.00  0.00    -0.048 A 
ATOM      3  C   UNL d   1      25.425 -13.788  -2.767  0.00  0.00     0.011 A 
ATOM      4  C   UNL d   1      25.382 -12.805  -3.745  0.00  0.00     0.037 A 
ATOM      5  C   UNL d   1      26.306 -12.827  -4.770  0.00  0.00     0.068 A 
ATOM      6  C   UNL d   1      27.338 -13.764  -4.749  0.00  0.00     0.037 A 
ATOM      7  C   UNL d   1      27.399 -14.733  -3.740  0.00  0.00     0.011 A 
BRANCH   5   8
ATOM      8  O   UNL d   1      26.052 -11.917  -5.752  0.00  0.00    -0.356 OA
ATOM      9  C   UNL d   1      25.907 -10.579  -5.305  0.00  0.00     0.210 C 
ENDBRANCH   5   8
ENDBRANCH   1   2
BRANCH   1  10
ATOM     10  C   UNL d   1      27.764 -15.280  -0.558  0.00  0.00    -0.040 C 
ATOM     11  C   UNL d   1      27.633 -14.347   0.390  0.00  0.00    -0.005 A 
ATOM     12  C   UNL d   1      26.614 -13.389   0.649  0.00  0.00     0.014 A 
ATOM     13  C   UNL d   1      28.689 -14.629   1.371  0.00  0.00     0.038 A 
ATOM     14  C   UNL d   1      26.608 -12.744   1.815  0.00  0.00     0.001 A 
ATOM     15  C   UNL d   1      27.631 -12.999   2.811  0.00  0.00     0.002 A 
ATOM     16  C   UNL d   1      28.641 -13.881   2.642  0.00  0.00     0.030 A 
ATOM     17  N   UNL d   1      29.469 -15.575   0.979  0.00  0.00    -0.385 N 
ATOM     18  C   UNL d   1      29.016 -16.092  -0.340  0.00  0.00     0.155 C 
ATOM     19  H   UNL d   1      30.243 -15.930   1.533  0.00  0.00     0.160 HD
ENDBRANCH   1  10
BRANCH   1  20
ATOM     20  C   UNL d   1      25.362 -15.817  -0.534  0.00  0.00     0.136 C 
BRANCH  20  21
ATOM     21  N   UNL d   1      24.717 -17.144  -0.509  0.00  0.00    -0.359 N 
ATOM     22  C   UNL d   1      24.279 -17.841  -1.612  0.00  0.00     0.227 C 
ATOM     23  O   UNL d   1      24.668 -17.509  -2.735  0.00  0.00    -0.273 OA
ATOM     24  H   UNL d   1      24.679 -17.627   0.377  0.00  0.00     0.162 HD
BRANCH  22  25
ATOM     25  C   UNL d   1      23.252 -18.996  -1.328  0.00  0.00     0.185 C 
BRANCH  25  26
ATOM     26  S   UNL d   1      22.146 -18.488   0.036  0.00  0.00    -0.081 SA
BRANCH  26  27
ATOM     27  C   UNL d   1      20.610 -19.232  -0.187  0.00  0.00     0.187 C 
ATOM     28  N   UNL d   1      19.966 -19.865   0.929  0.00  0.00    -0.315 N 
ATOM     29  C   UNL d   1      18.911 -20.685   0.376  0.00  0.00     0.347 C 
ATOM     30  N   UNL d   1      18.735 -19.948  -0.850  0.00  0.00    -0.265 N 
ATOM     31  N   UNL d   1      19.899 -19.325  -1.270  0.00  0.00    -0.150 NA
ATOM     32  H   UNL d   1      18.083 -20.315  -1.538  0.00  0.00     0.187 HD
BRANCH  28  33
ATOM     33  C   UNL d   1      20.232 -19.689   2.348  0.00  0.00     0.129 C 
BRANCH  33  34
ATOM     34  C   UNL d   1      19.591 -20.822   3.157  0.00  0.00     0.015 C 
ATOM     35  C   UNL d   1      19.575 -20.516   4.648  0.00  0.00     0.006 C 
ENDBRANCH  33  34
ENDBRANCH  28  33
BRANCH  29  36
ATOM     36  O   UNL d   1      17.786 -20.683   1.198  0.00  0.00    -0.358 OA
ATOM     37  H   UNL d   1      17.724 -21.568   1.581  0.00  0.00     0.214 HD
ENDBRANCH  29  36
ENDBRANCH  26  27
ENDBRANCH  25  26
ENDBRANCH  22  25
ENDBRANCH  20  21
ENDBRANCH   1  20
TORSDOF 11
ENDMDL
MODEL 4
REMARK VINA RESULT:   -29.871      2.243      4.065
REMARK INTER + INTRA:         -34.313
REMARK INTER:                 -33.152
REMARK INTRA:                  -1.161
REMARK CONF_INDEPENDENT:        3.281
REMARK UNBOUND:                -1.161
REMARK  11 active torsions:
REMARK  status: ('A' for Active; 'I' for Inactive)
REMARK    1  A    between atoms: C_2  and  C_3 
REMARK    2  A    between atoms: C_3  and  N_4 
REMARK    3  A    between atoms: C_5  and  S_6 
REMARK    4  A    between atoms: S_6  and  C_7 
REMARK    5  A    between atoms: C_7  and  C_8 
REMARK       I    between atoms: C_8  and  N_10 
REMARK    6  A    between atoms: N_10  and  C_11 
REMARK    7  A    between atoms: C_12  and  C_11 
REMARK    8  A    between atoms: C_12  and  C_22 
REMARK    9  A    between atoms: C_12  and  C_13 
REMARK   10  A    between atoms: C_25  and  O_26 
REMARK   11  A    between atoms: C_32  and  O_33 
ROOT
ATOM      1  C   UNL d   1      26.601 -15.820  -1.480  0.00  0.00     0.068 C 
ENDROOT
BRANCH   1   2
ATOM      2  C   UNL d   1      26.290 -14.806  -2.596  0.00  0.00    -0.048 A 
ATOM      3  C   UNL d   1      25.769 -13.527  -2.326  0.00  0.00     0.011 A 
ATOM      4  C   UNL d   1      25.673 -12.542  -3.297  0.00  0.00     0.037 A 
ATOM      5  C   UNL d   1      25.964 -12.852  -4.610  0.00  0.00     0.068 A 
ATOM      6  C   UNL d   1      26.461 -14.116  -4.926  0.00  0.00     0.037 A 
ATOM      7  C   UNL d   1      26.592 -15.097  -3.937  0.00  0.00     0.011 A 
BRANCH   5   8
ATOM      8  O   UNL d   1      25.667 -11.852  -5.485  0.00  0.00    -0.356 OA
ATOM      9  C   UNL d   1      26.391 -10.648  -5.288  0.00  0.00     0.210 C 
ENDBRANCH   5   8
ENDBRANCH   1   2
BRANCH   1  10
ATOM     10  C   UNL d   1      28.001 -15.671  -0.900  0.00  0.00    -0.040 C 
ATOM     11  C   UNL d   1      29.108 -16.004  -1.570  0.00  0.00    -0.005 A 
ATOM     12  C   UNL d   1      29.307 -16.728  -2.779  0.00  0.00     0.014 A 
ATOM     13  C   UNL d   1      30.195 -15.240  -0.945  0.00  0.00     0.038 A 
ATOM     14  C   UNL d   1      30.503 -16.700  -3.364  0.00  0.00     0.001 A 
ATOM     15  C   UNL d   1      31.600 -15.952  -2.780  0.00  0.00     0.002 A 
ATOM     16  C   UNL d   1      31.501 -15.250  -1.630  0.00  0.00     0.030 A 
ATOM     17  N   UNL d   1      29.794 -14.599   0.097  0.00  0.00    -0.385 N 
ATOM     18  C   UNL d   1      28.338 -14.827   0.304  0.00  0.00     0.155 C 
ATOM     19  H   UNL d   1      30.395 -13.994   0.650  0.00  0.00     0.160 HD
ENDBRANCH   1  10
BRANCH   1  20
ATOM     20  C   UNL d   1      25.640 -15.770  -0.210  0.00  0.00     0.136 C 
BRANCH  20  21
ATOM     21  N   UNL d   1      24.512 -16.721  -0.223  0.00  0.00    -0.359 N 
ATOM     22  C   UNL d   1      24.617 -18.085  -0.375  0.00  0.00     0.227 C 
ATOM     23  O   UNL d   1      25.713 -18.631  -0.222  0.00  0.00    -0.273 OA
ATOM     24  H   UNL d   1      23.595 -16.359  -0.007  0.00  0.00     0.162 HD
BRANCH  22  25
ATOM     25  C   UNL d   1      23.299 -18.830  -0.793  0.00  0.00     0.185 C 
BRANCH  25  26
ATOM     26  S   UNL d   1      21.912 -18.201   0.219  0.00  0.00    -0.081 SA
BRANCH  26  27
ATOM     27  C   UNL d   1      20.503 -19.124  -0.134  0.00  0.00     0.187 C 
ATOM     28  N   UNL d   1      19.875 -19.879   0.913  0.00  0.00    -0.315 N 
ATOM     29  C   UNL d   1      18.973 -20.802   0.261  0.00  0.00     0.347 C 
ATOM     30  N   UNL d   1      18.782 -20.044  -0.949  0.00  0.00    -0.265 N 
ATOM     31  N   UNL d   1      19.881 -19.261  -1.266  0.00  0.00    -0.150 NA
ATOM     32  H   UNL d   1      18.229 -20.461  -1.692  0.00  0.00     0.187 HD
BRANCH  28  33
ATOM     33  C   UNL d   1      20.025 -19.729   2.351  0.00  0.00     0.129 C 
BRANCH  33  34
ATOM     34  C   UNL d   1      19.245 -20.825   3.087  0.00  0.00     0.015 C 
ATOM     35  C   UNL d   1      19.530 -20.819   4.582  0.00  0.00     0.006 C 
ENDBRANCH  33  34
ENDBRANCH  28  33
BRANCH  29  36
ATOM     36  O   UNL d   1      17.806 -20.977   1.004  0.00  0.00    -0.358 OA
ATOM     37  H   UNL d   1      17.928 -21.783   1.523  0.00  0.00     0.214 HD
ENDBRANCH  29  36
ENDBRANCH  26  27
ENDBRANCH  25  26
ENDBRANCH  22  25
ENDBRANCH  20  21
ENDBRANCH   1  20
TORSDOF 11
ENDMDL
MODEL 5
REMARK VINA RESULT:   -29.732      2.313      4.617
REMARK INTER + INTRA:         -34.178
REMARK INTER:                 -33.013
REMARK INTRA:                  -1.165
REMARK CONF_INDEPENDENT:        3.281
REMARK UNBOUND:                -1.165
REMARK  11 active torsions:
REMARK  status: ('A' for Active; 'I' for Inactive)
REMARK    1  A    between atoms: C_2  and  C_3 
REMARK    2  A    between atoms: C_3  and  N_4 
REMARK    3  A    between atoms: C_5  and  S_6 
REMARK    4  A    between atoms: S_6  and  C_7 
REMARK    5  A    between atoms: C_7  and  C_8 
REMARK       I    between atoms: C_8  and  N_10 
REMARK    6  A    between atoms: N_10  and  C_11 
REMARK    7  A    between atoms: C_12  and  C_11 
REMARK    8  A    between atoms: C_12  and  C_22 
REMARK    9  A    between atoms: C_12  and  C_13 
REMARK   10  A    between atoms: C_25  and  O_26 
REMARK   11  A    between atoms: C_32  and  O_33 
ROOT
ATOM      1  C   UNL d   1      26.593 -15.783  -1.973  0.00  0.00     0.068 C 
ENDROOT
BRANCH   1   2
ATOM      2  C   UNL d   1      27.195 -15.119  -3.226  0.00  0.00    -0.048 A 
ATOM      3  C   UNL d   1      28.110 -15.786  -4.062  0.00  0.00     0.011 A 
ATOM      4  C   UNL d   1      28.503 -15.276  -5.291  0.00  0.00     0.037 A 
ATOM      5  C   UNL d   1      28.101 -14.008  -5.659  0.00  0.00     0.068 A 
ATOM      6  C   UNL d   1      27.212 -13.302  -4.848  0.00  0.00     0.037 A 
ATOM      7  C   UNL d   1      26.789 -13.836  -3.625  0.00  0.00     0.011 A 
BRANCH   5   8
ATOM      8  O   UNL d   1      28.690 -13.559  -6.802  0.00  0.00    -0.356 OA
ATOM      9  C   UNL d   1      30.008 -14.035  -7.023  0.00  0.00     0.210 C 
ENDBRANCH   5   8
ENDBRANCH   1   2
BRANCH   1  10
ATOM     10  C   UNL d   1      27.470 -15.645  -0.735  0.00  0.00    -0.040 C 
ATOM     11  C   UNL d   1      28.614 -16.315  -0.574  0.00  0.00    -0.005 A 
ATOM     12  C   UNL d   1      29.190 -17.402  -1.289  0.00  0.00     0.014 A 
ATOM     13  C   UNL d   1      29.390 -15.544   0.406  0.00  0.00     0.038 A 
ATOM     14  C   UNL d   1      30.467 -17.717  -1.076  0.00  0.00     0.001 A 
ATOM     15  C   UNL d   1      31.267 -16.975  -0.121  0.00  0.00     0.002 A 
ATOM     16  C   UNL d   1      30.796 -15.940   0.610  0.00  0.00     0.030 A 
ATOM     17  N   UNL d   1      28.713 -14.561   0.889  0.00  0.00    -0.385 N 
ATOM     18  C   UNL d   1      27.365 -14.518   0.262  0.00  0.00     0.155 C 
ATOM     19  H   UNL d   1      29.087 -13.898   1.562  0.00  0.00     0.160 HD
ENDBRANCH   1  10
BRANCH   1  20
ATOM     20  C   UNL d   1      25.171 -15.233  -1.512  0.00  0.00     0.136 C 
BRANCH  20  21
ATOM     21  N   UNL d   1      24.140 -16.257  -1.255  0.00  0.00    -0.359 N 
ATOM     22  C   UNL d   1      24.378 -17.597  -1.054  0.00  0.00     0.227 C 
ATOM     23  O   UNL d   1      25.521 -17.979  -0.789  0.00  0.00    -0.273 OA
ATOM     24  H   UNL d   1      23.192 -15.940  -1.119  0.00  0.00     0.162 HD
BRANCH  22  25
ATOM     25  C   UNL d   1      23.140 -18.547  -1.237  0.00  0.00     0.185 C 
BRANCH  25  26
ATOM     26  S   UNL d   1      22.004 -18.324   0.178  0.00  0.00    -0.081 SA
BRANCH  26  27
ATOM     27  C   UNL d   1      20.544 -19.177  -0.142  0.00  0.00     0.187 C 
ATOM     28  N   UNL d   1      19.890 -19.880   0.926  0.00  0.00    -0.315 N 
ATOM     29  C   UNL d   1      18.932 -20.764   0.301  0.00  0.00     0.347 C 
ATOM     30  N   UNL d   1      18.766 -20.017  -0.920  0.00  0.00    -0.265 N 
ATOM     31  N   UNL d   1      19.900 -19.299  -1.264  0.00  0.00    -0.150 NA
ATOM     32  H   UNL d   1      18.182 -20.417  -1.649  0.00  0.00     0.187 HD
BRANCH  28  33
ATOM     33  C   UNL d   1      20.066 -19.715   2.359  0.00  0.00     0.129 C 
BRANCH  33  34
ATOM     34  C   UNL d   1      19.331 -20.825   3.119  0.00  0.00     0.015 C 
ATOM     35  C   UNL d   1      19.525 -20.707   4.625  0.00  0.00     0.006 C 
ENDBRANCH  33  34
ENDBRANCH  28  33
BRANCH  29  36
ATOM     36  O   UNL d   1      17.767 -20.865   1.060  0.00  0.00    -0.358 OA
ATOM     37  H   UNL d   1      17.228 -21.552   0.646  0.00  0.00     0.214 HD
ENDBRANCH  29  36
ENDBRANCH  26  27
ENDBRANCH  25  26
ENDBRANCH  22  25
ENDBRANCH  20  21
ENDBRANCH   1  20
TORSDOF 11
ENDMDL
MODEL 6
REMARK VINA RESULT:   -29.429      1.489      1.944
REMARK INTER + INTRA:         -33.717
REMARK INTER:                 -32.711
REMARK INTRA:                  -1.007
REMARK CONF_INDEPENDENT:        3.281
REMARK UNBOUND:                -1.007
REMARK  11 active torsions:
REMARK  status: ('A' for Active; 'I' for Inactive)
REMARK    1  A    between atoms: C_2  and  C_3 
REMARK    2  A    between atoms: C_3  and  N_4 
REMARK    3  A    between atoms: C_5  and  S_6 
REMARK    4  A    between atoms: S_6  and  C_7 
REMARK    5  A    between atoms: C_7  and  C_8 
REMARK       I    between atoms: C_8  and  N_10 
REMARK    6  A    between atoms: N_10  and  C_11 
REMARK    7  A    between atoms: C_12  and  C_11 
REMARK    8  A    between atoms: C_12  and  C_22 
REMARK    9  A    between atoms: C_12  and  C_13 
REMARK   10  A    between atoms: C_25  and  O_26 
REMARK   11  A    between atoms: C_32  and  O_33 
ROOT
ATOM      1  C   UNL d   1      26.732 -15.400  -1.137  0.00  0.00     0.068 C 
ENDROOT
BRANCH   1   2
ATOM      2  C   UNL d   1      27.164 -14.394  -0.054  0.00  0.00    -0.048 A 
ATOM      3  C   UNL d   1      27.297 -13.017  -0.317  0.00  0.00     0.011 A 
ATOM      4  C   UNL d   1      27.490 -12.083   0.690  0.00  0.00     0.037 A 
ATOM      5  C   UNL d   1      27.701 -12.513   1.984  0.00  0.00     0.068 A 
ATOM      6  C   UNL d   1      27.600 -13.871   2.285  0.00  0.00     0.037 A 
ATOM      7  C   UNL d   1      27.368 -14.809   1.272  0.00  0.00     0.011 A 
BRANCH   5   8
ATOM      8  O   UNL d   1      28.046 -11.513   2.842  0.00  0.00    -0.356 OA
ATOM      9  C   UNL d   1      29.174 -11.786   3.658  0.00  0.00     0.210 C 
ENDBRANCH   5   8
ENDBRANCH   1   2
BRANCH   1  10
ATOM     10  C   UNL d   1      27.712 -15.493  -2.300  0.00  0.00    -0.040 C 
ATOM     11  C   UNL d   1      28.886 -16.124  -2.215  0.00  0.00    -0.005 A 
ATOM     12  C   UNL d   1      29.614 -16.636  -1.105  0.00  0.00     0.014 A 
ATOM     13  C   UNL d   1      29.257 -16.458  -3.597  0.00  0.00     0.038 A 
ATOM     14  C   UNL d   1      30.645 -17.451  -1.324  0.00  0.00     0.001 A 
ATOM     15  C   UNL d   1      31.037 -17.809  -2.673  0.00  0.00     0.002 A 
ATOM     16  C   UNL d   1      30.411 -17.357  -3.782  0.00  0.00     0.030 A 
ATOM     17  N   UNL d   1      28.434 -15.955  -4.450  0.00  0.00    -0.385 N 
ATOM     18  C   UNL d   1      27.353 -15.220  -3.739  0.00  0.00     0.155 C 
ATOM     19  H   UNL d   1      28.508 -16.098  -5.453  0.00  0.00     0.160 HD
ENDBRANCH   1  10
BRANCH   1  20
ATOM     20  C   UNL d   1      26.551 -16.906  -0.653  0.00  0.00     0.136 C 
BRANCH  20  21
ATOM     21  N   UNL d   1      25.367 -17.611  -1.182  0.00  0.00    -0.359 N 
ATOM     22  C   UNL d   1      24.074 -17.143  -1.142  0.00  0.00     0.227 C 
ATOM     23  O   UNL d   1      23.866 -15.949  -0.909  0.00  0.00    -0.273 OA
ATOM     24  H   UNL d   1      25.525 -18.462  -1.701  0.00  0.00     0.162 HD
BRANCH  22  25
ATOM     25  C   UNL d   1      22.949 -18.219  -1.354  0.00  0.00     0.185 C 
BRANCH  25  26
ATOM     26  S   UNL d   1      22.018 -18.421   0.206  0.00  0.00    -0.081 SA
BRANCH  26  27
ATOM     27  C   UNL d   1      20.528 -19.214  -0.135  0.00  0.00     0.187 C 
ATOM     28  N   UNL d   1      19.822 -19.872   0.927  0.00  0.00    -0.315 N 
ATOM     29  C   UNL d   1      18.839 -20.723   0.294  0.00  0.00     0.347 C 
ATOM     30  N   UNL d   1      18.733 -19.987  -0.941  0.00  0.00    -0.265 N 
ATOM     31  N   UNL d   1      19.905 -19.325  -1.269  0.00  0.00    -0.150 NA
ATOM     32  H   UNL d   1      18.148 -20.372  -1.677  0.00  0.00     0.187 HD
BRANCH  28  33
ATOM     33  C   UNL d   1      19.973 -19.694   2.362  0.00  0.00     0.129 C 
BRANCH  33  34
ATOM     34  C   UNL d   1      19.180 -20.765   3.121  0.00  0.00     0.015 C 
ATOM     35  C   UNL d   1      19.589 -20.843   4.585  0.00  0.00     0.006 C 
ENDBRANCH  33  34
ENDBRANCH  28  33
BRANCH  29  36
ATOM     36  O   UNL d   1      17.655 -20.761   1.028  0.00  0.00    -0.358 OA
ATOM     37  H   UNL d   1      16.946 -20.947   0.397  0.00  0.00     0.214 HD
ENDBRANCH  29  36
ENDBRANCH  26  27
ENDBRANCH  25  26
ENDBRANCH  22  25
ENDBRANCH  20  21
ENDBRANCH   1  20
TORSDOF 11
ENDMDL
MODEL 7
REMARK VINA RESULT:   -28.285      2.225      4.504
REMARK INTER + INTRA:         -32.602
REMARK INTER:                 -31.566
REMARK INTRA:                  -1.035
REMARK CONF_INDEPENDENT:        3.281
REMARK UNBOUND:                -1.035
REMARK  11 active torsions:
REMARK  status: ('A' for Active; 'I' for Inactive)
REMARK    1  A    between atoms: C_2  and  C_3 
REMARK    2  A    between atoms: C_3  and  N_4 
REMARK    3  A    between atoms: C_5  and  S_6 
REMARK    4  A    between atoms: S_6  and  C_7 
REMARK    5  A    between atoms: C_7  and  C_8 
REMARK       I    between atoms: C_8  and  N_10 
REMARK    6  A    between atoms: N_10  and  C_11 
REMARK    7  A    between atoms: C_12  and  C_11 
REMARK    8  A    between atoms: C_12  and  C_22 
REMARK    9  A    between atoms: C_12  and  C_13 
REMARK   10  A    between atoms: C_25  and  O_26 
REMARK   11  A    between atoms: C_32  and  O_33 
ROOT
ATOM      1  C   UNL d   1      26.972 -15.188  -0.961  0.00  0.00     0.068 C 
ENDROOT
BRANCH   1   2
ATOM      2  C   UNL d   1      27.167 -14.968  -2.473  0.00  0.00    -0.048 A 
ATOM      3  C   UNL d   1      28.380 -14.502  -3.014  0.00  0.00     0.011 A 
ATOM      4  C   UNL d   1      28.630 -14.490  -4.378  0.00  0.00     0.037 A 
ATOM      5  C   UNL d   1      27.616 -14.811  -5.258  0.00  0.00     0.068 A 
ATOM      6  C   UNL d   1      26.390 -15.256  -4.764  0.00  0.00     0.037 A 
ATOM      7  C   UNL d   1      26.153 -15.302  -3.385  0.00  0.00     0.011 A 
BRANCH   5   8
ATOM      8  O   UNL d   1      27.938 -14.595  -6.563  0.00  0.00    -0.356 OA
ATOM      9  C   UNL d   1      29.242 -14.081  -6.782  0.00  0.00     0.210 C 
ENDBRANCH   5   8
ENDBRANCH   1   2
BRANCH   1  10
ATOM     10  C   UNL d   1      27.498 -14.039  -0.111  0.00  0.00    -0.040 C 
ATOM     11  C   UNL d   1      28.793 -13.717  -0.041  0.00  0.00    -0.005 A 
ATOM     12  C   UNL d   1      29.966 -14.390  -0.482  0.00  0.00     0.014 A 
ATOM     13  C   UNL d   1      28.829 -12.315   0.394  0.00  0.00     0.038 A 
ATOM     14  C   UNL d   1      31.122 -13.727  -0.515  0.00  0.00     0.001 A 
ATOM     15  C   UNL d   1      31.196 -12.340  -0.100  0.00  0.00     0.002 A 
ATOM     16  C   UNL d   1      30.135 -11.631   0.345  0.00  0.00     0.030 A 
ATOM     17  N   UNL d   1      27.656 -11.871   0.684  0.00  0.00    -0.385 N 
ATOM     18  C   UNL d   1      26.640 -12.933   0.450  0.00  0.00     0.155 C 
ATOM     19  H   UNL d   1      27.474 -10.917   0.979  0.00  0.00     0.160 HD
ENDBRANCH   1  10
BRANCH   1  20
ATOM     20  C   UNL d   1      25.467 -15.381  -0.477  0.00  0.00     0.136 C 
BRANCH  20  21
ATOM     21  N   UNL d   1      24.770 -16.567  -1.010  0.00  0.00    -0.359 N 
ATOM     22  C   UNL d   1      23.416 -16.664  -1.237  0.00  0.00     0.227 C 
ATOM     23  O   UNL d   1      22.731 -15.639  -1.275  0.00  0.00    -0.273 OA
ATOM     24  H   UNL d   1      25.339 -17.340  -1.325  0.00  0.00     0.162 HD
BRANCH  22  25
ATOM     25  C   UNL d   1      22.849 -18.122  -1.380  0.00  0.00     0.185 C 
BRANCH  25  26
ATOM     26  S   UNL d   1      22.255 -18.693   0.253  0.00  0.00    -0.081 SA
BRANCH  26  27
ATOM     27  C   UNL d   1      20.644 -19.276   0.085  0.00  0.00     0.187 C 
ATOM     28  N   UNL d   1      19.963 -19.802   1.234  0.00  0.00    -0.315 N 
ATOM     29  C   UNL d   1      18.814 -20.521   0.729  0.00  0.00     0.347 C 
ATOM     30  N   UNL d   1      18.688 -19.807  -0.517  0.00  0.00    -0.265 N 
ATOM     31  N   UNL d   1      19.901 -19.324  -0.979  0.00  0.00    -0.150 NA
ATOM     32  H   UNL d   1      17.985 -20.123  -1.179  0.00  0.00     0.187 HD
BRANCH  28  33
ATOM     33  C   UNL d   1      20.280 -19.614   2.640  0.00  0.00     0.129 C 
BRANCH  33  34
ATOM     34  C   UNL d   1      19.815 -20.823   3.460  0.00  0.00     0.015 C 
ATOM     35  C   UNL d   1      19.531 -20.451   4.909  0.00  0.00     0.006 C 
ENDBRANCH  33  34
ENDBRANCH  28  33
BRANCH  29  36
ATOM     36  O   UNL d   1      17.715 -20.375   1.574  0.00  0.00    -0.358 OA
ATOM     37  H   UNL d   1      18.014 -19.844   2.324  0.00  0.00     0.214 HD
ENDBRANCH  29  36
ENDBRANCH  26  27
ENDBRANCH  25  26
ENDBRANCH  22  25
ENDBRANCH  20  21
ENDBRANCH   1  20
TORSDOF 11
ENDMDL
