MODEL 1
REMARK VINA RESULT:    -8.459      0.000      0.000
REMARK INTER + INTRA:         -11.461
REMARK INTER:                 -10.249
REMARK INTRA:                  -1.212
REMARK CONF_INDEPENDENT:        1.790
REMARK UNBOUND:                -1.212
REMARK  6 active torsions:
REMARK  status: ('A' for Active; 'I' for Inactive)
REMARK    1  A    between atoms: O_2  and  C_3 
REMARK    2  A    between atoms: C_6  and  C_7 
REMARK       I    between atoms: C_7  and  N_9 
REMARK       I    between atoms: C_10  and  N_11 
REMARK       I    between atoms: C_10  and  N_19 
REMARK    3  A    between atoms: N_11  and  C_12 
REMARK    4  A    between atoms: C_12  and  C_13 
REMARK    5  A    between atoms: N_19  and  C_20 
REMARK    6  A    between atoms: C_29  and  O_30 
ROOT
ATOM      1  C   UNL d   1      27.653 -13.966   1.318  0.00  0.00     0.294 C 
ATOM      2  O   UNL d   1      28.024 -13.068   0.547  0.00  0.00    -0.265 OA
ATOM      3  N   UNL d   1      27.149 -15.186   0.923  0.00  0.00    -0.023 NA
ATOM      4  C   UNL d   1      27.098 -15.502  -0.344  0.00  0.00     0.704 C 
ATOM      5  N   UNL d   1      26.731 -16.773  -0.724  0.00  0.00    -0.220 N 
ATOM      6  N   UNL d   1      27.476 -14.686  -1.385  0.00  0.00    -0.190 N 
ATOM      7  H   UNL d   1      26.748 -16.978  -1.715  0.00  0.00     0.178 HD
ATOM      8  H   UNL d   1      27.831 -13.771  -1.097  0.00  0.00     0.184 HD
ENDROOT
BRANCH   5   9
ATOM      9  C   UNL d   1      26.048 -17.728   0.117  0.00  0.00     0.178 C 
BRANCH   9  10
ATOM     10  C   UNL d   1      24.569 -17.831  -0.195  0.00  0.00    -0.022 A 
ATOM     11  C   UNL d   1      23.754 -16.694  -0.223  0.00  0.00     0.012 A 
ATOM     12  C   UNL d   1      22.411 -16.799  -0.582  0.00  0.00     0.020 A 
ATOM     13  C   UNL d   1      21.907 -18.049  -0.895  0.00  0.00     0.116 A 
ATOM     14  N   UNL d   1      22.648 -19.175  -0.864  0.00  0.00    -0.273 NA
ATOM     15  C   UNL d   1      23.955 -19.041  -0.518  0.00  0.00     0.124 A 
ENDBRANCH   9  10
ENDBRANCH   5   9
BRANCH   6  16
ATOM     16  C   UNL d   1      27.276 -14.797  -2.776  0.00  0.00     0.055 A 
ATOM     17  C   UNL d   1      28.421 -14.939  -3.590  0.00  0.00     0.037 A 
ATOM     18  C   UNL d   1      28.317 -15.079  -4.981  0.00  0.00    -0.060 A 
ATOM     19  C   UNL d   1      29.516 -15.015  -5.878  0.00  0.00     0.048 C 
ATOM     20  C   UNL d   1      27.052 -15.200  -5.555  0.00  0.00     0.007 A 
ATOM     21  C   UNL d   1      25.914 -15.031  -4.773  0.00  0.00     0.009 A 
ATOM     22  C   UNL d   1      26.010 -14.785  -3.394  0.00  0.00    -0.035 A 
ATOM     23  C   UNL d   1      24.739 -14.450  -2.662  0.00  0.00     0.050 C 
ENDBRANCH   6  16
BRANCH   1  24
ATOM     24  C   UNL d   1      27.843 -13.749   2.792  0.00  0.00     0.037 A 
ATOM     25  C   UNL d   1      28.131 -14.825   3.634  0.00  0.00     0.020 A 
ATOM     26  C   UNL d   1      28.161 -14.653   5.031  0.00  0.00     0.040 A 
ATOM     27  C   UNL d   1      27.982 -13.389   5.634  0.00  0.00     0.101 A 
ATOM     28  C   UNL d   1      27.780 -12.287   4.773  0.00  0.00     0.102 A 
ATOM     29  C   UNL d   1      27.690 -12.489   3.373  0.00  0.00     0.056 A 
BRANCH  27  30
ATOM     30  O   UNL d   1      28.275 -13.396   6.981  0.00  0.00    -0.353 OA
ATOM     31  C   UNL d   1      29.434 -14.069   7.480  0.00  0.00     0.210 C 
ENDBRANCH  27  30
BRANCH  28  32
ATOM     32  O   UNL d   1      27.702 -10.940   5.032  0.00  0.00    -0.353 OA
ATOM     33  C   UNL d   1      28.754 -10.401   5.784  0.00  0.00     0.210 C 
ENDBRANCH  28  32
ENDBRANCH   1  24
TORSDOF 6
ENDMDL
MODEL 2
REMARK VINA RESULT:    -8.283      2.634      7.838
REMARK INTER + INTRA:         -11.380
REMARK INTER:                 -10.072
REMARK INTRA:                  -1.308
REMARK CONF_INDEPENDENT:        1.790
REMARK UNBOUND:                -1.308
REMARK  6 active torsions:
REMARK  status: ('A' for Active; 'I' for Inactive)
REMARK    1  A    between atoms: O_2  and  C_3 
REMARK    2  A    between atoms: C_6  and  C_7 
REMARK       I    between atoms: C_7  and  N_9 
REMARK       I    between atoms: C_10  and  N_11 
REMARK       I    between atoms: C_10  and  N_19 
REMARK    3  A    between atoms: N_11  and  C_12 
REMARK    4  A    between atoms: C_12  and  C_13 
REMARK    5  A    between atoms: N_19  and  C_20 
REMARK    6  A    between atoms: C_29  and  O_30 
ROOT
ATOM      1  C   UNL d   1      27.435 -12.902  -0.824  0.00  0.00     0.294 C 
ATOM      2  O   UNL d   1      27.695 -11.930  -0.097  0.00  0.00    -0.265 OA
ATOM      3  N   UNL d   1      27.525 -14.222  -0.438  0.00  0.00    -0.023 NA
ATOM      4  C   UNL d   1      27.837 -14.531   0.793  0.00  0.00     0.704 C 
ATOM      5  N   UNL d   1      27.784 -15.842   1.209  0.00  0.00    -0.220 N 
ATOM      6  N   UNL d   1      28.144 -13.633   1.788  0.00  0.00    -0.190 N 
ATOM      7  H   UNL d   1      27.995 -16.023   2.183  0.00  0.00     0.178 HD
ATOM      8  H   UNL d   1      28.098 -12.652   1.501  0.00  0.00     0.184 HD
ENDROOT
BRANCH   5   9
ATOM      9  C   UNL d   1      27.752 -16.991   0.335  0.00  0.00     0.178 C 
BRANCH   9  10
ATOM     10  C   UNL d   1      26.377 -17.247  -0.248  0.00  0.00    -0.022 A 
ATOM     11  C   UNL d   1      25.489 -18.141   0.360  0.00  0.00     0.012 A 
ATOM     12  C   UNL d   1      24.202 -18.311  -0.150  0.00  0.00     0.020 A 
ATOM     13  C   UNL d   1      23.835 -17.586  -1.269  0.00  0.00     0.116 A 
ATOM     14  N   UNL d   1      24.661 -16.727  -1.900  0.00  0.00    -0.273 NA
ATOM     15  C   UNL d   1      25.906 -16.577  -1.377  0.00  0.00     0.124 A 
ENDBRANCH   9  10
ENDBRANCH   5   9
BRANCH   6  16
ATOM     16  C   UNL d   1      28.702 -13.816   3.069  0.00  0.00     0.055 A 
ATOM     17  C   UNL d   1      27.966 -13.339   4.176  0.00  0.00     0.037 A 
ATOM     18  C   UNL d   1      28.434 -13.498   5.488  0.00  0.00    -0.060 A 
ATOM     19  C   UNL d   1      27.780 -12.816   6.652  0.00  0.00     0.048 C 
ATOM     20  C   UNL d   1      29.589 -14.246   5.708  0.00  0.00     0.007 A 
ATOM     21  C   UNL d   1      30.343 -14.695   4.629  0.00  0.00     0.009 A 
ATOM     22  C   UNL d   1      29.938 -14.450   3.307  0.00  0.00    -0.035 A 
ATOM     23  C   UNL d   1      30.896 -14.825   2.209  0.00  0.00     0.050 C 
ENDBRANCH   6  16
BRANCH   1  24
ATOM     24  C   UNL d   1      26.900 -12.625  -2.200  0.00  0.00     0.037 A 
ATOM     25  C   UNL d   1      27.086 -11.375  -2.793  0.00  0.00     0.020 A 
ATOM     26  C   UNL d   1      26.461 -11.061  -4.015  0.00  0.00     0.040 A 
ATOM     27  C   UNL d   1      25.691 -12.007  -4.726  0.00  0.00     0.101 A 
ATOM     28  C   UNL d   1      25.578 -13.300  -4.165  0.00  0.00     0.102 A 
ATOM     29  C   UNL d   1      26.163 -13.578  -2.904  0.00  0.00     0.056 A 
BRANCH  27  30
ATOM     30  O   UNL d   1      25.362 -11.580  -5.995  0.00  0.00    -0.353 OA
ATOM     31  C   UNL d   1      25.914 -10.376  -6.532  0.00  0.00     0.210 C 
ENDBRANCH  27  30
BRANCH  28  32
ATOM     32  O   UNL d   1      25.019 -14.454  -4.659  0.00  0.00    -0.353 OA
ATOM     33  C   UNL d   1      25.920 -15.470  -5.001  0.00  0.00     0.210 C 
ENDBRANCH  28  32
ENDBRANCH   1  24
TORSDOF 6
ENDMDL
MODEL 3
REMARK VINA RESULT:    -8.006      1.505      2.201
REMARK INTER + INTRA:         -10.881
REMARK INTER:                  -9.795
REMARK INTRA:                  -1.086
REMARK CONF_INDEPENDENT:        1.790
REMARK UNBOUND:                -1.086
REMARK  6 active torsions:
REMARK  status: ('A' for Active; 'I' for Inactive)
REMARK    1  A    between atoms: O_2  and  C_3 
REMARK    2  A    between atoms: C_6  and  C_7 
REMARK       I    between atoms: C_7  and  N_9 
REMARK       I    between atoms: C_10  and  N_11 
REMARK       I    between atoms: C_10  and  N_19 
REMARK    3  A    between atoms: N_11  and  C_12 
REMARK    4  A    between atoms: C_12  and  C_13 
REMARK    5  A    between atoms: N_19  and  C_20 
REMARK    6  A    between atoms: C_29  and  O_30 
ROOT
ATOM      1  C   UNL d   1      28.517 -14.383   1.722  0.00  0.00     0.294 C 
ATOM      2  O   UNL d   1      29.254 -13.716   0.979  0.00  0.00    -0.265 OA
ATOM      3  N   UNL d   1      27.887 -15.555   1.362  0.00  0.00    -0.023 NA
ATOM      4  C   UNL d   1      28.100 -16.087   0.188  0.00  0.00     0.704 C 
ATOM      5  N   UNL d   1      27.586 -17.328  -0.111  0.00  0.00    -0.220 N 
ATOM      6  N   UNL d   1      28.895 -15.551  -0.799  0.00  0.00    -0.190 N 
ATOM      7  H   UNL d   1      27.814 -17.713  -1.019  0.00  0.00     0.178 HD
ATOM      8  H   UNL d   1      29.348 -14.669  -0.544  0.00  0.00     0.184 HD
ENDROOT
BRANCH   5   9
ATOM      9  C   UNL d   1      26.524 -17.985   0.616  0.00  0.00     0.178 C 
BRANCH   9  10
ATOM     10  C   UNL d   1      25.153 -17.687   0.047  0.00  0.00    -0.022 A 
ATOM     11  C   UNL d   1      24.086 -18.575   0.228  0.00  0.00     0.012 A 
ATOM     12  C   UNL d   1      22.813 -18.251  -0.241  0.00  0.00     0.020 A 
ATOM     13  C   UNL d   1      22.638 -17.044  -0.895  0.00  0.00     0.116 A 
ATOM     14  N   UNL d   1      23.639 -16.165  -1.110  0.00  0.00    -0.273 NA
ATOM     15  C   UNL d   1      24.866 -16.505  -0.636  0.00  0.00     0.124 A 
ENDBRANCH   9  10
ENDBRANCH   5   9
BRANCH   6  16
ATOM     16  C   UNL d   1      29.042 -15.883  -2.160  0.00  0.00     0.055 A 
ATOM     17  C   UNL d   1      28.261 -15.167  -3.095  0.00  0.00     0.037 A 
ATOM     18  C   UNL d   1      28.358 -15.415  -4.471  0.00  0.00    -0.060 A 
ATOM     19  C   UNL d   1      27.392 -14.825  -5.454  0.00  0.00     0.048 C 
ATOM     20  C   UNL d   1      29.331 -16.301  -4.931  0.00  0.00     0.007 A 
ATOM     21  C   UNL d   1      30.087 -17.037  -4.024  0.00  0.00     0.009 A 
ATOM     22  C   UNL d   1      29.923 -16.873  -2.640  0.00  0.00    -0.035 A 
ATOM     23  C   UNL d   1      30.660 -17.826  -1.738  0.00  0.00     0.050 C 
ENDBRANCH   6  16
BRANCH   1  24
ATOM     24  C   UNL d   1      28.362 -13.931   3.146  0.00  0.00     0.037 A 
ATOM     25  C   UNL d   1      28.513 -14.840   4.196  0.00  0.00     0.020 A 
ATOM     26  C   UNL d   1      28.223 -14.459   5.520  0.00  0.00     0.040 A 
ATOM     27  C   UNL d   1      27.845 -13.140   5.854  0.00  0.00     0.101 A 
ATOM     28  C   UNL d   1      27.780 -12.201   4.799  0.00  0.00     0.102 A 
ATOM     29  C   UNL d   1      28.015 -12.618   3.465  0.00  0.00     0.056 A 
BRANCH  27  30
ATOM     30  O   UNL d   1      27.831 -12.919   7.214  0.00  0.00    -0.353 OA
ATOM     31  C   UNL d   1      28.880 -12.187   7.852  0.00  0.00     0.210 C 
ENDBRANCH  27  30
BRANCH  28  32
ATOM     32  O   UNL d   1      27.572 -10.843   4.809  0.00  0.00    -0.353 OA
ATOM     33  C   UNL d   1      28.715 -10.050   4.652  0.00  0.00     0.210 C 
ENDBRANCH  28  32
ENDBRANCH   1  24
TORSDOF 6
ENDMDL
MODEL 4
REMARK VINA RESULT:    -7.889      3.900      7.776
REMARK INTER + INTRA:         -10.725
REMARK INTER:                  -9.679
REMARK INTRA:                  -1.046
REMARK CONF_INDEPENDENT:        1.790
REMARK UNBOUND:                -1.046
REMARK  6 active torsions:
REMARK  status: ('A' for Active; 'I' for Inactive)
REMARK    1  A    between atoms: O_2  and  C_3 
REMARK    2  A    between atoms: C_6  and  C_7 
REMARK       I    between atoms: C_7  and  N_9 
REMARK       I    between atoms: C_10  and  N_11 
REMARK       I    between atoms: C_10  and  N_19 
REMARK    3  A    between atoms: N_11  and  C_12 
REMARK    4  A    between atoms: C_12  and  C_13 
REMARK    5  A    between atoms: N_19  and  C_20 
REMARK    6  A    between atoms: C_29  and  O_30 
ROOT
ATOM      1  C   UNL d   1      27.455 -17.306   0.005  0.00  0.00     0.294 C 
ATOM      2  O   UNL d   1      28.060 -18.362  -0.237  0.00  0.00    -0.265 OA
ATOM      3  N   UNL d   1      28.052 -16.128   0.399  0.00  0.00    -0.023 NA
ATOM      4  C   UNL d   1      29.354 -16.039   0.474  0.00  0.00     0.704 C 
ATOM      5  N   UNL d   1      29.949 -14.823   0.726  0.00  0.00    -0.220 N 
ATOM      6  N   UNL d   1      30.239 -17.063   0.230  0.00  0.00    -0.190 N 
ATOM      7  H   UNL d   1      30.961 -14.801   0.733  0.00  0.00     0.178 HD
ATOM      8  H   UNL d   1      29.799 -17.946  -0.043  0.00  0.00     0.184 HD
ENDROOT
BRANCH   5   9
ATOM      9  C   UNL d   1      29.277 -13.666   1.270  0.00  0.00     0.178 C 
BRANCH   9  10
ATOM     10  C   UNL d   1      28.794 -13.881   2.689  0.00  0.00    -0.022 A 
ATOM     11  C   UNL d   1      29.660 -14.349   3.685  0.00  0.00     0.012 A 
ATOM     12  C   UNL d   1      29.217 -14.475   5.001  0.00  0.00     0.020 A 
ATOM     13  C   UNL d   1      27.907 -14.138   5.291  0.00  0.00     0.116 A 
ATOM     14  N   UNL d   1      27.030 -13.701   4.363  0.00  0.00    -0.273 NA
ATOM     15  C   UNL d   1      27.492 -13.583   3.091  0.00  0.00     0.124 A 
ENDBRANCH   9  10
ENDBRANCH   5   9
BRANCH   6  16
ATOM     16  C   UNL d   1      31.621 -17.180   0.479  0.00  0.00     0.055 A 
ATOM     17  C   UNL d   1      32.158 -16.423   1.544  0.00  0.00     0.037 A 
ATOM     18  C   UNL d   1      33.518 -16.494   1.878  0.00  0.00    -0.060 A 
ATOM     19  C   UNL d   1      34.146 -15.546   2.855  0.00  0.00     0.048 C 
ATOM     20  C   UNL d   1      34.327 -17.420   1.222  0.00  0.00     0.007 A 
ATOM     21  C   UNL d   1      33.823 -18.150   0.151  0.00  0.00     0.009 A 
ATOM     22  C   UNL d   1      32.488 -18.009  -0.260  0.00  0.00    -0.035 A 
ATOM     23  C   UNL d   1      32.077 -18.710  -1.527  0.00  0.00     0.050 C 
ENDBRANCH   6  16
BRANCH   1  24
ATOM     24  C   UNL d   1      25.972 -17.277  -0.228  0.00  0.00     0.037 A 
ATOM     25  C   UNL d   1      25.148 -18.257   0.331  0.00  0.00     0.020 A 
ATOM     26  C   UNL d   1      23.783 -18.323  -0.005  0.00  0.00     0.040 A 
ATOM     27  C   UNL d   1      23.173 -17.370  -0.848  0.00  0.00     0.101 A 
ATOM     28  C   UNL d   1      23.991 -16.327  -1.341  0.00  0.00     0.102 A 
ATOM     29  C   UNL d   1      25.376 -16.313  -1.042  0.00  0.00     0.056 A 
BRANCH  27  30
ATOM     30  O   UNL d   1      21.798 -17.476  -0.866  0.00  0.00    -0.353 OA
ATOM     31  C   UNL d   1      21.159 -18.755  -0.869  0.00  0.00     0.210 C 
ENDBRANCH  27  30
BRANCH  28  32
ATOM     32  O   UNL d   1      23.681 -15.200  -2.064  0.00  0.00    -0.353 OA
ATOM     33  C   UNL d   1      24.742 -14.619  -2.770  0.00  0.00     0.210 C 
ENDBRANCH  28  32
ENDBRANCH   1  24
TORSDOF 6
ENDMDL
MODEL 5
REMARK VINA RESULT:    -7.690      3.626      8.436
REMARK INTER + INTRA:         -10.357
REMARK INTER:                  -9.480
REMARK INTRA:                  -0.878
REMARK CONF_INDEPENDENT:        1.790
REMARK UNBOUND:                -0.878
REMARK  6 active torsions:
REMARK  status: ('A' for Active; 'I' for Inactive)
REMARK    1  A    between atoms: O_2  and  C_3 
REMARK    2  A    between atoms: C_6  and  C_7 
REMARK       I    between atoms: C_7  and  N_9 
REMARK       I    between atoms: C_10  and  N_11 
REMARK       I    between atoms: C_10  and  N_19 
REMARK    3  A    between atoms: N_11  and  C_12 
REMARK    4  A    between atoms: C_12  and  C_13 
REMARK    5  A    between atoms: N_19  and  C_20 
REMARK    6  A    between atoms: C_29  and  O_30 
ROOT
ATOM      1  C   UNL d   1      25.671 -13.406  -3.833  0.00  0.00     0.294 C 
ATOM      2  O   UNL d   1      25.166 -14.414  -4.352  0.00  0.00    -0.265 OA
ATOM      3  N   UNL d   1      26.026 -13.297  -2.505  0.00  0.00    -0.023 NA
ATOM      4  C   UNL d   1      25.909 -14.322  -1.703  0.00  0.00     0.704 C 
ATOM      5  N   UNL d   1      26.400 -14.252  -0.418  0.00  0.00    -0.220 N 
ATOM      6  N   UNL d   1      25.401 -15.553  -2.049  0.00  0.00    -0.190 N 
ATOM      7  H   UNL d   1      26.321 -15.086   0.149  0.00  0.00     0.178 HD
ATOM      8  H   UNL d   1      25.117 -15.631  -3.028  0.00  0.00     0.184 HD
ENDROOT
BRANCH   5   9
ATOM      9  C   UNL d   1      26.734 -13.031   0.278  0.00  0.00     0.178 C 
BRANCH   9  10
ATOM     10  C   UNL d   1      27.149 -13.272   1.715  0.00  0.00    -0.022 A 
ATOM     11  C   UNL d   1      27.722 -14.486   2.109  0.00  0.00     0.012 A 
ATOM     12  C   UNL d   1      28.163 -14.664   3.421  0.00  0.00     0.020 A 
ATOM     13  C   UNL d   1      28.007 -13.621   4.316  0.00  0.00     0.116 A 
ATOM     14  N   UNL d   1      27.443 -12.440   3.988  0.00  0.00    -0.273 NA
ATOM     15  C   UNL d   1      27.030 -12.293   2.702  0.00  0.00     0.124 A 
ENDBRANCH   9  10
ENDBRANCH   5   9
BRANCH   6  16
ATOM     16  C   UNL d   1      25.014 -16.656  -1.262  0.00  0.00     0.055 A 
ATOM     17  C   UNL d   1      23.649 -17.016  -1.270  0.00  0.00     0.037 A 
ATOM     18  C   UNL d   1      23.178 -18.113  -0.535  0.00  0.00    -0.060 A 
ATOM     19  C   UNL d   1      21.714 -18.381  -0.359  0.00  0.00     0.048 C 
ATOM     20  C   UNL d   1      24.096 -18.932   0.119  0.00  0.00     0.007 A 
ATOM     21  C   UNL d   1      25.440 -18.575   0.164  0.00  0.00     0.009 A 
ATOM     22  C   UNL d   1      25.906 -17.419  -0.482  0.00  0.00    -0.035 A 
ATOM     23  C   UNL d   1      27.337 -17.021  -0.241  0.00  0.00     0.050 C 
ENDBRANCH   6  16
BRANCH   1  24
ATOM     24  C   UNL d   1      26.000 -12.246  -4.727  0.00  0.00     0.037 A 
ATOM     25  C   UNL d   1      26.837 -12.420  -5.832  0.00  0.00     0.020 A 
ATOM     26  C   UNL d   1      27.270 -11.312  -6.585  0.00  0.00     0.040 A 
ATOM     27  C   UNL d   1      26.823 -10.001  -6.311  0.00  0.00     0.101 A 
ATOM     28  C   UNL d   1      25.905  -9.841  -5.248  0.00  0.00     0.102 A 
ATOM     29  C   UNL d   1      25.530 -10.960  -4.462  0.00  0.00     0.056 A 
BRANCH  27  30
ATOM     30  O   UNL d   1      27.176  -9.102  -7.295  0.00  0.00    -0.353 OA
ATOM     31  C   UNL d   1      27.779  -9.543  -8.513  0.00  0.00     0.210 C 
ENDBRANCH  27  30
BRANCH  28  32
ATOM     32  O   UNL d   1      25.201  -8.742  -4.819  0.00  0.00    -0.353 OA
ATOM     33  C   UNL d   1      24.064  -8.415  -5.569  0.00  0.00     0.210 C 
ENDBRANCH  28  32
ENDBRANCH   1  24
TORSDOF 6
ENDMDL
MODEL 6
REMARK VINA RESULT:    -7.568      3.045      7.935
REMARK INTER + INTRA:         -10.261
REMARK INTER:                  -9.357
REMARK INTRA:                  -0.903
REMARK CONF_INDEPENDENT:        1.790
REMARK UNBOUND:                -0.903
REMARK  6 active torsions:
REMARK  status: ('A' for Active; 'I' for Inactive)
REMARK    1  A    between atoms: O_2  and  C_3 
REMARK    2  A    between atoms: C_6  and  C_7 
REMARK       I    between atoms: C_7  and  N_9 
REMARK       I    between atoms: C_10  and  N_11 
REMARK       I    between atoms: C_10  and  N_19 
REMARK    3  A    between atoms: N_11  and  C_12 
REMARK    4  A    between atoms: C_12  and  C_13 
REMARK    5  A    between atoms: N_19  and  C_20 
REMARK    6  A    between atoms: C_29  and  O_30 
ROOT
ATOM      1  C   UNL d   1      29.491 -16.124  -1.908  0.00  0.00     0.294 C 
ATOM      2  O   UNL d   1      30.089 -15.082  -1.596  0.00  0.00    -0.265 OA
ATOM      3  N   UNL d   1      28.415 -16.649  -1.226  0.00  0.00    -0.023 NA
ATOM      4  C   UNL d   1      27.901 -16.010  -0.207  0.00  0.00     0.704 C 
ATOM      5  N   UNL d   1      26.741 -16.464   0.378  0.00  0.00    -0.220 N 
ATOM      6  N   UNL d   1      28.372 -14.826   0.311  0.00  0.00    -0.190 N 
ATOM      7  H   UNL d   1      26.363 -15.911   1.136  0.00  0.00     0.178 HD
ATOM      8  H   UNL d   1      29.184 -14.443  -0.180  0.00  0.00     0.184 HD
ENDROOT
BRANCH   5   9
ATOM      9  C   UNL d   1      26.192 -17.790   0.215  0.00  0.00     0.178 C 
BRANCH   9  10
ATOM     10  C   UNL d   1      24.733 -17.774  -0.194  0.00  0.00    -0.022 A 
ATOM     11  C   UNL d   1      23.974 -18.949  -0.211  0.00  0.00     0.012 A 
ATOM     12  C   UNL d   1      22.615 -18.905  -0.523  0.00  0.00     0.020 A 
ATOM     13  C   UNL d   1      22.047 -17.680  -0.824  0.00  0.00     0.116 A 
ATOM     14  N   UNL d   1      22.742 -16.524  -0.839  0.00  0.00    -0.273 NA
ATOM     15  C   UNL d   1      24.061 -16.597  -0.525  0.00  0.00     0.124 A 
ENDBRANCH   9  10
ENDBRANCH   5   9
BRANCH   6  16
ATOM     16  C   UNL d   1      28.071 -14.149   1.510  0.00  0.00     0.055 A 
ATOM     17  C   UNL d   1      28.336 -14.821   2.724  0.00  0.00     0.037 A 
ATOM     18  C   UNL d   1      28.089 -14.215   3.963  0.00  0.00    -0.060 A 
ATOM     19  C   UNL d   1      28.160 -14.982   5.250  0.00  0.00     0.048 C 
ATOM     20  C   UNL d   1      27.687 -12.881   3.996  0.00  0.00     0.007 A 
ATOM     21  C   UNL d   1      27.390 -12.214   2.811  0.00  0.00     0.009 A 
ATOM     22  C   UNL d   1      27.534 -12.847   1.566  0.00  0.00    -0.035 A 
ATOM     23  C   UNL d   1      27.033 -12.110   0.354  0.00  0.00     0.050 C 
ENDBRANCH   6  16
BRANCH   1  24
ATOM     24  C   UNL d   1      29.909 -16.823  -3.169  0.00  0.00     0.037 A 
ATOM     25  C   UNL d   1      30.620 -18.024  -3.110  0.00  0.00     0.020 A 
ATOM     26  C   UNL d   1      31.144 -18.605  -4.280  0.00  0.00     0.040 A 
ATOM     27  C   UNL d   1      30.913 -18.052  -5.558  0.00  0.00     0.101 A 
ATOM     28  C   UNL d   1      30.117 -16.885  -5.622  0.00  0.00     0.102 A 
ATOM     29  C   UNL d   1      29.651 -16.280  -4.429  0.00  0.00     0.056 A 
BRANCH  27  30
ATOM     30  O   UNL d   1      31.311 -18.889  -6.580  0.00  0.00    -0.353 OA
ATOM     31  C   UNL d   1      30.426 -19.881  -7.106  0.00  0.00     0.210 C 
ENDBRANCH  27  30
BRANCH  28  32
ATOM     32  O   UNL d   1      29.615 -16.192  -6.697  0.00  0.00    -0.353 OA
ATOM     33  C   UNL d   1      29.460 -14.812  -6.514  0.00  0.00     0.210 C 
ENDBRANCH  28  32
ENDBRANCH   1  24
TORSDOF 6
ENDMDL
MODEL 7
REMARK VINA RESULT:    -7.546      1.475      2.235
REMARK INTER + INTRA:         -10.465
REMARK INTER:                  -9.336
REMARK INTRA:                  -1.129
REMARK CONF_INDEPENDENT:        1.790
REMARK UNBOUND:                -1.129
REMARK  6 active torsions:
REMARK  status: ('A' for Active; 'I' for Inactive)
REMARK    1  A    between atoms: O_2  and  C_3 
REMARK    2  A    between atoms: C_6  and  C_7 
REMARK       I    between atoms: C_7  and  N_9 
REMARK       I    between atoms: C_10  and  N_11 
REMARK       I    between atoms: C_10  and  N_19 
REMARK    3  A    between atoms: N_11  and  C_12 
REMARK    4  A    between atoms: C_12  and  C_13 
REMARK    5  A    between atoms: N_19  and  C_20 
REMARK    6  A    between atoms: C_29  and  O_30 
ROOT
ATOM      1  C   UNL d   1      27.968 -13.427   2.181  0.00  0.00     0.294 C 
ATOM      2  O   UNL d   1      28.201 -12.348   1.615  0.00  0.00    -0.265 OA
ATOM      3  N   UNL d   1      27.553 -14.578   1.546  0.00  0.00    -0.023 NA
ATOM      4  C   UNL d   1      27.445 -14.613   0.244  0.00  0.00     0.704 C 
ATOM      5  N   UNL d   1      27.172 -15.801  -0.394  0.00  0.00    -0.220 N 
ATOM      6  N   UNL d   1      27.672 -13.553  -0.604  0.00  0.00    -0.190 N 
ATOM      7  H   UNL d   1      27.139 -15.782  -1.406  0.00  0.00     0.178 HD
ATOM      8  H   UNL d   1      27.960 -12.691  -0.134  0.00  0.00     0.184 HD
ENDROOT
BRANCH   5   9
ATOM      9  C   UNL d   1      26.639 -16.983   0.243  0.00  0.00     0.178 C 
BRANCH   9  10
ATOM     10  C   UNL d   1      25.217 -17.287  -0.181  0.00  0.00    -0.022 A 
ATOM     11  C   UNL d   1      24.714 -18.593  -0.143  0.00  0.00     0.012 A 
ATOM     12  C   UNL d   1      23.381 -18.844  -0.469  0.00  0.00     0.020 A 
ATOM     13  C   UNL d   1      22.581 -17.778  -0.839  0.00  0.00     0.116 A 
ATOM     14  N   UNL d   1      23.025 -16.506  -0.908  0.00  0.00    -0.273 NA
ATOM     15  C   UNL d   1      24.325 -16.291  -0.579  0.00  0.00     0.124 A 
ENDBRANCH   9  10
ENDBRANCH   5   9
BRANCH   6  16
ATOM     16  C   UNL d   1      27.388 -13.378  -1.973  0.00  0.00     0.055 A 
ATOM     17  C   UNL d   1      26.045 -13.522  -2.385  0.00  0.00     0.037 A 
ATOM     18  C   UNL d   1      25.668 -13.344  -3.723  0.00  0.00    -0.060 A 
ATOM     19  C   UNL d   1      24.297 -13.700  -4.216  0.00  0.00     0.048 C 
ATOM     20  C   UNL d   1      26.619 -12.899  -4.640  0.00  0.00     0.007 A 
ATOM     21  C   UNL d   1      27.952 -12.783  -4.259  0.00  0.00     0.009 A 
ATOM     22  C   UNL d   1      28.359 -13.061  -2.945  0.00  0.00    -0.035 A 
ATOM     23  C   UNL d   1      29.837 -13.071  -2.666  0.00  0.00     0.050 C 
ENDBRANCH   6  16
BRANCH   1  24
ATOM     24  C   UNL d   1      28.239 -13.519   3.656  0.00  0.00     0.037 A 
ATOM     25  C   UNL d   1      28.755 -14.693   4.209  0.00  0.00     0.020 A 
ATOM     26  C   UNL d   1      28.869 -14.838   5.604  0.00  0.00     0.040 A 
ATOM     27  C   UNL d   1      28.546 -13.791   6.494  0.00  0.00     0.101 A 
ATOM     28  C   UNL d   1      28.108 -12.573   5.926  0.00  0.00     0.102 A 
ATOM     29  C   UNL d   1      27.940 -12.467   4.522  0.00  0.00     0.056 A 
BRANCH  27  30
ATOM     30  O   UNL d   1      28.942 -14.052   7.789  0.00  0.00    -0.353 OA
ATOM     31  C   UNL d   1      30.322 -14.235   8.114  0.00  0.00     0.210 C 
ENDBRANCH  27  30
BRANCH  28  32
ATOM     32  O   UNL d   1      27.844 -11.352   6.498  0.00  0.00    -0.353 OA
ATOM     33  C   UNL d   1      28.904 -10.437   6.499  0.00  0.00     0.210 C 
ENDBRANCH  28  32
ENDBRANCH   1  24
TORSDOF 6
ENDMDL
MODEL 8
REMARK VINA RESULT:    -7.507      3.606      8.796
REMARK INTER + INTRA:         -10.240
REMARK INTER:                  -9.297
REMARK INTRA:                  -0.942
REMARK CONF_INDEPENDENT:        1.790
REMARK UNBOUND:                -0.942
REMARK  6 active torsions:
REMARK  status: ('A' for Active; 'I' for Inactive)
REMARK    1  A    between atoms: O_2  and  C_3 
REMARK    2  A    between atoms: C_6  and  C_7 
REMARK       I    between atoms: C_7  and  N_9 
REMARK       I    between atoms: C_10  and  N_11 
REMARK       I    between atoms: C_10  and  N_19 
REMARK    3  A    between atoms: N_11  and  C_12 
REMARK    4  A    between atoms: C_12  and  C_13 
REMARK    5  A    between atoms: N_19  and  C_20 
REMARK    6  A    between atoms: C_29  and  O_30 
ROOT
ATOM      1  C   UNL d   1      25.993 -13.771  -4.164  0.00  0.00     0.294 C 
ATOM      2  O   UNL d   1      25.517 -14.817  -4.631  0.00  0.00    -0.265 OA
ATOM      3  N   UNL d   1      26.234 -13.542  -2.826  0.00  0.00    -0.023 NA
ATOM      4  C   UNL d   1      26.029 -14.486  -1.946  0.00  0.00     0.704 C 
ATOM      5  N   UNL d   1      26.407 -14.302  -0.636  0.00  0.00    -0.220 N 
ATOM      6  N   UNL d   1      25.530 -15.739  -2.222  0.00  0.00    -0.190 N 
ATOM      7  H   UNL d   1      26.264 -15.079  -0.003  0.00  0.00     0.178 HD
ATOM      8  H   UNL d   1      25.330 -15.906  -3.211  0.00  0.00     0.184 HD
ENDROOT
BRANCH   5   9
ATOM      9  C   UNL d   1      26.702 -13.026  -0.027  0.00  0.00     0.178 C 
BRANCH   9  10
ATOM     10  C   UNL d   1      27.125 -13.151   1.422  0.00  0.00    -0.022 A 
ATOM     11  C   UNL d   1      27.687 -14.336   1.911  0.00  0.00     0.012 A 
ATOM     12  C   UNL d   1      28.136 -14.410   3.230  0.00  0.00     0.020 A 
ATOM     13  C   UNL d   1      28.001 -13.294   4.036  0.00  0.00     0.116 A 
ATOM     14  N   UNL d   1      27.450 -12.137   3.615  0.00  0.00    -0.273 NA
ATOM     15  C   UNL d   1      27.028 -12.092   2.325  0.00  0.00     0.124 A 
ENDBRANCH   9  10
ENDBRANCH   5   9
BRANCH   6  16
ATOM     16  C   UNL d   1      25.056 -16.760  -1.374  0.00  0.00     0.055 A 
ATOM     17  C   UNL d   1      23.679 -17.066  -1.428  0.00  0.00     0.037 A 
ATOM     18  C   UNL d   1      23.124 -18.082  -0.637  0.00  0.00    -0.060 A 
ATOM     19  C   UNL d   1      21.642 -18.278  -0.520  0.00  0.00     0.048 C 
ATOM     20  C   UNL d   1      23.972 -18.882   0.128  0.00  0.00     0.007 A 
ATOM     21  C   UNL d   1      25.326 -18.575   0.218  0.00  0.00     0.009 A 
ATOM     22  C   UNL d   1      25.874 -17.493  -0.490  0.00  0.00    -0.035 A 
ATOM     23  C   UNL d   1      27.307 -17.134  -0.204  0.00  0.00     0.050 C 
ENDBRANCH   6  16
BRANCH   1  24
ATOM     24  C   UNL d   1      26.420 -12.702  -5.129  0.00  0.00     0.037 A 
ATOM     25  C   UNL d   1      25.708 -11.504  -5.217  0.00  0.00     0.020 A 
ATOM     26  C   UNL d   1      26.011 -10.563  -6.220  0.00  0.00     0.040 A 
ATOM     27  C   UNL d   1      27.081 -10.748  -7.121  0.00  0.00     0.101 A 
ATOM     28  C   UNL d   1      27.856 -11.922  -6.971  0.00  0.00     0.102 A 
ATOM     29  C   UNL d   1      27.497 -12.886  -5.996  0.00  0.00     0.056 A 
BRANCH  27  30
ATOM     30  O   UNL d   1      27.352  -9.620  -7.866  0.00  0.00    -0.353 OA
ATOM     31  C   UNL d   1      27.808  -9.721  -9.217  0.00  0.00     0.210 C 
ENDBRANCH  27  30
BRANCH  28  32
ATOM     32  O   UNL d   1      29.013 -12.326  -7.591  0.00  0.00    -0.353 OA
ATOM     33  C   UNL d   1      29.283 -13.700  -7.544  0.00  0.00     0.210 C 
ENDBRANCH  28  32
ENDBRANCH   1  24
TORSDOF 6
ENDMDL
MODEL 9
REMARK VINA RESULT:    -7.397      4.927      7.561
REMARK INTER + INTRA:         -10.425
REMARK INTER:                  -9.187
REMARK INTRA:                  -1.238
REMARK CONF_INDEPENDENT:        1.790
REMARK UNBOUND:                -1.238
REMARK  6 active torsions:
REMARK  status: ('A' for Active; 'I' for Inactive)
REMARK    1  A    between atoms: O_2  and  C_3 
REMARK    2  A    between atoms: C_6  and  C_7 
REMARK       I    between atoms: C_7  and  N_9 
REMARK       I    between atoms: C_10  and  N_11 
REMARK       I    between atoms: C_10  and  N_19 
REMARK    3  A    between atoms: N_11  and  C_12 
REMARK    4  A    between atoms: C_12  and  C_13 
REMARK    5  A    between atoms: N_19  and  C_20 
REMARK    6  A    between atoms: C_29  and  O_30 
ROOT
ATOM      1  C   UNL d   1      25.427 -13.808  -3.315  0.00  0.00     0.294 C 
ATOM      2  O   UNL d   1      24.344 -13.353  -3.714  0.00  0.00    -0.265 OA
ATOM      3  N   UNL d   1      26.660 -13.245  -3.567  0.00  0.00    -0.023 NA
ATOM      4  C   UNL d   1      26.750 -12.111  -4.211  0.00  0.00     0.704 C 
ATOM      5  N   UNL d   1      27.968 -11.482  -4.333  0.00  0.00    -0.220 N 
ATOM      6  N   UNL d   1      25.692 -11.403  -4.731  0.00  0.00    -0.190 N 
ATOM      7  H   UNL d   1      27.977 -10.587  -4.805  0.00  0.00     0.178 HD
ATOM      8  H   UNL d   1      24.776 -11.828  -4.564  0.00  0.00     0.184 HD
ENDROOT
BRANCH   5   9
ATOM      9  C   UNL d   1      29.252 -12.109  -4.122  0.00  0.00     0.178 C 
BRANCH   9  10
ATOM     10  C   UNL d   1      29.310 -13.523  -4.662  0.00  0.00    -0.022 A 
ATOM     11  C   UNL d   1      30.081 -14.507  -4.033  0.00  0.00     0.012 A 
ATOM     12  C   UNL d   1      30.067 -15.820  -4.502  0.00  0.00     0.020 A 
ATOM     13  C   UNL d   1      29.286 -16.118  -5.604  0.00  0.00     0.116 A 
ATOM     14  N   UNL d   1      28.541 -15.201  -6.255  0.00  0.00    -0.273 NA
ATOM     15  C   UNL d   1      28.570 -13.932  -5.771  0.00  0.00     0.124 A 
ENDBRANCH   9  10
ENDBRANCH   5   9
BRANCH   6  16
ATOM     16  C   UNL d   1      25.648 -10.310  -5.620  0.00  0.00     0.055 A 
ATOM     17  C   UNL d   1      24.869  -9.194  -5.245  0.00  0.00     0.037 A 
ATOM     18  C   UNL d   1      24.786  -8.054  -6.056  0.00  0.00    -0.060 A 
ATOM     19  C   UNL d   1      23.803  -6.955  -5.784  0.00  0.00     0.048 C 
ATOM     20  C   UNL d   1      25.584  -7.977  -7.196  0.00  0.00     0.007 A 
ATOM     21  C   UNL d   1      26.333  -9.078  -7.598  0.00  0.00     0.009 A 
ATOM     22  C   UNL d   1      26.341 -10.264  -6.846  0.00  0.00    -0.035 A 
ATOM     23  C   UNL d   1      27.043 -11.455  -7.441  0.00  0.00     0.050 C 
ENDBRANCH   6  16
BRANCH   1  24
ATOM     24  C   UNL d   1      25.395 -15.012  -2.419  0.00  0.00     0.037 A 
ATOM     25  C   UNL d   1      26.584 -15.621  -2.008  0.00  0.00     0.020 A 
ATOM     26  C   UNL d   1      26.559 -16.834  -1.294  0.00  0.00     0.040 A 
ATOM     27  C   UNL d   1      25.349 -17.444  -0.898  0.00  0.00     0.101 A 
ATOM     28  C   UNL d   1      24.149 -16.778  -1.238  0.00  0.00     0.102 A 
ATOM     29  C   UNL d   1      24.193 -15.591  -2.011  0.00  0.00     0.056 A 
BRANCH  27  30
ATOM     30  O   UNL d   1      25.543 -18.489  -0.020  0.00  0.00    -0.353 OA
ATOM     31  C   UNL d   1      26.659 -18.503   0.874  0.00  0.00     0.210 C 
ENDBRANCH  27  30
BRANCH  28  32
ATOM     32  O   UNL d   1      22.844 -17.038  -0.897  0.00  0.00    -0.353 OA
ATOM     33  C   UNL d   1      22.545 -18.374  -0.601  0.00  0.00     0.210 C 
ENDBRANCH  28  32
ENDBRANCH   1  24
TORSDOF 6
ENDMDL
