MODEL 1
REMARK VINA RESULT:   -20.203      0.000      0.000
REMARK INTER + INTRA:         -22.010
REMARK INTER:                 -21.695
REMARK INTRA:                  -0.316
REMARK CONF_INDEPENDENT:        1.492
REMARK UNBOUND:                -0.316
REMARK  5 active torsions:
REMARK  status: ('A' for Active; 'I' for Inactive)
REMARK       I    between atoms: C_2  and  N_3 
REMARK    1  A    between atoms: C_2  and  C_13 
REMARK    2  A    between atoms: N_3  and  N_4 
REMARK    3  A    between atoms: C_5  and  C_6 
REMARK    4  A    between atoms: C_11  and  O_12 
REMARK    5  A    between atoms: C_22  and  O_23 
ROOT
ATOM      1  O   UNL d   1      22.424 -18.485   0.198  0.00  0.00    -0.266 OA
ATOM      2  C   UNL d   1      22.160 -17.757  -0.745  0.00  0.00     0.274 C 
ATOM      3  N   UNL d   1      20.875 -17.695  -1.347  0.00  0.00    -0.243 N 
ATOM      4  H   UNL d   1      20.658 -17.069  -2.107  0.00  0.00     0.192 HD
ENDROOT
BRANCH   2   5
ATOM      5  C   UNL d   1      23.240 -16.837  -1.309  0.00  0.00     0.067 A 
ATOM      6  C   UNL d   1      22.882 -15.568  -1.738  0.00  0.00     0.021 A 
ATOM      7  C   UNL d   1      23.863 -14.727  -2.273  0.00  0.00     0.013 A 
ATOM      8  C   UNL d   1      25.226 -15.074  -2.381  0.00  0.00    -0.026 A 
ATOM      9  C   UNL d   1      26.053 -14.139  -2.999  0.00  0.00    -0.005 C 
ATOM     10  C   UNL d   1      25.758 -16.286  -1.907  0.00  0.00     0.008 A 
ATOM     11  C   UNL d   1      27.405 -14.497  -3.274  0.00  0.00     0.043 C 
ATOM     12  C   UNL d   1      28.315 -15.403  -2.690  0.00  0.00    -0.016 C 
ATOM     13  C   UNL d   1      27.359 -16.334  -2.098  0.00  0.00     0.012 C 
ATOM     14  C   UNL d   1      24.643 -17.185  -1.364  0.00  0.00     0.092 A 
BRANCH  14  15
ATOM     15  O   UNL d   1      24.913 -18.456  -0.891  0.00  0.00    -0.359 OA
ATOM     16  H   UNL d   1      24.114 -18.978  -0.756  0.00  0.00     0.217 HD
ENDBRANCH  14  15
ENDBRANCH   2   5
BRANCH   3  17
ATOM     17  N   UNL d   1      19.905 -18.575  -0.907  0.00  0.00    -0.183 NA
ATOM     18  C   UNL d   1      20.156 -19.397   0.068  0.00  0.00     0.153 C 
BRANCH  18  19
ATOM     19  C   UNL d   1      19.118 -20.372   0.524  0.00  0.00     0.016 A 
ATOM     20  C   UNL d   1      18.032 -20.720  -0.295  0.00  0.00     0.016 A 
ATOM     21  C   UNL d   1      17.124 -21.708   0.123  0.00  0.00     0.001 A 
ATOM     22  C   UNL d   1      17.280 -22.325   1.367  0.00  0.00     0.003 A 
ATOM     23  C   UNL d   1      18.331 -21.948   2.204  0.00  0.00     0.037 A 
ATOM     24  C   UNL d   1      19.238 -20.971   1.785  0.00  0.00     0.077 A 
BRANCH  24  25
ATOM     25  O   UNL d   1      20.217 -20.533   2.631  0.00  0.00    -0.360 OA
ATOM     26  H   UNL d   1      21.036 -20.349   2.150  0.00  0.00     0.217 HD
ENDBRANCH  24  25
ENDBRANCH  18  19
ENDBRANCH   3  17
TORSDOF 5
ENDMDL
MODEL 2
REMARK VINA RESULT:   -18.611      1.300      2.012
REMARK INTER + INTRA:         -20.293
REMARK INTER:                 -20.102
REMARK INTRA:                  -0.191
REMARK CONF_INDEPENDENT:        1.492
REMARK UNBOUND:                -0.191
REMARK  5 active torsions:
REMARK  status: ('A' for Active; 'I' for Inactive)
REMARK       I    between atoms: C_2  and  N_3 
REMARK    1  A    between atoms: C_2  and  C_13 
REMARK    2  A    between atoms: N_3  and  N_4 
REMARK    3  A    between atoms: C_5  and  C_6 
REMARK    4  A    between atoms: C_11  and  O_12 
REMARK    5  A    between atoms: C_22  and  O_23 
ROOT
ATOM      1  O   UNL d   1      22.298 -18.326   0.441  0.00  0.00    -0.266 OA
ATOM      2  C   UNL d   1      22.169 -17.813  -0.659  0.00  0.00     0.274 C 
ATOM      3  N   UNL d   1      20.958 -17.850  -1.401  0.00  0.00    -0.243 N 
ATOM      4  H   UNL d   1      20.853 -17.398  -2.297  0.00  0.00     0.192 HD
ENDROOT
BRANCH   2   5
ATOM      5  C   UNL d   1      23.347 -17.068  -1.283  0.00  0.00     0.067 A 
ATOM      6  C   UNL d   1      24.548 -17.740  -1.458  0.00  0.00     0.021 A 
ATOM      7  C   UNL d   1      25.637 -17.058  -2.010  0.00  0.00     0.013 A 
ATOM      8  C   UNL d   1      25.590 -15.716  -2.442  0.00  0.00    -0.026 A 
ATOM      9  C   UNL d   1      26.786 -15.176  -2.909  0.00  0.00    -0.005 C 
ATOM     10  C   UNL d   1      24.423 -14.933  -2.416  0.00  0.00     0.008 A 
ATOM     11  C   UNL d   1      26.837 -13.785  -3.214  0.00  0.00     0.043 C 
ATOM     12  C   UNL d   1      25.872 -12.835  -3.611  0.00  0.00    -0.016 C 
ATOM     13  C   UNL d   1      24.682 -13.478  -3.064  0.00  0.00     0.012 C 
ATOM     14  C   UNL d   1      23.270 -15.709  -1.771  0.00  0.00     0.092 A 
BRANCH  14  15
ATOM     15  O   UNL d   1      22.030 -15.127  -1.582  0.00  0.00    -0.359 OA
ATOM     16  H   UNL d   1      21.877 -14.383  -2.175  0.00  0.00     0.217 HD
ENDBRANCH  14  15
ENDBRANCH   2   5
BRANCH   3  17
ATOM     17  N   UNL d   1      19.905 -18.587  -0.895  0.00  0.00    -0.183 NA
ATOM     18  C   UNL d   1      20.099 -19.434   0.071  0.00  0.00     0.153 C 
BRANCH  18  19
ATOM     19  C   UNL d   1      18.966 -20.255   0.599  0.00  0.00     0.016 A 
ATOM     20  C   UNL d   1      18.664 -21.515   0.058  0.00  0.00     0.016 A 
ATOM     21  C   UNL d   1      17.654 -22.303   0.634  0.00  0.00     0.001 A 
ATOM     22  C   UNL d   1      16.927 -21.827   1.728  0.00  0.00     0.003 A 
ATOM     23  C   UNL d   1      17.193 -20.555   2.239  0.00  0.00     0.037 A 
ATOM     24  C   UNL d   1      18.203 -19.774   1.670  0.00  0.00     0.077 A 
BRANCH  24  25
ATOM     25  O   UNL d   1      18.412 -18.496   2.105  0.00  0.00    -0.360 OA
ATOM     26  H   UNL d   1      18.896 -17.979   1.446  0.00  0.00     0.217 HD
ENDBRANCH  24  25
ENDBRANCH  18  19
ENDBRANCH   3  17
TORSDOF 5
ENDMDL
