MODEL 1
REMARK VINA RESULT:   -27.877      0.000      0.000
REMARK INTER + INTRA:         -32.259
REMARK INTER:                 -30.860
REMARK INTRA:                  -1.399
REMARK CONF_INDEPENDENT:        2.983
REMARK UNBOUND:                -1.399
REMARK  10 active torsions:
REMARK  status: ('A' for Active; 'I' for Inactive)
REMARK    1  A    between atoms: C_2  and  C_3 
REMARK    2  A    between atoms: C_3  and  S_4 
REMARK    3  A    between atoms: S_4  and  C_5 
REMARK    4  A    between atoms: C_8  and  C_9 
REMARK       I    between atoms: C_9  and  N_11 
REMARK    5  A    between atoms: N_11  and  C_12 
REMARK    6  A    between atoms: C_13  and  C_12 
REMARK    7  A    between atoms: C_13  and  N_24 
REMARK    8  A    between atoms: C_13  and  C_14 
REMARK    9  A    between atoms: C_16  and  O_17 
REMARK   10  A    between atoms: C_21  and  O_22 
ROOT
ATOM      1  C   UNL d   1      26.512 -15.127  -1.184  0.00  0.00     0.241 C 
ENDROOT
BRANCH   1   2
ATOM      2  N   UNL d   1      27.594 -16.177  -1.542  0.00  0.00    -0.061 N 
ATOM      3  C   UNL d   1      28.707 -15.612  -2.510  0.00  0.00     0.236 C 
ATOM      4  C   UNL d   1      29.798 -16.644  -2.764  0.00  0.00     0.028 C 
ATOM      5  C   UNL d   1      30.403 -17.052  -1.432  0.00  0.00     0.003 C 
ATOM      6  C   UNL d   1      29.312 -17.710  -0.605  0.00  0.00     0.028 C 
ATOM      7  C   UNL d   1      28.234 -16.705  -0.285  0.00  0.00     0.236 C 
ATOM      8  H   UNL d   1      27.126 -16.933  -2.058  0.00  0.00     0.280 HD
ENDBRANCH   1   2
BRANCH   1   9
ATOM      9  C   UNL d   1      26.898 -13.741  -0.757  0.00  0.00     0.010 A 
ATOM     10  C   UNL d   1      27.339 -13.484   0.574  0.00  0.00     0.049 A 
ATOM     11  C   UNL d   1      27.807 -12.216   0.956  0.00  0.00     0.069 A 
ATOM     12  C   UNL d   1      27.947 -11.240  -0.021  0.00  0.00     0.039 A 
ATOM     13  C   UNL d   1      27.531 -11.486  -1.336  0.00  0.00     0.040 A 
ATOM     14  C   UNL d   1      26.989 -12.718  -1.729  0.00  0.00     0.076 A 
BRANCH  11  15
ATOM     15  O   UNL d   1      28.087 -12.033   2.286  0.00  0.00    -0.356 OA
ATOM     16  C   UNL d   1      28.226 -13.226   3.072  0.00  0.00     0.210 C 
ENDBRANCH  11  15
BRANCH  14  17
ATOM     17  O   UNL d   1      26.714 -12.771  -3.078  0.00  0.00    -0.355 OA
ATOM     18  C   UNL d   1      25.525 -12.316  -3.733  0.00  0.00     0.210 C 
ENDBRANCH  14  17
ENDBRANCH   1   9
BRANCH   1  19
ATOM     19  C   UNL d   1      25.059 -15.191  -1.806  0.00  0.00     0.161 C 
BRANCH  19  20
ATOM     20  N   UNL d   1      24.237 -16.368  -1.427  0.00  0.00    -0.354 N 
ATOM     21  C   UNL d   1      22.862 -16.290  -1.318  0.00  0.00     0.256 C 
ATOM     22  O   UNL d   1      22.285 -15.209  -1.523  0.00  0.00    -0.268 OA
ATOM     23  H   UNL d   1      24.676 -17.206  -1.046  0.00  0.00     0.162 HD
BRANCH  21  24
ATOM     24  C   UNL d   1      22.064 -17.495  -0.954  0.00  0.00     0.090 A 
ATOM     25  C   UNL d   1      20.723 -17.547  -1.270  0.00  0.00     0.139 A 
ATOM     26  N   UNL d   1      19.894 -18.576  -0.943  0.00  0.00    -0.234 NA
ATOM     27  C   UNL d   1      20.426 -19.608  -0.272  0.00  0.00     0.189 A 
ATOM     28  N   UNL d   1      21.711 -19.689   0.040  0.00  0.00    -0.210 NA
ATOM     29  C   UNL d   1      22.477 -18.638  -0.304  0.00  0.00     0.146 A 
ATOM     30 CL   UNL d   1      24.048 -18.950   0.263  0.00  0.00    -0.061 Cl
BRANCH  27  31
ATOM     31  S   UNL d   1      19.399 -20.961   0.211  0.00  0.00    -0.090 SA
BRANCH  31  32
ATOM     32  C   UNL d   1      18.937 -20.438   1.906  0.00  0.00     0.082 C 
BRANCH  32  33
ATOM     33  C   UNL d   1      20.195 -20.414   2.780  0.00  0.00     0.006 C 
ATOM     34  C   UNL d   1      19.898 -20.800   4.223  0.00  0.00     0.006 C 
ENDBRANCH  32  33
ENDBRANCH  31  32
ENDBRANCH  27  31
ENDBRANCH  21  24
ENDBRANCH  19  20
ENDBRANCH   1  19
TORSDOF 10
ENDMDL
MODEL 2
REMARK VINA RESULT:   -27.748      2.192      3.757
REMARK INTER + INTRA:         -32.906
REMARK INTER:                 -30.731
REMARK INTRA:                  -2.175
REMARK CONF_INDEPENDENT:        2.983
REMARK UNBOUND:                -2.175
REMARK  10 active torsions:
REMARK  status: ('A' for Active; 'I' for Inactive)
REMARK    1  A    between atoms: C_2  and  C_3 
REMARK    2  A    between atoms: C_3  and  S_4 
REMARK    3  A    between atoms: S_4  and  C_5 
REMARK    4  A    between atoms: C_8  and  C_9 
REMARK       I    between atoms: C_9  and  N_11 
REMARK    5  A    between atoms: N_11  and  C_12 
REMARK    6  A    between atoms: C_13  and  C_12 
REMARK    7  A    between atoms: C_13  and  N_24 
REMARK    8  A    between atoms: C_13  and  C_14 
REMARK    9  A    between atoms: C_16  and  O_17 
REMARK   10  A    between atoms: C_21  and  O_22 
ROOT
ATOM      1  C   UNL d   1      26.107 -14.857  -2.085  0.00  0.00     0.241 C 
ENDROOT
BRANCH   1   2
ATOM      2  N   UNL d   1      26.941 -15.716  -1.100  0.00  0.00    -0.061 N 
ATOM      3  C   UNL d   1      26.737 -15.299   0.409  0.00  0.00     0.236 C 
ATOM      4  C   UNL d   1      27.501 -16.223   1.349  0.00  0.00     0.028 C 
ATOM      5  C   UNL d   1      27.031 -17.649   1.118  0.00  0.00     0.003 C 
ATOM      6  C   UNL d   1      27.379 -18.032  -0.310  0.00  0.00     0.028 C 
ATOM      7  C   UNL d   1      26.601 -17.173  -1.275  0.00  0.00     0.236 C 
ATOM      8  H   UNL d   1      27.932 -15.545  -1.311  0.00  0.00     0.280 HD
ENDBRANCH   1   2
BRANCH   1   9
ATOM      9  C   UNL d   1      26.640 -14.512  -3.444  0.00  0.00     0.010 A 
ATOM     10  C   UNL d   1      26.138 -13.385  -4.159  0.00  0.00     0.049 A 
ATOM     11  C   UNL d   1      26.702 -12.985  -5.382  0.00  0.00     0.069 A 
ATOM     12  C   UNL d   1      27.843 -13.637  -5.829  0.00  0.00     0.039 A 
ATOM     13  C   UNL d   1      28.355 -14.736  -5.127  0.00  0.00     0.040 A 
ATOM     14  C   UNL d   1      27.766 -15.205  -3.943  0.00  0.00     0.076 A 
BRANCH  11  15
ATOM     15  O   UNL d   1      26.069 -11.971  -6.055  0.00  0.00    -0.356 OA
ATOM     16  C   UNL d   1      26.910 -11.115  -6.841  0.00  0.00     0.210 C 
ENDBRANCH  11  15
BRANCH  14  17
ATOM     17  O   UNL d   1      28.468 -16.247  -3.378  0.00  0.00    -0.355 OA
ATOM     18  C   UNL d   1      29.617 -16.906  -3.921  0.00  0.00     0.210 C 
ENDBRANCH  14  17
ENDBRANCH   1   9
BRANCH   1  19
ATOM     19  C   UNL d   1      24.527 -14.832  -2.025  0.00  0.00     0.161 C 
BRANCH  19  20
ATOM     20  N   UNL d   1      23.868 -16.102  -1.627  0.00  0.00    -0.354 N 
ATOM     21  C   UNL d   1      22.533 -16.149  -1.273  0.00  0.00     0.256 C 
ATOM     22  O   UNL d   1      21.857 -15.107  -1.265  0.00  0.00    -0.268 OA
ATOM     23  H   UNL d   1      24.424 -16.930  -1.414  0.00  0.00     0.162 HD
BRANCH  21  24
ATOM     24  C   UNL d   1      21.897 -17.443  -0.897  0.00  0.00     0.090 A 
ATOM     25  C   UNL d   1      20.595 -17.698  -1.270  0.00  0.00     0.139 A 
ATOM     26  N   UNL d   1      19.905 -18.824  -0.940  0.00  0.00    -0.234 NA
ATOM     27  C   UNL d   1      20.543 -19.746  -0.205  0.00  0.00     0.189 A 
ATOM     28  N   UNL d   1      21.809 -19.631   0.168  0.00  0.00    -0.210 NA
ATOM     29  C   UNL d   1      22.435 -18.493  -0.183  0.00  0.00     0.146 A 
ATOM     30 CL   UNL d   1      24.004 -18.557   0.467  0.00  0.00    -0.061 Cl
BRANCH  27  31
ATOM     31  S   UNL d   1      19.695 -21.216   0.285  0.00  0.00    -0.090 SA
BRANCH  31  32
ATOM     32  C   UNL d   1      18.277 -20.493   1.195  0.00  0.00     0.082 C 
BRANCH  32  33
ATOM     33  C   UNL d   1      18.656 -20.344   2.672  0.00  0.00     0.006 C 
ATOM     34  C   UNL d   1      20.164 -20.247   2.869  0.00  0.00     0.006 C 
ENDBRANCH  32  33
ENDBRANCH  31  32
ENDBRANCH  27  31
ENDBRANCH  21  24
ENDBRANCH  19  20
ENDBRANCH   1  19
TORSDOF 10
ENDMDL
MODEL 3
REMARK VINA RESULT:   -27.364      1.135      2.849
REMARK INTER + INTRA:         -32.244
REMARK INTER:                 -30.347
REMARK INTRA:                  -1.898
REMARK CONF_INDEPENDENT:        2.983
REMARK UNBOUND:                -1.898
REMARK  10 active torsions:
REMARK  status: ('A' for Active; 'I' for Inactive)
REMARK    1  A    between atoms: C_2  and  C_3 
REMARK    2  A    between atoms: C_3  and  S_4 
REMARK    3  A    between atoms: S_4  and  C_5 
REMARK    4  A    between atoms: C_8  and  C_9 
REMARK       I    between atoms: C_9  and  N_11 
REMARK    5  A    between atoms: N_11  and  C_12 
REMARK    6  A    between atoms: C_13  and  C_12 
REMARK    7  A    between atoms: C_13  and  N_24 
REMARK    8  A    between atoms: C_13  and  C_14 
REMARK    9  A    between atoms: C_16  and  O_17 
REMARK   10  A    between atoms: C_21  and  O_22 
ROOT
ATOM      1  C   UNL d   1      26.008 -14.691  -1.034  0.00  0.00     0.241 C 
ENDROOT
BRANCH   1   2
ATOM      2  N   UNL d   1      26.918 -15.748  -0.359  0.00  0.00    -0.061 N 
ATOM      3  C   UNL d   1      26.107 -16.845   0.436  0.00  0.00     0.236 C 
ATOM      4  C   UNL d   1      27.029 -17.915   1.006  0.00  0.00     0.028 C 
ATOM      5  C   UNL d   1      27.807 -18.546  -0.135  0.00  0.00     0.003 C 
ATOM      6  C   UNL d   1      28.667 -17.467  -0.768  0.00  0.00     0.028 C 
ATOM      7  C   UNL d   1      27.789 -16.412  -1.394  0.00  0.00     0.236 C 
ATOM      8  H   UNL d   1      27.491 -15.257   0.338  0.00  0.00     0.280 HD
ENDBRANCH   1   2
BRANCH   1   9
ATOM      9  C   UNL d   1      26.507 -13.299  -1.289  0.00  0.00     0.010 A 
ATOM     10  C   UNL d   1      26.032 -12.547  -2.403  0.00  0.00     0.049 A 
ATOM     11  C   UNL d   1      26.406 -11.206  -2.592  0.00  0.00     0.069 A 
ATOM     12  C   UNL d   1      27.154 -10.582  -1.603  0.00  0.00     0.039 A 
ATOM     13  C   UNL d   1      27.613 -11.307  -0.495  0.00  0.00     0.040 A 
ATOM     14  C   UNL d   1      27.320 -12.667  -0.320  0.00  0.00     0.076 A 
BRANCH  11  15
ATOM     15  O   UNL d   1      26.004 -10.608  -3.759  0.00  0.00    -0.356 OA
ATOM     16  C   UNL d   1      26.413 -11.255  -4.973  0.00  0.00     0.210 C 
ENDBRANCH  11  15
BRANCH  14  17
ATOM     17  O   UNL d   1      27.805 -13.165   0.869  0.00  0.00    -0.355 OA
ATOM     18  C   UNL d   1      27.041 -13.567   2.010  0.00  0.00     0.210 C 
ENDBRANCH  14  17
ENDBRANCH   1   9
BRANCH   1  19
ATOM     19  C   UNL d   1      24.843 -15.110  -2.018  0.00  0.00     0.161 C 
BRANCH  19  20
ATOM     20  N   UNL d   1      24.087 -16.335  -1.651  0.00  0.00    -0.354 N 
ATOM     21  C   UNL d   1      22.752 -16.288  -1.301  0.00  0.00     0.256 C 
ATOM     22  O   UNL d   1      22.158 -15.198  -1.270  0.00  0.00    -0.268 OA
ATOM     23  H   UNL d   1      24.578 -17.208  -1.457  0.00  0.00     0.162 HD
BRANCH  21  24
ATOM     24  C   UNL d   1      22.017 -17.539  -0.957  0.00  0.00     0.090 A 
ATOM     25  C   UNL d   1      20.679 -17.653  -1.269  0.00  0.00     0.139 A 
ATOM     26  N   UNL d   1      19.905 -18.728  -0.959  0.00  0.00    -0.234 NA
ATOM     27  C   UNL d   1      20.491 -19.744  -0.309  0.00  0.00     0.189 A 
ATOM     28  N   UNL d   1      21.780 -19.766  -0.003  0.00  0.00    -0.210 NA
ATOM     29  C   UNL d   1      22.491 -18.672  -0.330  0.00  0.00     0.146 A 
ATOM     30 CL   UNL d   1      24.078 -18.914   0.226  0.00  0.00    -0.061 Cl
BRANCH  27  31
ATOM     31  S   UNL d   1      19.536 -21.157   0.151  0.00  0.00    -0.090 SA
BRANCH  31  32
ATOM     32  C   UNL d   1      18.690 -20.512   1.645  0.00  0.00     0.082 C 
BRANCH  32  33
ATOM     33  C   UNL d   1      19.718 -19.798   2.529  0.00  0.00     0.006 C 
ATOM     34  C   UNL d   1      19.910 -20.501   3.867  0.00  0.00     0.006 C 
ENDBRANCH  32  33
ENDBRANCH  31  32
ENDBRANCH  27  31
ENDBRANCH  21  24
ENDBRANCH  19  20
ENDBRANCH   1  19
TORSDOF 10
ENDMDL
