MODEL 1
REMARK VINA RESULT:   -32.462      0.000      0.000
REMARK INTER + INTRA:         -34.169
REMARK INTER:                 -33.357
REMARK INTRA:                  -0.812
REMARK CONF_INDEPENDENT:        0.895
REMARK UNBOUND:                -0.812
REMARK  3 active torsions:
REMARK  status: ('A' for Active; 'I' for Inactive)
REMARK    1  A    between atoms: C_5  and  N_6 
REMARK    2  A    between atoms: N_6  and  C_7 
REMARK       I    between atoms: N_10  and  C_11 
REMARK    3  A    between atoms: C_11  and  C_13 
ROOT
ATOM      1  C   UNL d   1      22.886 -17.925  -1.264  0.00  0.00     0.086 C 
ATOM      2  C   UNL d   1      23.763 -18.944  -0.517  0.00  0.00     0.045 C 
ATOM      3  C   UNL d   1      24.757 -18.336   0.503  0.00  0.00     0.128 C 
ATOM      4  N   UNL d   1      25.516 -17.262  -0.079  0.00  0.00    -0.348 N 
ATOM      5  C   UNL d   1      26.913 -17.331  -0.029  0.00  0.00     0.253 C 
ATOM      6  O   UNL d   1      27.535 -18.275   0.448  0.00  0.00    -0.267 OA
ATOM      7  C   UNL d   1      24.690 -16.166  -0.599  0.00  0.00     0.128 C 
ATOM      8  C   UNL d   1      23.695 -16.670  -1.636  0.00  0.00     0.045 C 
ENDROOT
BRANCH   5   9
ATOM      9  C   UNL d   1      27.667 -16.243  -0.669  0.00  0.00     0.032 C 
ATOM     10  C   UNL d   1      28.075 -15.113   0.072  0.00  0.00     0.017 C 
ATOM     11  C   UNL d   1      28.653 -14.037  -0.579  0.00  0.00     0.009 C 
ATOM     12  C   UNL d   1      28.627 -14.146  -1.939  0.00  0.00    -0.052 C 
ATOM     13  C   UNL d   1      27.967 -15.022  -2.740  0.00  0.00    -0.051 C 
ATOM     14  C   UNL d   1      29.000 -13.768  -3.230  0.00  0.00     0.039 C 
ATOM     15  C   UNL d   1      27.758 -16.273  -2.072  0.00  0.00     0.024 C 
ATOM     16  C   UNL d   1      28.243 -14.340  -4.589  0.00  0.00     0.039 C 
ATOM     17  C   UNL d   1      28.639 -15.558  -4.074  0.00  0.00     0.009 C 
ENDBRANCH   5   9
BRANCH   1  18
ATOM     18  N   UNL d   1      21.434 -17.926  -0.896  0.00  0.00    -0.369 N 
ATOM     19  H   UNL d   1      20.900 -17.249  -1.450  0.00  0.00     0.161 HD
BRANCH  18  20
ATOM     20  C   UNL d   1      20.620 -18.993  -0.541  0.00  0.00     0.143 C 
ATOM     21  C   UNL d   1      20.836 -19.647   0.638  0.00  0.00     0.054 C 
ATOM     22  C   UNL d   1      19.895 -20.449   1.214  0.00  0.00     0.030 C 
ATOM     23  C   UNL d   1      18.755 -20.694   0.496  0.00  0.00     0.024 C 
ATOM     24  C   UNL d   1      17.658 -21.490   1.122  0.00  0.00     0.070 C 
ATOM     25  N   UNL d   1      18.650 -20.208  -0.756  0.00  0.00    -0.281 N 
ATOM     26  N   UNL d   1      19.530 -19.325  -1.270  0.00  0.00    -0.157 NA
ATOM     27  H   UNL d   1      17.863 -20.502  -1.340  0.00  0.00     0.189 HD
ENDBRANCH  18  20
ENDBRANCH   1  18
TORSDOF 3
ENDMDL
MODEL 2
REMARK VINA RESULT:   -32.104      0.921      2.065
REMARK INTER + INTRA:         -33.740
REMARK INTER:                 -32.999
REMARK INTRA:                  -0.741
REMARK CONF_INDEPENDENT:        0.895
REMARK UNBOUND:                -0.741
REMARK  3 active torsions:
REMARK  status: ('A' for Active; 'I' for Inactive)
REMARK    1  A    between atoms: C_5  and  N_6 
REMARK    2  A    between atoms: N_6  and  C_7 
REMARK       I    between atoms: N_10  and  C_11 
REMARK    3  A    between atoms: C_11  and  C_13 
ROOT
ATOM      1  C   UNL d   1      22.845 -17.825  -1.283  0.00  0.00     0.086 C 
ATOM      2  C   UNL d   1      23.708 -18.976  -0.738  0.00  0.00     0.045 C 
ATOM      3  C   UNL d   1      24.726 -18.575   0.357  0.00  0.00     0.128 C 
ATOM      4  N   UNL d   1      25.502 -17.430  -0.040  0.00  0.00    -0.348 N 
ATOM      5  C   UNL d   1      26.898 -17.534  -0.023  0.00  0.00     0.253 C 
ATOM      6  O   UNL d   1      27.504 -18.559   0.272  0.00  0.00    -0.267 OA
ATOM      7  C   UNL d   1      24.694 -16.244  -0.348  0.00  0.00     0.128 C 
ATOM      8  C   UNL d   1      23.677 -16.540  -1.442  0.00  0.00     0.045 C 
ENDROOT
BRANCH   5   9
ATOM      9  C   UNL d   1      27.668 -16.366  -0.475  0.00  0.00     0.032 C 
ATOM     10  C   UNL d   1      28.284 -16.355  -1.745  0.00  0.00     0.017 C 
ATOM     11  C   UNL d   1      29.123 -15.310  -2.092  0.00  0.00     0.009 C 
ATOM     12  C   UNL d   1      29.374 -14.450  -1.062  0.00  0.00    -0.052 C 
ATOM     13  C   UNL d   1      29.103 -14.560   0.264  0.00  0.00    -0.051 C 
ATOM     14  C   UNL d   1      29.857 -13.257  -0.520  0.00  0.00     0.039 C 
ATOM     15  C   UNL d   1      27.947 -15.379   0.485  0.00  0.00     0.024 C 
ATOM     16  C   UNL d   1      30.027 -13.015   1.110  0.00  0.00     0.039 C 
ATOM     17  C   UNL d   1      28.674 -13.285   1.107  0.00  0.00     0.009 C 
ENDBRANCH   5   9
BRANCH   1  18
ATOM     18  N   UNL d   1      21.397 -17.862  -0.899  0.00  0.00    -0.369 N 
ATOM     19  H   UNL d   1      20.842 -17.193  -1.442  0.00  0.00     0.161 HD
BRANCH  18  20
ATOM     20  C   UNL d   1      20.611 -18.950  -0.543  0.00  0.00     0.143 C 
ATOM     21  C   UNL d   1      20.847 -19.598   0.636  0.00  0.00     0.054 C 
ATOM     22  C   UNL d   1      19.928 -20.425   1.213  0.00  0.00     0.030 C 
ATOM     23  C   UNL d   1      18.793 -20.699   0.497  0.00  0.00     0.024 C 
ATOM     24  C   UNL d   1      17.719 -21.523   1.124  0.00  0.00     0.070 C 
ATOM     25  N   UNL d   1      18.674 -20.215  -0.755  0.00  0.00    -0.281 N 
ATOM     26  N   UNL d   1      19.530 -19.309  -1.270  0.00  0.00    -0.157 NA
ATOM     27  H   UNL d   1      17.894 -20.530  -1.338  0.00  0.00     0.189 HD
ENDBRANCH  18  20
ENDBRANCH   1  18
TORSDOF 3
ENDMDL
MODEL 3
REMARK VINA RESULT:   -31.748      1.362      2.134
REMARK INTER + INTRA:         -33.273
REMARK INTER:                 -32.643
REMARK INTRA:                  -0.629
REMARK CONF_INDEPENDENT:        0.895
REMARK UNBOUND:                -0.629
REMARK  3 active torsions:
REMARK  status: ('A' for Active; 'I' for Inactive)
REMARK    1  A    between atoms: C_5  and  N_6 
REMARK    2  A    between atoms: N_6  and  C_7 
REMARK       I    between atoms: N_10  and  C_11 
REMARK    3  A    between atoms: C_11  and  C_13 
ROOT
ATOM      1  C   UNL d   1      23.577 -17.813  -0.904  0.00  0.00     0.086 C 
ATOM      2  C   UNL d   1      24.420 -17.208   0.230  0.00  0.00     0.045 C 
ATOM      3  C   UNL d   1      25.206 -15.927  -0.145  0.00  0.00     0.128 C 
ATOM      4  N   UNL d   1      25.950 -16.105  -1.364  0.00  0.00    -0.348 N 
ATOM      5  C   UNL d   1      27.327 -15.854  -1.347  0.00  0.00     0.253 C 
ATOM      6  O   UNL d   1      27.950 -15.529  -0.341  0.00  0.00    -0.267 OA
ATOM      7  C   UNL d   1      25.118 -16.467  -2.518  0.00  0.00     0.128 C 
ATOM      8  C   UNL d   1      24.324 -17.739  -2.247  0.00  0.00     0.045 C 
ENDROOT
BRANCH   5   9
ATOM      9  C   UNL d   1      28.071 -16.085  -2.593  0.00  0.00     0.032 C 
ATOM     10  C   UNL d   1      29.237 -16.881  -2.600  0.00  0.00     0.017 C 
ATOM     11  C   UNL d   1      30.002 -16.967  -3.751  0.00  0.00     0.009 C 
ATOM     12  C   UNL d   1      29.595 -16.119  -4.739  0.00  0.00    -0.052 C 
ATOM     13  C   UNL d   1      28.708 -15.091  -4.708  0.00  0.00    -0.051 C 
ATOM     14  C   UNL d   1      29.590 -15.639  -6.051  0.00  0.00     0.039 C 
ATOM     15  C   UNL d   1      27.707 -15.306  -3.705  0.00  0.00     0.024 C 
ATOM     16  C   UNL d   1      28.885 -14.202  -6.480  0.00  0.00     0.039 C 
ATOM     17  C   UNL d   1      27.761 -14.805  -5.950  0.00  0.00     0.009 C 
ENDBRANCH   5   9
BRANCH   1  18
ATOM     18  N   UNL d   1      22.092 -17.690  -0.746  0.00  0.00    -0.369 N 
ATOM     19  H   UNL d   1      21.711 -16.926  -1.314  0.00  0.00     0.161 HD
BRANCH  18  20
ATOM     20  C   UNL d   1      21.140 -18.689  -0.597  0.00  0.00     0.143 C 
ATOM     21  C   UNL d   1      21.398 -19.753   0.219  0.00  0.00     0.054 C 
ATOM     22  C   UNL d   1      20.413 -20.572   0.688  0.00  0.00     0.030 C 
ATOM     23  C   UNL d   1      19.148 -20.376   0.200  0.00  0.00     0.024 C 
ATOM     24  C   UNL d   1      18.022 -21.186   0.750  0.00  0.00     0.070 C 
ATOM     25  N   UNL d   1      18.952 -19.454  -0.764  0.00  0.00    -0.281 N 
ATOM     26  N   UNL d   1      19.905 -18.575  -1.135  0.00  0.00    -0.157 NA
ATOM     27  H   UNL d   1      18.040 -19.401  -1.224  0.00  0.00     0.189 HD
ENDBRANCH  18  20
ENDBRANCH   1  18
TORSDOF 3
ENDMDL
MODEL 4
REMARK VINA RESULT:   -31.317      1.924      2.590
REMARK INTER + INTRA:         -32.890
REMARK INTER:                 -32.212
REMARK INTRA:                  -0.678
REMARK CONF_INDEPENDENT:        0.895
REMARK UNBOUND:                -0.678
REMARK  3 active torsions:
REMARK  status: ('A' for Active; 'I' for Inactive)
REMARK    1  A    between atoms: C_5  and  N_6 
REMARK    2  A    between atoms: N_6  and  C_7 
REMARK       I    between atoms: N_10  and  C_11 
REMARK    3  A    between atoms: C_11  and  C_13 
ROOT
ATOM      1  C   UNL d   1      22.885 -17.406  -0.686  0.00  0.00     0.086 C 
ATOM      2  C   UNL d   1      22.875 -15.954  -1.192  0.00  0.00     0.045 C 
ATOM      3  C   UNL d   1      24.113 -15.538  -2.025  0.00  0.00     0.128 C 
ATOM      4  N   UNL d   1      25.338 -15.892  -1.359  0.00  0.00    -0.348 N 
ATOM      5  C   UNL d   1      26.285 -14.887  -1.128  0.00  0.00     0.253 C 
ATOM      6  O   UNL d   1      26.117 -13.708  -1.424  0.00  0.00    -0.267 OA
ATOM      7  C   UNL d   1      25.462 -17.325  -1.069  0.00  0.00     0.128 C 
ATOM      8  C   UNL d   1      24.294 -17.819  -0.225  0.00  0.00     0.045 C 
ENDROOT
BRANCH   5   9
ATOM      9  C   UNL d   1      27.509 -15.265  -0.407  0.00  0.00     0.032 C 
ATOM     10  C   UNL d   1      27.883 -14.597   0.779  0.00  0.00     0.017 C 
ATOM     11  C   UNL d   1      29.110 -14.868   1.361  0.00  0.00     0.009 C 
ATOM     12  C   UNL d   1      29.903 -15.681   0.604  0.00  0.00    -0.052 C 
ATOM     13  C   UNL d   1      29.768 -16.095  -0.682  0.00  0.00    -0.051 C 
ATOM     14  C   UNL d   1      31.014 -16.501   0.396  0.00  0.00     0.039 C 
ATOM     15  C   UNL d   1      28.387 -16.145  -1.063  0.00  0.00     0.024 C 
ATOM     16  C   UNL d   1      31.472 -17.030  -1.106  0.00  0.00     0.039 C 
ATOM     17  C   UNL d   1      30.199 -17.563  -1.105  0.00  0.00     0.009 C 
ENDBRANCH   5   9
BRANCH   1  18
ATOM     18  N   UNL d   1      21.895 -18.326  -1.334  0.00  0.00    -0.369 N 
ATOM     19  H   UNL d   1      22.281 -18.772  -2.172  0.00  0.00     0.161 HD
BRANCH  18  20
ATOM     20  C   UNL d   1      20.957 -19.162  -0.743  0.00  0.00     0.143 C 
ATOM     21  C   UNL d   1      21.229 -19.734   0.467  0.00  0.00     0.054 C 
ATOM     22  C   UNL d   1      20.254 -20.265   1.260  0.00  0.00     0.030 C 
ATOM     23  C   UNL d   1      18.988 -20.332   0.741  0.00  0.00     0.024 C 
ATOM     24  C   UNL d   1      17.873 -20.819   1.604  0.00  0.00     0.070 C 
ATOM     25  N   UNL d   1      18.782 -19.952  -0.536  0.00  0.00    -0.281 N 
ATOM     26  N   UNL d   1      19.723 -19.324  -1.269  0.00  0.00    -0.157 NA
ATOM     27  H   UNL d   1      17.871 -20.128  -0.966  0.00  0.00     0.189 HD
ENDBRANCH  18  20
ENDBRANCH   1  18
TORSDOF 3
ENDMDL
MODEL 5
REMARK VINA RESULT:   -31.081      1.225      1.712
REMARK INTER + INTRA:         -32.675
REMARK INTER:                 -31.976
REMARK INTRA:                  -0.699
REMARK CONF_INDEPENDENT:        0.895
REMARK UNBOUND:                -0.699
REMARK  3 active torsions:
REMARK  status: ('A' for Active; 'I' for Inactive)
REMARK    1  A    between atoms: C_5  and  N_6 
REMARK    2  A    between atoms: N_6  and  C_7 
REMARK       I    between atoms: N_10  and  C_11 
REMARK    3  A    between atoms: C_11  and  C_13 
ROOT
ATOM      1  C   UNL d   1      23.561 -17.921  -1.273  0.00  0.00     0.086 C 
ATOM      2  C   UNL d   1      24.427 -18.284  -0.054  0.00  0.00     0.045 C 
ATOM      3  C   UNL d   1      25.385 -17.168   0.429  0.00  0.00     0.128 C 
ATOM      4  N   UNL d   1      26.150 -16.624  -0.661  0.00  0.00    -0.348 N 
ATOM      5  C   UNL d   1      27.546 -16.615  -0.557  0.00  0.00     0.253 C 
ATOM      6  O   UNL d   1      28.164 -17.083   0.395  0.00  0.00    -0.267 OA
ATOM      7  C   UNL d   1      25.329 -16.064  -1.741  0.00  0.00     0.128 C 
ATOM      8  C   UNL d   1      24.368 -17.106  -2.298  0.00  0.00     0.045 C 
ENDROOT
BRANCH   5   9
ATOM      9  C   UNL d   1      28.306 -16.095  -1.702  0.00  0.00     0.032 C 
ATOM     10  C   UNL d   1      28.148 -14.758  -2.126  0.00  0.00     0.017 C 
ATOM     11  C   UNL d   1      28.761 -14.330  -3.291  0.00  0.00     0.009 C 
ATOM     12  C   UNL d   1      29.353 -15.337  -3.995  0.00  0.00    -0.052 C 
ATOM     13  C   UNL d   1      29.272 -16.684  -3.844  0.00  0.00    -0.051 C 
ATOM     14  C   UNL d   1      30.185 -15.840  -4.999  0.00  0.00     0.039 C 
ATOM     15  C   UNL d   1      29.007 -17.033  -2.479  0.00  0.00     0.024 C 
ATOM     16  C   UNL d   1      30.211 -17.440  -5.427  0.00  0.00     0.039 C 
ATOM     17  C   UNL d   1      30.542 -17.602  -4.097  0.00  0.00     0.009 C 
ENDBRANCH   5   9
BRANCH   1  18
ATOM     18  N   UNL d   1      22.099 -17.741  -0.999  0.00  0.00    -0.369 N 
ATOM     19  H   UNL d   1      21.699 -16.979  -1.555  0.00  0.00     0.161 HD
BRANCH  18  20
ATOM     20  C   UNL d   1      21.129 -18.701  -0.746  0.00  0.00     0.143 C 
ATOM     21  C   UNL d   1      21.395 -19.716   0.129  0.00  0.00     0.054 C 
ATOM     22  C   UNL d   1      20.410 -20.475   0.690  0.00  0.00     0.030 C 
ATOM     23  C   UNL d   1      19.131 -20.278   0.240  0.00  0.00     0.024 C 
ATOM     24  C   UNL d   1      18.009 -21.018   0.888  0.00  0.00     0.070 C 
ATOM     25  N   UNL d   1      18.918 -19.416  -0.775  0.00  0.00    -0.281 N 
ATOM     26  N   UNL d   1      19.877 -18.590  -1.241  0.00  0.00    -0.157 NA
ATOM     27  H   UNL d   1      17.990 -19.369  -1.201  0.00  0.00     0.189 HD
ENDBRANCH  18  20
ENDBRANCH   1  18
TORSDOF 3
ENDMDL
