MODEL 1
REMARK VINA RESULT:   -10.394      0.000      0.000
REMARK INTER + INTRA:         -13.151
REMARK INTER:                 -12.184
REMARK INTRA:                  -0.967
REMARK CONF_INDEPENDENT:        1.790
REMARK UNBOUND:                -0.967
REMARK  6 active torsions:
REMARK  status: ('A' for Active; 'I' for Inactive)
REMARK    1  A    between atoms: C_2  and  C_3 
REMARK       I    between atoms: C_2  and  N_14 
REMARK    2  A    between atoms: C_3  and  N_4 
REMARK       I    between atoms: N_4  and  C_5 
REMARK    3  A    between atoms: C_5  and  C_7 
REMARK    4  A    between atoms: N_14  and  C_15 
REMARK    5  A    between atoms: C_19  and  N_20 
REMARK       I    between atoms: N_20  and  C_21 
REMARK    6  A    between atoms: C_21  and  C_23 
ROOT
ATOM      1  O   UNL d   1      24.730 -13.604  -3.688  0.00  0.00    -0.271 OA
ATOM      2  C   UNL d   1      25.062 -14.592  -3.025  0.00  0.00     0.239 C 
ATOM      3  N   UNL d   1      24.098 -15.269  -2.294  0.00  0.00    -0.326 N 
ATOM      4  H   UNL d   1      23.152 -14.933  -2.429  0.00  0.00     0.169 HD
ENDROOT
BRANCH   3   5
ATOM      5  C   UNL d   1      24.297 -16.304  -1.362  0.00  0.00     0.036 A 
ATOM      6  C   UNL d   1      25.558 -16.715  -0.968  0.00  0.00     0.029 A 
ATOM      7  C   UNL d   1      25.674 -17.775  -0.051  0.00  0.00     0.004 A 
ATOM      8  C   UNL d   1      24.530 -18.399   0.492  0.00  0.00     0.029 A 
ATOM      9  C   UNL d   1      23.260 -18.019   0.056  0.00  0.00     0.037 A 
ATOM     10  C   UNL d   1      23.199 -17.006  -0.892  0.00  0.00     0.059 A 
BRANCH   9  11
ATOM     11  N   UNL d   1      22.069 -18.650   0.519  0.00  0.00    -0.322 N 
ATOM     12  C   UNL d   1      21.093 -19.233  -0.305  0.00  0.00     0.263 C 
ATOM     13  O   UNL d   1      21.149 -19.275  -1.539  0.00  0.00    -0.267 OA
ATOM     14  H   UNL d   1      21.946 -18.730   1.521  0.00  0.00     0.169 HD
BRANCH  12  15
ATOM     15  C   UNL d   1      19.959 -19.833   0.359  0.00  0.00     0.072 A 
ATOM     16  C   UNL d   1      18.851 -20.458  -0.170  0.00  0.00     0.025 A 
ATOM     17  C   UNL d   1      18.026 -21.030   0.844  0.00  0.00     0.009 A 
ATOM     18  C   UNL d   1      18.524 -20.815   2.110  0.00  0.00     0.050 A 
ATOM     19  S   UNL d   1      19.994 -19.951   2.075  0.00  0.00    -0.097 SA
ENDBRANCH  12  15
ENDBRANCH   9  11
ENDBRANCH   3   5
BRANCH   2  20
ATOM     20  C   UNL d   1      26.505 -15.145  -3.074  0.00  0.00     0.226 C 
BRANCH  20  21
ATOM     21  N   UNL d   1      27.400 -14.425  -3.964  0.00  0.00    -0.348 N 
ATOM     22  C   UNL d   1      27.466 -14.782  -5.296  0.00  0.00     0.253 C 
ATOM     23  O   UNL d   1      26.688 -15.575  -5.819  0.00  0.00    -0.268 OA
ATOM     24  H   UNL d   1      28.128 -13.867  -3.532  0.00  0.00     0.163 HD
BRANCH  22  25
ATOM     25  C   UNL d   1      28.490 -14.114  -6.140  0.00  0.00     0.053 A 
ATOM     26  C   UNL d   1      29.621 -14.878  -6.480  0.00  0.00     0.019 A 
ATOM     27  C   UNL d   1      30.644 -14.335  -7.262  0.00  0.00     0.001 A 
ATOM     28  C   UNL d   1      30.551 -13.019  -7.704  0.00  0.00     0.002 A 
ATOM     29  C   UNL d   1      29.443 -12.246  -7.355  0.00  0.00     0.025 A 
ATOM     30  C   UNL d   1      28.413 -12.784  -6.570  0.00  0.00     0.049 A 
ATOM     31 CL   UNL d   1      27.119 -11.725  -6.138  0.00  0.00    -0.083 Cl
ENDBRANCH  22  25
ENDBRANCH  20  21
ENDBRANCH   2  20
TORSDOF 6
ENDMDL
MODEL 2
REMARK VINA RESULT:   -10.290      1.063      1.396
REMARK INTER + INTRA:         -12.953
REMARK INTER:                 -12.080
REMARK INTRA:                  -0.872
REMARK CONF_INDEPENDENT:        1.790
REMARK UNBOUND:                -0.872
REMARK  6 active torsions:
REMARK  status: ('A' for Active; 'I' for Inactive)
REMARK    1  A    between atoms: C_2  and  C_3 
REMARK       I    between atoms: C_2  and  N_14 
REMARK    2  A    between atoms: C_3  and  N_4 
REMARK       I    between atoms: N_4  and  C_5 
REMARK    3  A    between atoms: C_5  and  C_7 
REMARK    4  A    between atoms: N_14  and  C_15 
REMARK    5  A    between atoms: C_19  and  N_20 
REMARK       I    between atoms: N_20  and  C_21 
REMARK    6  A    between atoms: C_21  and  C_23 
ROOT
ATOM      1  O   UNL d   1      24.789 -13.627  -3.756  0.00  0.00    -0.271 OA
ATOM      2  C   UNL d   1      25.140 -14.574  -3.044  0.00  0.00     0.239 C 
ATOM      3  N   UNL d   1      24.173 -15.316  -2.382  0.00  0.00    -0.326 N 
ATOM      4  H   UNL d   1      23.219 -15.060  -2.605  0.00  0.00     0.169 HD
ENDROOT
BRANCH   3   5
ATOM      5  C   UNL d   1      24.373 -16.314  -1.413  0.00  0.00     0.036 A 
ATOM      6  C   UNL d   1      25.634 -16.692  -0.984  0.00  0.00     0.029 A 
ATOM      7  C   UNL d   1      25.751 -17.717  -0.030  0.00  0.00     0.004 A 
ATOM      8  C   UNL d   1      24.608 -18.342   0.514  0.00  0.00     0.029 A 
ATOM      9  C   UNL d   1      23.340 -17.999   0.045  0.00  0.00     0.037 A 
ATOM     10  C   UNL d   1      23.279 -17.019  -0.938  0.00  0.00     0.059 A 
BRANCH   9  11
ATOM     11  N   UNL d   1      22.152 -18.634   0.509  0.00  0.00    -0.322 N 
ATOM     12  C   UNL d   1      21.178 -19.222  -0.314  0.00  0.00     0.263 C 
ATOM     13  O   UNL d   1      21.234 -19.265  -1.548  0.00  0.00    -0.267 OA
ATOM     14  H   UNL d   1      22.029 -18.713   1.511  0.00  0.00     0.169 HD
BRANCH  12  15
ATOM     15  C   UNL d   1      20.046 -19.825   0.351  0.00  0.00     0.072 A 
ATOM     16  C   UNL d   1      18.937 -20.450  -0.178  0.00  0.00     0.025 A 
ATOM     17  C   UNL d   1      18.116 -21.026   0.837  0.00  0.00     0.009 A 
ATOM     18  C   UNL d   1      18.617 -20.814   2.103  0.00  0.00     0.050 A 
ATOM     19  S   UNL d   1      20.085 -19.948   2.067  0.00  0.00    -0.097 SA
ENDBRANCH  12  15
ENDBRANCH   9  11
ENDBRANCH   3   5
BRANCH   2  20
ATOM     20  C   UNL d   1      26.622 -15.007  -2.957  0.00  0.00     0.226 C 
BRANCH  20  21
ATOM     21  N   UNL d   1      27.516 -14.290  -3.849  0.00  0.00    -0.348 N 
ATOM     22  C   UNL d   1      27.659 -14.714  -5.155  0.00  0.00     0.253 C 
ATOM     23  O   UNL d   1      26.946 -15.575  -5.664  0.00  0.00    -0.268 OA
ATOM     24  H   UNL d   1      28.195 -13.671  -3.421  0.00  0.00     0.163 HD
BRANCH  22  25
ATOM     25  C   UNL d   1      28.682 -14.040  -5.994  0.00  0.00     0.053 A 
ATOM     26  C   UNL d   1      28.499 -12.663  -6.224  0.00  0.00     0.019 A 
ATOM     27  C   UNL d   1      29.403 -11.942  -7.008  0.00  0.00     0.001 A 
ATOM     28  C   UNL d   1      30.494 -12.591  -7.580  0.00  0.00     0.002 A 
ATOM     29  C   UNL d   1      30.672 -13.960  -7.374  0.00  0.00     0.025 A 
ATOM     30  C   UNL d   1      29.769 -14.690  -6.588  0.00  0.00     0.049 A 
ATOM     31 CL   UNL d   1      30.043 -16.390  -6.453  0.00  0.00    -0.083 Cl
ENDBRANCH  22  25
ENDBRANCH  20  21
ENDBRANCH   2  20
TORSDOF 6
ENDMDL
MODEL 3
REMARK VINA RESULT:    -9.634      1.932      2.301
REMARK INTER + INTRA:         -12.561
REMARK INTER:                 -11.424
REMARK INTRA:                  -1.137
REMARK CONF_INDEPENDENT:        1.790
REMARK UNBOUND:                -1.137
REMARK  6 active torsions:
REMARK  status: ('A' for Active; 'I' for Inactive)
REMARK    1  A    between atoms: C_2  and  C_3 
REMARK       I    between atoms: C_2  and  N_14 
REMARK    2  A    between atoms: C_3  and  N_4 
REMARK       I    between atoms: N_4  and  C_5 
REMARK    3  A    between atoms: C_5  and  C_7 
REMARK    4  A    between atoms: N_14  and  C_15 
REMARK    5  A    between atoms: C_19  and  N_20 
REMARK       I    between atoms: N_20  and  C_21 
REMARK    6  A    between atoms: C_21  and  C_23 
ROOT
ATOM      1  O   UNL d   1      24.774 -13.357  -4.147  0.00  0.00    -0.271 OA
ATOM      2  C   UNL d   1      25.055 -14.453  -3.652  0.00  0.00     0.239 C 
ATOM      3  N   UNL d   1      24.466 -14.823  -2.452  0.00  0.00    -0.326 N 
ATOM      4  H   UNL d   1      23.770 -14.174  -2.105  0.00  0.00     0.169 HD
ENDROOT
BRANCH   3   5
ATOM      5  C   UNL d   1      24.770 -15.942  -1.655  0.00  0.00     0.036 A 
ATOM      6  C   UNL d   1      26.070 -16.293  -1.335  0.00  0.00     0.029 A 
ATOM      7  C   UNL d   1      26.294 -17.441  -0.556  0.00  0.00     0.004 A 
ATOM      8  C   UNL d   1      25.217 -18.217  -0.073  0.00  0.00     0.029 A 
ATOM      9  C   UNL d   1      23.910 -17.893  -0.439  0.00  0.00     0.037 A 
ATOM     10  C   UNL d   1      23.745 -16.782  -1.256  0.00  0.00     0.059 A 
BRANCH   9  11
ATOM     11  N   UNL d   1      22.785 -18.670  -0.036  0.00  0.00    -0.322 N 
ATOM     12  C   UNL d   1      21.452 -18.396  -0.381  0.00  0.00     0.263 C 
ATOM     13  O   UNL d   1      21.088 -17.447  -1.084  0.00  0.00    -0.267 OA
ATOM     14  H   UNL d   1      22.970 -19.512   0.495  0.00  0.00     0.169 HD
BRANCH  12  15
ATOM     15  C   UNL d   1      20.453 -19.312   0.120  0.00  0.00     0.072 A 
ATOM     16  C   UNL d   1      20.313 -19.871   1.373  0.00  0.00     0.025 A 
ATOM     17  C   UNL d   1      19.107 -20.625   1.487  0.00  0.00     0.009 A 
ATOM     18  C   UNL d   1      18.373 -20.625   0.322  0.00  0.00     0.050 A 
ATOM     19  S   UNL d   1      19.122 -19.699  -0.899  0.00  0.00    -0.097 SA
ENDBRANCH  12  15
ENDBRANCH   9  11
ENDBRANCH   3   5
BRANCH   2  20
ATOM     20  C   UNL d   1      25.968 -15.459  -4.391  0.00  0.00     0.226 C 
BRANCH  20  21
ATOM     21  N   UNL d   1      27.391 -15.218  -4.228  0.00  0.00    -0.348 N 
ATOM     22  C   UNL d   1      28.208 -15.188  -5.340  0.00  0.00     0.253 C 
ATOM     23  O   UNL d   1      27.778 -15.193  -6.490  0.00  0.00    -0.268 OA
ATOM     24  H   UNL d   1      27.775 -15.337  -3.297  0.00  0.00     0.163 HD
BRANCH  22  25
ATOM     25  C   UNL d   1      29.673 -15.074  -5.120  0.00  0.00     0.053 A 
ATOM     26  C   UNL d   1      30.365 -14.170  -5.946  0.00  0.00     0.019 A 
ATOM     27  C   UNL d   1      31.747 -14.000  -5.822  0.00  0.00     0.001 A 
ATOM     28  C   UNL d   1      32.452 -14.740  -4.878  0.00  0.00     0.002 A 
ATOM     29  C   UNL d   1      31.777 -15.655  -4.069  0.00  0.00     0.025 A 
ATOM     30  C   UNL d   1      30.391 -15.831  -4.187  0.00  0.00     0.049 A 
ATOM     31 CL   UNL d   1      29.664 -17.035  -3.185  0.00  0.00    -0.083 Cl
ENDBRANCH  22  25
ENDBRANCH  20  21
ENDBRANCH   2  20
TORSDOF 6
ENDMDL
MODEL 4
REMARK VINA RESULT:    -9.438      2.980      3.684
REMARK INTER + INTRA:         -12.543
REMARK INTER:                 -11.228
REMARK INTRA:                  -1.315
REMARK CONF_INDEPENDENT:        1.790
REMARK UNBOUND:                -1.315
REMARK  6 active torsions:
REMARK  status: ('A' for Active; 'I' for Inactive)
REMARK    1  A    between atoms: C_2  and  C_3 
REMARK       I    between atoms: C_2  and  N_14 
REMARK    2  A    between atoms: C_3  and  N_4 
REMARK       I    between atoms: N_4  and  C_5 
REMARK    3  A    between atoms: C_5  and  C_7 
REMARK    4  A    between atoms: N_14  and  C_15 
REMARK    5  A    between atoms: C_19  and  N_20 
REMARK       I    between atoms: N_20  and  C_21 
REMARK    6  A    between atoms: C_21  and  C_23 
ROOT
ATOM      1  O   UNL d   1      25.143 -14.563  -4.692  0.00  0.00    -0.271 OA
ATOM      2  C   UNL d   1      25.256 -14.911  -3.512  0.00  0.00     0.239 C 
ATOM      3  N   UNL d   1      25.214 -16.262  -3.200  0.00  0.00    -0.326 N 
ATOM      4  H   UNL d   1      25.169 -16.880  -4.002  0.00  0.00     0.169 HD
ENDROOT
BRANCH   3   5
ATOM      5  C   UNL d   1      25.164 -16.845  -1.922  0.00  0.00     0.036 A 
ATOM      6  C   UNL d   1      26.236 -16.812  -1.047  0.00  0.00     0.029 A 
ATOM      7  C   UNL d   1      26.117 -17.442   0.203  0.00  0.00     0.004 A 
ATOM      8  C   UNL d   1      24.915 -18.076   0.589  0.00  0.00     0.029 A 
ATOM      9  C   UNL d   1      23.853 -18.156  -0.311  0.00  0.00     0.037 A 
ATOM     10  C   UNL d   1      24.039 -17.566  -1.555  0.00  0.00     0.059 A 
BRANCH   9  11
ATOM     11  N   UNL d   1      22.637 -18.834  -0.007  0.00  0.00    -0.322 N 
ATOM     12  C   UNL d   1      21.371 -18.480  -0.499  0.00  0.00     0.263 C 
ATOM     13  O   UNL d   1      21.154 -17.535  -1.265  0.00  0.00    -0.267 OA
ATOM     14  H   UNL d   1      22.702 -19.667   0.566  0.00  0.00     0.169 HD
BRANCH  12  15
ATOM     15  C   UNL d   1      20.260 -19.303  -0.079  0.00  0.00     0.072 A 
ATOM     16  C   UNL d   1      19.185 -19.775  -0.800  0.00  0.00     0.025 A 
ATOM     17  C   UNL d   1      18.378 -20.667  -0.032  0.00  0.00     0.009 A 
ATOM     18  C   UNL d   1      18.857 -20.839   1.248  0.00  0.00     0.050 A 
ATOM     19  S   UNL d   1      20.287 -19.949   1.515  0.00  0.00    -0.097 SA
ENDBRANCH  12  15
ENDBRANCH   9  11
ENDBRANCH   3   5
BRANCH   2  20
ATOM     20  C   UNL d   1      25.544 -13.882  -2.395  0.00  0.00     0.226 C 
BRANCH  20  21
ATOM     21  N   UNL d   1      25.587 -12.500  -2.841  0.00  0.00    -0.348 N 
ATOM     22  C   UNL d   1      26.601 -11.674  -2.399  0.00  0.00     0.253 C 
ATOM     23  O   UNL d   1      27.574 -12.081  -1.771  0.00  0.00    -0.268 OA
ATOM     24  H   UNL d   1      24.739 -12.120  -3.247  0.00  0.00     0.163 HD
BRANCH  22  25
ATOM     25  C   UNL d   1      26.532 -10.237  -2.768  0.00  0.00     0.053 A 
ATOM     26  C   UNL d   1      26.710  -9.310  -1.724  0.00  0.00     0.019 A 
ATOM     27  C   UNL d   1      26.652  -7.935  -1.969  0.00  0.00     0.001 A 
ATOM     28  C   UNL d   1      26.406  -7.473  -3.258  0.00  0.00     0.002 A 
ATOM     29  C   UNL d   1      26.209  -8.384  -4.296  0.00  0.00     0.025 A 
ATOM     30  C   UNL d   1      26.265  -9.765  -4.058  0.00  0.00     0.049 A 
ATOM     31 CL   UNL d   1      25.939 -10.807  -5.396  0.00  0.00    -0.083 Cl
ENDBRANCH  22  25
ENDBRANCH  20  21
ENDBRANCH   2  20
TORSDOF 6
ENDMDL
MODEL 5
REMARK VINA RESULT:    -9.422      3.427      5.389
REMARK INTER + INTRA:         -12.238
REMARK INTER:                 -11.211
REMARK INTRA:                  -1.027
REMARK CONF_INDEPENDENT:        1.790
REMARK UNBOUND:                -1.027
REMARK  6 active torsions:
REMARK  status: ('A' for Active; 'I' for Inactive)
REMARK    1  A    between atoms: C_2  and  C_3 
REMARK       I    between atoms: C_2  and  N_14 
REMARK    2  A    between atoms: C_3  and  N_4 
REMARK       I    between atoms: N_4  and  C_5 
REMARK    3  A    between atoms: C_5  and  C_7 
REMARK    4  A    between atoms: N_14  and  C_15 
REMARK    5  A    between atoms: C_19  and  N_20 
REMARK       I    between atoms: N_20  and  C_21 
REMARK    6  A    between atoms: C_21  and  C_23 
ROOT
ATOM      1  O   UNL d   1      25.170 -13.048  -3.008  0.00  0.00    -0.271 OA
ATOM      2  C   UNL d   1      25.536 -14.055  -2.396  0.00  0.00     0.239 C 
ATOM      3  N   UNL d   1      24.651 -15.113  -2.245  0.00  0.00    -0.326 N 
ATOM      4  H   UNL d   1      23.771 -15.000  -2.733  0.00  0.00     0.169 HD
ENDROOT
BRANCH   3   5
ATOM      5  C   UNL d   1      24.818 -16.264  -1.455  0.00  0.00     0.036 A 
ATOM      6  C   UNL d   1      26.057 -16.843  -1.237  0.00  0.00     0.029 A 
ATOM      7  C   UNL d   1      26.137 -18.009  -0.457  0.00  0.00     0.004 A 
ATOM      8  C   UNL d   1      24.984 -18.576   0.129  0.00  0.00     0.029 A 
ATOM      9  C   UNL d   1      23.730 -18.024  -0.133  0.00  0.00     0.037 A 
ATOM     10  C   UNL d   1      23.696 -16.905  -0.955  0.00  0.00     0.059 A 
BRANCH   9  11
ATOM     11  N   UNL d   1      22.523 -18.584   0.377  0.00  0.00    -0.322 N 
ATOM     12  C   UNL d   1      21.447 -19.030  -0.407  0.00  0.00     0.263 C 
ATOM     13  O   UNL d   1      21.415 -18.996  -1.642  0.00  0.00    -0.267 OA
ATOM     14  H   UNL d   1      22.461 -18.718   1.379  0.00  0.00     0.169 HD
BRANCH  12  15
ATOM     15  C   UNL d   1      20.312 -19.577   0.302  0.00  0.00     0.072 A 
ATOM     16  C   UNL d   1      19.252 -20.324  -0.166  0.00  0.00     0.025 A 
ATOM     17  C   UNL d   1      18.412 -20.777   0.895  0.00  0.00     0.009 A 
ATOM     18  C   UNL d   1      18.850 -20.356   2.131  0.00  0.00     0.050 A 
ATOM     19  S   UNL d   1      20.284 -19.440   2.016  0.00  0.00    -0.097 SA
ENDBRANCH  12  15
ENDBRANCH   9  11
ENDBRANCH   3   5
BRANCH   2  20
ATOM     20  C   UNL d   1      26.988 -14.201  -1.883  0.00  0.00     0.226 C 
BRANCH  20  21
ATOM     21  N   UNL d   1      27.117 -14.253  -0.437  0.00  0.00    -0.348 N 
ATOM     22  C   UNL d   1      27.152 -13.078   0.286  0.00  0.00     0.253 C 
ATOM     23  O   UNL d   1      26.916 -11.978  -0.207  0.00  0.00    -0.268 OA
ATOM     24  H   UNL d   1      27.436 -15.128  -0.034  0.00  0.00     0.163 HD
BRANCH  22  25
ATOM     25  C   UNL d   1      27.421 -13.171   1.744  0.00  0.00     0.053 A 
ATOM     26  C   UNL d   1      27.805 -14.433   2.234  0.00  0.00     0.019 A 
ATOM     27  C   UNL d   1      28.070 -14.624   3.592  0.00  0.00     0.001 A 
ATOM     28  C   UNL d   1      27.945 -13.557   4.478  0.00  0.00     0.002 A 
ATOM     29  C   UNL d   1      27.545 -12.307   4.004  0.00  0.00     0.025 A 
ATOM     30  C   UNL d   1      27.277 -12.108   2.643  0.00  0.00     0.049 A 
ATOM     31 CL   UNL d   1      26.724 -10.541   2.172  0.00  0.00    -0.083 Cl
ENDBRANCH  22  25
ENDBRANCH  20  21
ENDBRANCH   2  20
TORSDOF 6
ENDMDL
MODEL 6
REMARK VINA RESULT:    -9.265      2.413      2.966
REMARK INTER + INTRA:         -11.717
REMARK INTER:                 -11.055
REMARK INTRA:                  -0.662
REMARK CONF_INDEPENDENT:        1.790
REMARK UNBOUND:                -0.662
REMARK  6 active torsions:
REMARK  status: ('A' for Active; 'I' for Inactive)
REMARK    1  A    between atoms: C_2  and  C_3 
REMARK       I    between atoms: C_2  and  N_14 
REMARK    2  A    between atoms: C_3  and  N_4 
REMARK       I    between atoms: N_4  and  C_5 
REMARK    3  A    between atoms: C_5  and  C_7 
REMARK    4  A    between atoms: N_14  and  C_15 
REMARK    5  A    between atoms: C_19  and  N_20 
REMARK       I    between atoms: N_20  and  C_21 
REMARK    6  A    between atoms: C_21  and  C_23 
ROOT
ATOM      1  O   UNL d   1      26.599 -14.964  -4.748  0.00  0.00    -0.271 OA
ATOM      2  C   UNL d   1      26.717 -15.575  -3.681  0.00  0.00     0.239 C 
ATOM      3  N   UNL d   1      25.614 -16.227  -3.151  0.00  0.00    -0.326 N 
ATOM      4  H   UNL d   1      24.791 -16.214  -3.742  0.00  0.00     0.169 HD
ENDROOT
BRANCH   3   5
ATOM      5  C   UNL d   1      25.501 -16.833  -1.887  0.00  0.00     0.036 A 
ATOM      6  C   UNL d   1      26.542 -16.847  -0.975  0.00  0.00     0.029 A 
ATOM      7  C   UNL d   1      26.360 -17.496   0.258  0.00  0.00     0.004 A 
ATOM      8  C   UNL d   1      25.128 -18.103   0.588  0.00  0.00     0.029 A 
ATOM      9  C   UNL d   1      24.097 -18.135  -0.351  0.00  0.00     0.037 A 
ATOM     10  C   UNL d   1      24.345 -17.528  -1.576  0.00  0.00     0.059 A 
BRANCH   9  11
ATOM     11  N   UNL d   1      22.853 -18.785  -0.103  0.00  0.00    -0.322 N 
ATOM     12  C   UNL d   1      21.590 -18.243  -0.392  0.00  0.00     0.263 C 
ATOM     13  O   UNL d   1      21.401 -17.134  -0.903  0.00  0.00    -0.267 OA
ATOM     14  H   UNL d   1      22.887 -19.729   0.260  0.00  0.00     0.169 HD
BRANCH  12  15
ATOM     15  C   UNL d   1      20.445 -19.065  -0.073  0.00  0.00     0.072 A 
ATOM     16  C   UNL d   1      19.467 -19.579  -0.897  0.00  0.00     0.025 A 
ATOM     17  C   UNL d   1      18.585 -20.454  -0.195  0.00  0.00     0.009 A 
ATOM     18  C   UNL d   1      18.911 -20.572   1.138  0.00  0.00     0.050 A 
ATOM     19  S   UNL d   1      20.291 -19.653   1.537  0.00  0.00    -0.097 SA
ENDBRANCH  12  15
ENDBRANCH   9  11
ENDBRANCH   3   5
BRANCH   2  20
ATOM     20  C   UNL d   1      28.089 -15.710  -2.980  0.00  0.00     0.226 C 
BRANCH  20  21
ATOM     21  N   UNL d   1      29.049 -16.543  -3.682  0.00  0.00    -0.348 N 
ATOM     22  C   UNL d   1      29.349 -16.271  -5.002  0.00  0.00     0.253 C 
ATOM     23  O   UNL d   1      28.972 -15.257  -5.581  0.00  0.00    -0.268 OA
ATOM     24  H   UNL d   1      29.268 -17.443  -3.268  0.00  0.00     0.163 HD
BRANCH  22  25
ATOM     25  C   UNL d   1      30.230 -17.227  -5.722  0.00  0.00     0.053 A 
ATOM     26  C   UNL d   1      30.203 -18.562  -5.280  0.00  0.00     0.019 A 
ATOM     27  C   UNL d   1      31.003 -19.534  -5.887  0.00  0.00     0.001 A 
ATOM     28  C   UNL d   1      31.847 -19.179  -6.935  0.00  0.00     0.002 A 
ATOM     29  C   UNL d   1      31.895 -17.853  -7.366  0.00  0.00     0.025 A 
ATOM     30  C   UNL d   1      31.095 -16.872  -6.762  0.00  0.00     0.049 A 
ATOM     31 CL   UNL d   1      31.281 -15.250  -7.326  0.00  0.00    -0.083 Cl
ENDBRANCH  22  25
ENDBRANCH  20  21
ENDBRANCH   2  20
TORSDOF 6
ENDMDL
MODEL 7
REMARK VINA RESULT:    -9.225      1.553      1.929
REMARK INTER + INTRA:         -12.402
REMARK INTER:                 -11.014
REMARK INTRA:                  -1.388
REMARK CONF_INDEPENDENT:        1.790
REMARK UNBOUND:                -1.388
REMARK  6 active torsions:
REMARK  status: ('A' for Active; 'I' for Inactive)
REMARK    1  A    between atoms: C_2  and  C_3 
REMARK       I    between atoms: C_2  and  N_14 
REMARK    2  A    between atoms: C_3  and  N_4 
REMARK       I    between atoms: N_4  and  C_5 
REMARK    3  A    between atoms: C_5  and  C_7 
REMARK    4  A    between atoms: N_14  and  C_15 
REMARK    5  A    between atoms: C_19  and  N_20 
REMARK       I    between atoms: N_20  and  C_21 
REMARK    6  A    between atoms: C_21  and  C_23 
ROOT
ATOM      1  O   UNL d   1      25.714 -13.153  -3.220  0.00  0.00    -0.271 OA
ATOM      2  C   UNL d   1      25.678 -14.340  -2.881  0.00  0.00     0.239 C 
ATOM      3  N   UNL d   1      25.680 -14.657  -1.532  0.00  0.00    -0.326 N 
ATOM      4  H   UNL d   1      25.631 -13.859  -0.910  0.00  0.00     0.169 HD
ENDROOT
BRANCH   3   5
ATOM      5  C   UNL d   1      25.803 -15.932  -0.950  0.00  0.00     0.036 A 
ATOM      6  C   UNL d   1      27.032 -16.511  -0.684  0.00  0.00     0.029 A 
ATOM      7  C   UNL d   1      27.072 -17.800  -0.126  0.00  0.00     0.004 A 
ATOM      8  C   UNL d   1      25.884 -18.494   0.194  0.00  0.00     0.029 A 
ATOM      9  C   UNL d   1      24.647 -17.933  -0.122  0.00  0.00     0.037 A 
ATOM     10  C   UNL d   1      24.661 -16.681  -0.724  0.00  0.00     0.059 A 
BRANCH   9  11
ATOM     11  N   UNL d   1      23.414 -18.608   0.118  0.00  0.00    -0.322 N 
ATOM     12  C   UNL d   1      22.151 -18.143  -0.280  0.00  0.00     0.263 C 
ATOM     13  O   UNL d   1      21.950 -17.090  -0.895  0.00  0.00    -0.267 OA
ATOM     14  H   UNL d   1      23.462 -19.516   0.563  0.00  0.00     0.169 HD
BRANCH  12  15
ATOM     15  C   UNL d   1      21.020 -18.980   0.050  0.00  0.00     0.072 A 
ATOM     16  C   UNL d   1      20.518 -19.344   1.281  0.00  0.00     0.025 A 
ATOM     17  C   UNL d   1      19.301 -20.081   1.163  0.00  0.00     0.009 A 
ATOM     18  C   UNL d   1      18.921 -20.262  -0.148  0.00  0.00     0.050 A 
ATOM     19  S   UNL d   1      20.011 -19.525  -1.232  0.00  0.00    -0.097 SA
ENDBRANCH  12  15
ENDBRANCH   9  11
ENDBRANCH   3   5
BRANCH   2  20
ATOM     20  C   UNL d   1      25.530 -15.470  -3.927  0.00  0.00     0.226 C 
BRANCH  20  21
ATOM     21  N   UNL d   1      26.623 -15.560  -4.879  0.00  0.00    -0.348 N 
ATOM     22  C   UNL d   1      27.926 -15.575  -4.421  0.00  0.00     0.253 C 
ATOM     23  O   UNL d   1      28.219 -15.680  -3.234  0.00  0.00    -0.268 OA
ATOM     24  H   UNL d   1      26.410 -15.348  -5.848  0.00  0.00     0.163 HD
BRANCH  22  25
ATOM     25  C   UNL d   1      29.014 -15.531  -5.430  0.00  0.00     0.053 A 
ATOM     26  C   UNL d   1      29.950 -16.582  -5.394  0.00  0.00     0.019 A 
ATOM     27  C   UNL d   1      31.016 -16.623  -6.296  0.00  0.00     0.001 A 
ATOM     28  C   UNL d   1      31.165 -15.609  -7.237  0.00  0.00     0.002 A 
ATOM     29  C   UNL d   1      30.254 -14.553  -7.268  0.00  0.00     0.025 A 
ATOM     30  C   UNL d   1      29.182 -14.504  -6.366  0.00  0.00     0.049 A 
ATOM     31 CL   UNL d   1      28.152 -13.120  -6.444  0.00  0.00    -0.083 Cl
ENDBRANCH  22  25
ENDBRANCH  20  21
ENDBRANCH   2  20
TORSDOF 6
ENDMDL
MODEL 8
REMARK VINA RESULT:    -9.164      3.228      4.422
REMARK INTER + INTRA:         -12.488
REMARK INTER:                 -10.953
REMARK INTRA:                  -1.535
REMARK CONF_INDEPENDENT:        1.790
REMARK UNBOUND:                -1.535
REMARK  6 active torsions:
REMARK  status: ('A' for Active; 'I' for Inactive)
REMARK    1  A    between atoms: C_2  and  C_3 
REMARK       I    between atoms: C_2  and  N_14 
REMARK    2  A    between atoms: C_3  and  N_4 
REMARK       I    between atoms: N_4  and  C_5 
REMARK    3  A    between atoms: C_5  and  C_7 
REMARK    4  A    between atoms: N_14  and  C_15 
REMARK    5  A    between atoms: C_19  and  N_20 
REMARK       I    between atoms: N_20  and  C_21 
REMARK    6  A    between atoms: C_21  and  C_23 
ROOT
ATOM      1  O   UNL d   1      25.091 -14.482  -4.443  0.00  0.00    -0.271 OA
ATOM      2  C   UNL d   1      25.243 -14.911  -3.295  0.00  0.00     0.239 C 
ATOM      3  N   UNL d   1      25.183 -16.278  -3.071  0.00  0.00    -0.326 N 
ATOM      4  H   UNL d   1      25.092 -16.840  -3.910  0.00  0.00     0.169 HD
ENDROOT
BRANCH   3   5
ATOM      5  C   UNL d   1      25.170 -16.945  -1.833  0.00  0.00     0.036 A 
ATOM      6  C   UNL d   1      26.293 -17.038  -1.029  0.00  0.00     0.029 A 
ATOM      7  C   UNL d   1      26.206 -17.745   0.183  0.00  0.00     0.004 A 
ATOM      8  C   UNL d   1      24.991 -18.329   0.602  0.00  0.00     0.029 A 
ATOM      9  C   UNL d   1      23.874 -18.280  -0.232  0.00  0.00     0.037 A 
ATOM     10  C   UNL d   1      24.024 -17.618  -1.444  0.00  0.00     0.059 A 
BRANCH   9  11
ATOM     11  N   UNL d   1      22.636 -18.902   0.104  0.00  0.00    -0.322 N 
ATOM     12  C   UNL d   1      21.387 -18.553  -0.433  0.00  0.00     0.263 C 
ATOM     13  O   UNL d   1      21.205 -17.663  -1.270  0.00  0.00    -0.267 OA
ATOM     14  H   UNL d   1      22.671 -19.690   0.739  0.00  0.00     0.169 HD
BRANCH  12  15
ATOM     15  C   UNL d   1      20.248 -19.312   0.032  0.00  0.00     0.072 A 
ATOM     16  C   UNL d   1      19.138 -19.753  -0.656  0.00  0.00     0.025 A 
ATOM     17  C   UNL d   1      18.308 -20.586   0.152  0.00  0.00     0.009 A 
ATOM     18  C   UNL d   1      18.804 -20.746   1.427  0.00  0.00     0.050 A 
ATOM     19  S   UNL d   1      20.279 -19.917   1.642  0.00  0.00    -0.097 SA
ENDBRANCH  12  15
ENDBRANCH   9  11
ENDBRANCH   3   5
BRANCH   2  20
ATOM     20  C   UNL d   1      25.599 -13.964  -2.125  0.00  0.00     0.226 C 
BRANCH  20  21
ATOM     21  N   UNL d   1      26.902 -14.202  -1.528  0.00  0.00    -0.348 N 
ATOM     22  C   UNL d   1      27.017 -14.285  -0.155  0.00  0.00     0.253 C 
ATOM     23  O   UNL d   1      26.048 -14.332   0.599  0.00  0.00    -0.268 OA
ATOM     24  H   UNL d   1      27.713 -14.041  -2.114  0.00  0.00     0.163 HD
BRANCH  22  25
ATOM     25  C   UNL d   1      28.382 -14.393   0.420  0.00  0.00     0.053 A 
ATOM     26  C   UNL d   1      28.623 -13.677   1.607  0.00  0.00     0.019 A 
ATOM     27  C   UNL d   1      29.879 -13.706   2.219  0.00  0.00     0.001 A 
ATOM     28  C   UNL d   1      30.910 -14.443   1.645  0.00  0.00     0.002 A 
ATOM     29  C   UNL d   1      30.687 -15.139   0.457  0.00  0.00     0.025 A 
ATOM     30  C   UNL d   1      29.429 -15.115  -0.163  0.00  0.00     0.049 A 
ATOM     31 CL   UNL d   1      29.277 -15.954  -1.664  0.00  0.00    -0.083 Cl
ENDBRANCH  22  25
ENDBRANCH  20  21
ENDBRANCH   2  20
TORSDOF 6
ENDMDL
MODEL 9
REMARK VINA RESULT:    -8.662      3.781      5.167
REMARK INTER + INTRA:         -11.514
REMARK INTER:                 -10.452
REMARK INTRA:                  -1.062
REMARK CONF_INDEPENDENT:        1.790
REMARK UNBOUND:                -1.062
REMARK  6 active torsions:
REMARK  status: ('A' for Active; 'I' for Inactive)
REMARK    1  A    between atoms: C_2  and  C_3 
REMARK       I    between atoms: C_2  and  N_14 
REMARK    2  A    between atoms: C_3  and  N_4 
REMARK       I    between atoms: N_4  and  C_5 
REMARK    3  A    between atoms: C_5  and  C_7 
REMARK    4  A    between atoms: N_14  and  C_15 
REMARK    5  A    between atoms: C_19  and  N_20 
REMARK       I    between atoms: N_20  and  C_21 
REMARK    6  A    between atoms: C_21  and  C_23 
ROOT
ATOM      1  O   UNL d   1      24.771 -13.145  -3.605  0.00  0.00    -0.271 OA
ATOM      2  C   UNL d   1      25.209 -14.009  -2.840  0.00  0.00     0.239 C 
ATOM      3  N   UNL d   1      24.408 -15.095  -2.519  0.00  0.00    -0.326 N 
ATOM      4  H   UNL d   1      23.527 -15.132  -3.016  0.00  0.00     0.169 HD
ENDROOT
BRANCH   3   5
ATOM      5  C   UNL d   1      24.657 -16.088  -1.555  0.00  0.00     0.036 A 
ATOM      6  C   UNL d   1      25.937 -16.440  -1.164  0.00  0.00     0.029 A 
ATOM      7  C   UNL d   1      26.103 -17.462  -0.214  0.00  0.00     0.004 A 
ATOM      8  C   UNL d   1      24.989 -18.108   0.366  0.00  0.00     0.029 A 
ATOM      9  C   UNL d   1      23.701 -17.791  -0.066  0.00  0.00     0.037 A 
ATOM     10  C   UNL d   1      23.592 -16.814  -1.047  0.00  0.00     0.059 A 
BRANCH   9  11
ATOM     11  N   UNL d   1      22.540 -18.449   0.434  0.00  0.00    -0.322 N 
ATOM     12  C   UNL d   1      21.514 -18.987  -0.359  0.00  0.00     0.263 C 
ATOM     13  O   UNL d   1      21.494 -18.960  -1.594  0.00  0.00    -0.267 OA
ATOM     14  H   UNL d   1      22.479 -18.584   1.436  0.00  0.00     0.169 HD
BRANCH  12  15
ATOM     15  C   UNL d   1      20.422 -19.624   0.340  0.00  0.00     0.072 A 
ATOM     16  C   UNL d   1      20.255 -19.869   1.686  0.00  0.00     0.025 A 
ATOM     17  C   UNL d   1      18.965 -20.407   1.974  0.00  0.00     0.009 A 
ATOM     18  C   UNL d   1      18.196 -20.563   0.842  0.00  0.00     0.050 A 
ATOM     19  S   UNL d   1      19.016 -20.039  -0.559  0.00  0.00    -0.097 SA
ENDBRANCH  12  15
ENDBRANCH   9  11
ENDBRANCH   3   5
BRANCH   2  20
ATOM     20  C   UNL d   1      26.663 -13.955  -2.315  0.00  0.00     0.226 C 
BRANCH  20  21
ATOM     21  N   UNL d   1      26.887 -12.993  -1.251  0.00  0.00    -0.348 N 
ATOM     22  C   UNL d   1      27.500 -13.400  -0.083  0.00  0.00     0.253 C 
ATOM     23  O   UNL d   1      28.020 -14.504   0.053  0.00  0.00    -0.268 OA
ATOM     24  H   UNL d   1      26.360 -12.128  -1.293  0.00  0.00     0.163 HD
BRANCH  22  25
ATOM     25  C   UNL d   1      27.587 -12.421   1.031  0.00  0.00     0.053 A 
ATOM     26  C   UNL d   1      27.626 -11.061   0.670  0.00  0.00     0.019 A 
ATOM     27  C   UNL d   1      27.718 -10.064   1.646  0.00  0.00     0.001 A 
ATOM     28  C   UNL d   1      27.784 -10.416   2.990  0.00  0.00     0.002 A 
ATOM     29  C   UNL d   1      27.767 -11.763   3.356  0.00  0.00     0.025 A 
ATOM     30  C   UNL d   1      27.675 -12.769   2.383  0.00  0.00     0.049 A 
ATOM     31 CL   UNL d   1      27.730 -14.404   2.936  0.00  0.00    -0.083 Cl
ENDBRANCH  22  25
ENDBRANCH  20  21
ENDBRANCH   2  20
TORSDOF 6
ENDMDL
