MODEL 1
REMARK VINA RESULT:    -8.243      0.000      0.000
REMARK INTER + INTRA:         -12.746
REMARK INTER:                 -10.928
REMARK INTRA:                  -1.818
REMARK CONF_INDEPENDENT:        2.685
REMARK UNBOUND:                -1.818
REMARK  9 active torsions:
REMARK  status: ('A' for Active; 'I' for Inactive)
REMARK    1  A    between atoms: C_3  and  C_4 
REMARK    2  A    between atoms: C_7  and  O_8 
REMARK    3  A    between atoms: O_8  and  C_9 
REMARK    4  A    between atoms: C_9  and  C_10 
REMARK       I    between atoms: C_10  and  N_12 
REMARK    5  A    between atoms: N_12  and  N_13 
REMARK       I    between atoms: N_13  and  C_14 
REMARK       I    between atoms: C_14  and  N_16 
REMARK    6  A    between atoms: N_16  and  C_17 
REMARK    7  A    between atoms: C_17  and  C_18 
REMARK    8  A    between atoms: C_18  and  C_19 
REMARK    9  A    between atoms: C_21  and  O_22 
ROOT
ATOM      1  C   UNL d   1      25.571 -14.511  -3.271  0.00  0.00     0.260 C 
ATOM      2  O   UNL d   1      24.938 -14.825  -4.281  0.00  0.00    -0.269 OA
ATOM      3  N   UNL d   1      25.820 -13.169  -2.966  0.00  0.00    -0.264 N 
ATOM      4  H   UNL d   1      26.336 -12.846  -2.148  0.00  0.00     0.190 HD
ENDROOT
BRANCH   1   5
ATOM      5  C   UNL d   1      26.142 -15.557  -2.270  0.00  0.00     0.280 C 
BRANCH   5   6
ATOM      6  O   UNL d   1      25.419 -15.629  -1.028  0.00  0.00    -0.339 OA
BRANCH   6   7
ATOM      7  C   UNL d   1      24.538 -16.670  -0.813  0.00  0.00     0.102 A 
ATOM      8  C   UNL d   1      23.175 -16.324  -0.912  0.00  0.00     0.040 A 
ATOM      9  C   UNL d   1      22.155 -17.255  -0.638  0.00  0.00     0.014 A 
ATOM     10  C   UNL d   1      22.481 -18.572  -0.321  0.00  0.00    -0.034 A 
ATOM     11  C   UNL d   1      23.832 -18.929  -0.270  0.00  0.00     0.051 A 
ATOM     12  C   UNL d   1      24.860 -18.002  -0.511  0.00  0.00     0.102 A 
BRANCH  10  13
ATOM     13  C   UNL d   1      21.447 -19.603  -0.151  0.00  0.00     0.007 C 
ATOM     14  C   UNL d   1      20.134 -19.322  -0.124  0.00  0.00    -0.030 C 
ATOM     15  C   UNL d   1      19.083 -20.351   0.124  0.00  0.00     0.036 C 
ENDBRANCH  10  13
BRANCH  12  16
ATOM     16  O   UNL d   1      26.181 -18.357  -0.493  0.00  0.00    -0.353 OA
ATOM     17  C   UNL d   1      26.990 -17.854   0.557  0.00  0.00     0.210 C 
ENDBRANCH  12  16
ENDBRANCH   6   7
ENDBRANCH   5   6
ENDBRANCH   1   5
BRANCH   3  18
ATOM     18  N   UNL d   1      25.342 -12.142  -3.853  0.00  0.00    -0.249 N 
ATOM     19  C   UNL d   1      25.674 -10.815  -3.625  0.00  0.00     0.334 C 
ATOM     20  O   UNL d   1      26.376 -10.471  -2.671  0.00  0.00    -0.246 OA
ATOM     21  N   UNL d   1      25.159  -9.918  -4.543  0.00  0.00    -0.342 N 
ATOM     22  H   UNL d   1      24.589 -10.253  -5.306  0.00  0.00     0.164 HD
ATOM     23  H   UNL d   1      24.770 -12.462  -4.629  0.00  0.00     0.192 HD
BRANCH  21  24
ATOM     24  C   UNL d   1      25.418  -8.477  -4.436  0.00  0.00     0.124 C 
BRANCH  24  25
ATOM     25  C   UNL d   1      24.742  -7.629  -5.526  0.00  0.00     0.019 C 
BRANCH  25  26
ATOM     26  C   UNL d   1      23.210  -7.595  -5.374  0.00  0.00    -0.003 C 
ATOM     27  C   UNL d   1      22.571  -6.598  -6.333  0.00  0.00     0.005 C 
ENDBRANCH  25  26
ENDBRANCH  24  25
ENDBRANCH  21  24
ENDBRANCH   3  18
TORSDOF 9
ENDMDL
MODEL 2
REMARK VINA RESULT:    -8.092      3.886      9.479
REMARK INTER + INTRA:         -12.924
REMARK INTER:                 -10.777
REMARK INTRA:                  -2.147
REMARK CONF_INDEPENDENT:        2.685
REMARK UNBOUND:                -2.147
REMARK  9 active torsions:
REMARK  status: ('A' for Active; 'I' for Inactive)
REMARK    1  A    between atoms: C_3  and  C_4 
REMARK    2  A    between atoms: C_7  and  O_8 
REMARK    3  A    between atoms: O_8  and  C_9 
REMARK    4  A    between atoms: C_9  and  C_10 
REMARK       I    between atoms: C_10  and  N_12 
REMARK    5  A    between atoms: N_12  and  N_13 
REMARK       I    between atoms: N_13  and  C_14 
REMARK       I    between atoms: C_14  and  N_16 
REMARK    6  A    between atoms: N_16  and  C_17 
REMARK    7  A    between atoms: C_17  and  C_18 
REMARK    8  A    between atoms: C_18  and  C_19 
REMARK    9  A    between atoms: C_21  and  O_22 
ROOT
ATOM      1  C   UNL d   1      25.473 -17.664   0.180  0.00  0.00     0.260 C 
ATOM      2  O   UNL d   1      25.806 -18.562   0.957  0.00  0.00    -0.269 OA
ATOM      3  N   UNL d   1      24.172 -17.601  -0.330  0.00  0.00    -0.264 N 
ATOM      4  H   UNL d   1      23.835 -16.886  -0.974  0.00  0.00     0.190 HD
ENDROOT
BRANCH   1   5
ATOM      5  C   UNL d   1      26.449 -16.550  -0.296  0.00  0.00     0.280 C 
BRANCH   5   6
ATOM      6  O   UNL d   1      25.944 -15.762  -1.388  0.00  0.00    -0.339 OA
BRANCH   6   7
ATOM      7  C   UNL d   1      26.663 -15.689  -2.565  0.00  0.00     0.102 A 
ATOM      8  C   UNL d   1      27.990 -16.157  -2.479  0.00  0.00     0.040 A 
ATOM      9  C   UNL d   1      28.875 -16.071  -3.571  0.00  0.00     0.014 A 
ATOM     10  C   UNL d   1      28.428 -15.573  -4.793  0.00  0.00    -0.034 A 
ATOM     11  C   UNL d   1      27.097 -15.155  -4.893  0.00  0.00     0.051 A 
ATOM     12  C   UNL d   1      26.213 -15.205  -3.803  0.00  0.00     0.102 A 
BRANCH  10  13
ATOM     13  C   UNL d   1      29.281 -15.584  -5.989  0.00  0.00     0.007 C 
ATOM     14  C   UNL d   1      30.266 -16.479  -6.175  0.00  0.00    -0.030 C 
ATOM     15  C   UNL d   1      31.187 -16.450  -7.349  0.00  0.00     0.036 C 
ENDBRANCH  10  13
BRANCH  12  16
ATOM     16  O   UNL d   1      24.903 -14.826  -3.908  0.00  0.00    -0.353 OA
ATOM     17  C   UNL d   1      24.626 -13.472  -4.224  0.00  0.00     0.210 C 
ENDBRANCH  12  16
ENDBRANCH   6   7
ENDBRANCH   5   6
ENDBRANCH   1   5
BRANCH   3  18
ATOM     18  N   UNL d   1      23.215 -18.607   0.047  0.00  0.00    -0.249 N 
ATOM     19  C   UNL d   1      21.905 -18.524  -0.400  0.00  0.00     0.334 C 
ATOM     20  O   UNL d   1      21.517 -17.603  -1.122  0.00  0.00    -0.246 OA
ATOM     21  N   UNL d   1      21.077 -19.547   0.025  0.00  0.00    -0.342 N 
ATOM     22  H   UNL d   1      21.446 -20.278   0.616  0.00  0.00     0.164 HD
ATOM     23  H   UNL d   1      23.570 -19.353   0.639  0.00  0.00     0.192 HD
BRANCH  21  24
ATOM     24  C   UNL d   1      19.661 -19.600  -0.361  0.00  0.00     0.124 C 
BRANCH  24  25
ATOM     25  C   UNL d   1      18.875 -20.762   0.267  0.00  0.00     0.019 C 
BRANCH  25  26
ATOM     26  C   UNL d   1      18.395 -20.439   1.694  0.00  0.00    -0.003 C 
ATOM     27  C   UNL d   1      19.546 -20.449   2.692  0.00  0.00     0.005 C 
ENDBRANCH  25  26
ENDBRANCH  24  25
ENDBRANCH  21  24
ENDBRANCH   3  18
TORSDOF 9
ENDMDL
MODEL 3
REMARK VINA RESULT:    -7.970      3.044      9.489
REMARK INTER + INTRA:         -12.558
REMARK INTER:                 -10.655
REMARK INTRA:                  -1.903
REMARK CONF_INDEPENDENT:        2.685
REMARK UNBOUND:                -1.903
REMARK  9 active torsions:
REMARK  status: ('A' for Active; 'I' for Inactive)
REMARK    1  A    between atoms: C_3  and  C_4 
REMARK    2  A    between atoms: C_7  and  O_8 
REMARK    3  A    between atoms: O_8  and  C_9 
REMARK    4  A    between atoms: C_9  and  C_10 
REMARK       I    between atoms: C_10  and  N_12 
REMARK    5  A    between atoms: N_12  and  N_13 
REMARK       I    between atoms: N_13  and  C_14 
REMARK       I    between atoms: C_14  and  N_16 
REMARK    6  A    between atoms: N_16  and  C_17 
REMARK    7  A    between atoms: C_17  and  C_18 
REMARK    8  A    between atoms: C_18  and  C_19 
REMARK    9  A    between atoms: C_21  and  O_22 
ROOT
ATOM      1  C   UNL d   1      25.357 -17.347  -0.833  0.00  0.00     0.260 C 
ATOM      2  O   UNL d   1      25.908 -18.074  -0.003  0.00  0.00    -0.269 OA
ATOM      3  N   UNL d   1      24.003 -17.508  -1.144  0.00  0.00    -0.264 N 
ATOM      4  H   UNL d   1      23.490 -16.941  -1.819  0.00  0.00     0.190 HD
ENDROOT
BRANCH   1   5
ATOM      5  C   UNL d   1      26.103 -16.214  -1.595  0.00  0.00     0.280 C 
BRANCH   5   6
ATOM      6  O   UNL d   1      25.669 -16.045  -2.957  0.00  0.00    -0.339 OA
BRANCH   6   7
ATOM      7  C   UNL d   1      25.849 -14.827  -3.582  0.00  0.00     0.102 A 
ATOM      8  C   UNL d   1      25.208 -13.738  -2.957  0.00  0.00     0.040 A 
ATOM      9  C   UNL d   1      25.229 -12.448  -3.520  0.00  0.00     0.014 A 
ATOM     10  C   UNL d   1      25.948 -12.209  -4.689  0.00  0.00    -0.034 A 
ATOM     11  C   UNL d   1      26.626 -13.278  -5.283  0.00  0.00     0.051 A 
ATOM     12  C   UNL d   1      26.587 -14.577  -4.750  0.00  0.00     0.102 A 
BRANCH  10  13
ATOM     13  C   UNL d   1      26.099 -10.854  -5.238  0.00  0.00     0.007 C 
ATOM     14  C   UNL d   1      25.532  -9.773  -4.679  0.00  0.00    -0.030 C 
ATOM     15  C   UNL d   1      25.615  -8.406  -5.272  0.00  0.00     0.036 C 
ENDBRANCH  10  13
BRANCH  12  16
ATOM     16  O   UNL d   1      27.274 -15.617  -5.312  0.00  0.00    -0.353 OA
ATOM     17  C   UNL d   1      28.691 -15.573  -5.282  0.00  0.00     0.210 C 
ENDBRANCH  12  16
ENDBRANCH   6   7
ENDBRANCH   5   6
ENDBRANCH   1   5
BRANCH   3  18
ATOM     18  N   UNL d   1      23.248 -18.547  -0.495  0.00  0.00    -0.249 N 
ATOM     19  C   UNL d   1      21.866 -18.577  -0.608  0.00  0.00     0.334 C 
ATOM     20  O   UNL d   1      21.243 -17.731  -1.254  0.00  0.00    -0.246 OA
ATOM     21  N   UNL d   1      21.248 -19.622   0.055  0.00  0.00    -0.342 N 
ATOM     22  H   UNL d   1      21.805 -20.288   0.570  0.00  0.00     0.164 HD
ATOM     23  H   UNL d   1      23.793 -19.229   0.024  0.00  0.00     0.192 HD
BRANCH  21  24
ATOM     24  C   UNL d   1      19.789 -19.789   0.034  0.00  0.00     0.124 C 
BRANCH  24  25
ATOM     25  C   UNL d   1      19.080 -19.335   1.320  0.00  0.00     0.019 C 
BRANCH  25  26
ATOM     26  C   UNL d   1      18.477 -20.515   2.103  0.00  0.00    -0.003 C 
ATOM     27  C   UNL d   1      17.904 -21.575   1.171  0.00  0.00     0.005 C 
ENDBRANCH  25  26
ENDBRANCH  24  25
ENDBRANCH  21  24
ENDBRANCH   3  18
TORSDOF 9
ENDMDL
MODEL 4
REMARK VINA RESULT:    -7.687      2.138      2.375
REMARK INTER + INTRA:         -12.174
REMARK INTER:                 -10.372
REMARK INTRA:                  -1.802
REMARK CONF_INDEPENDENT:        2.685
REMARK UNBOUND:                -1.802
REMARK  9 active torsions:
REMARK  status: ('A' for Active; 'I' for Inactive)
REMARK    1  A    between atoms: C_3  and  C_4 
REMARK    2  A    between atoms: C_7  and  O_8 
REMARK    3  A    between atoms: O_8  and  C_9 
REMARK    4  A    between atoms: C_9  and  C_10 
REMARK       I    between atoms: C_10  and  N_12 
REMARK    5  A    between atoms: N_12  and  N_13 
REMARK       I    between atoms: N_13  and  C_14 
REMARK       I    between atoms: C_14  and  N_16 
REMARK    6  A    between atoms: N_16  and  C_17 
REMARK    7  A    between atoms: C_17  and  C_18 
REMARK    8  A    between atoms: C_18  and  C_19 
REMARK    9  A    between atoms: C_21  and  O_22 
ROOT
ATOM      1  C   UNL d   1      25.521 -14.368  -3.603  0.00  0.00     0.260 C 
ATOM      2  O   UNL d   1      24.311 -14.450  -3.823  0.00  0.00    -0.269 OA
ATOM      3  N   UNL d   1      26.263 -13.275  -4.062  0.00  0.00    -0.264 N 
ATOM      4  H   UNL d   1      27.264 -13.149  -3.913  0.00  0.00     0.190 HD
ENDROOT
BRANCH   1   5
ATOM      5  C   UNL d   1      26.315 -15.452  -2.818  0.00  0.00     0.280 C 
BRANCH   5   6
ATOM      6  O   UNL d   1      25.924 -15.575  -1.439  0.00  0.00    -0.339 OA
BRANCH   6   7
ATOM      7  C   UNL d   1      24.945 -16.484  -1.088  0.00  0.00     0.102 A 
ATOM      8  C   UNL d   1      23.622 -16.031  -1.266  0.00  0.00     0.040 A 
ATOM      9  C   UNL d   1      22.516 -16.809  -0.876  0.00  0.00     0.014 A 
ATOM     10  C   UNL d   1      22.712 -18.088  -0.358  0.00  0.00    -0.034 A 
ATOM     11  C   UNL d   1      24.023 -18.558  -0.227  0.00  0.00     0.051 A 
ATOM     12  C   UNL d   1      25.136 -17.780  -0.582  0.00  0.00     0.102 A 
BRANCH  10  13
ATOM     13  C   UNL d   1      21.584 -18.980  -0.057  0.00  0.00     0.007 C 
ATOM     14  C   UNL d   1      20.440 -18.972  -0.761  0.00  0.00    -0.030 C 
ATOM     15  C   UNL d   1      19.261 -19.819  -0.416  0.00  0.00     0.036 C 
ENDBRANCH  10  13
BRANCH  12  16
ATOM     16  O   UNL d   1      26.417 -18.249  -0.484  0.00  0.00    -0.353 OA
ATOM     17  C   UNL d   1      27.272 -17.654   0.477  0.00  0.00     0.210 C 
ENDBRANCH  12  16
ENDBRANCH   6   7
ENDBRANCH   5   6
ENDBRANCH   1   5
BRANCH   3  18
ATOM     18  N   UNL d   1      25.605 -12.239  -4.813  0.00  0.00    -0.249 N 
ATOM     19  C   UNL d   1      26.352 -11.262  -5.453  0.00  0.00     0.334 C 
ATOM     20  O   UNL d   1      27.584 -11.241  -5.402  0.00  0.00    -0.246 OA
ATOM     21  N   UNL d   1      25.612 -10.321  -6.146  0.00  0.00    -0.342 N 
ATOM     22  H   UNL d   1      24.604 -10.384  -6.155  0.00  0.00     0.164 HD
ATOM     23  H   UNL d   1      24.590 -12.290  -4.837  0.00  0.00     0.192 HD
BRANCH  21  24
ATOM     24  C   UNL d   1      26.256  -9.220  -6.872  0.00  0.00     0.124 C 
BRANCH  24  25
ATOM     25  C   UNL d   1      26.669  -9.566  -8.312  0.00  0.00     0.019 C 
BRANCH  25  26
ATOM     26  C   UNL d   1      26.548 -11.071  -8.609  0.00  0.00    -0.003 C 
ATOM     27  C   UNL d   1      26.854 -11.384 -10.069  0.00  0.00     0.005 C 
ENDBRANCH  25  26
ENDBRANCH  24  25
ENDBRANCH  21  24
ENDBRANCH   3  18
TORSDOF 9
ENDMDL
MODEL 5
REMARK VINA RESULT:    -7.604      3.743      5.782
REMARK INTER + INTRA:         -12.222
REMARK INTER:                 -10.288
REMARK INTRA:                  -1.933
REMARK CONF_INDEPENDENT:        2.685
REMARK UNBOUND:                -1.933
REMARK  9 active torsions:
REMARK  status: ('A' for Active; 'I' for Inactive)
REMARK    1  A    between atoms: C_3  and  C_4 
REMARK    2  A    between atoms: C_7  and  O_8 
REMARK    3  A    between atoms: O_8  and  C_9 
REMARK    4  A    between atoms: C_9  and  C_10 
REMARK       I    between atoms: C_10  and  N_12 
REMARK    5  A    between atoms: N_12  and  N_13 
REMARK       I    between atoms: N_13  and  C_14 
REMARK       I    between atoms: C_14  and  N_16 
REMARK    6  A    between atoms: N_16  and  C_17 
REMARK    7  A    between atoms: C_17  and  C_18 
REMARK    8  A    between atoms: C_18  and  C_19 
REMARK    9  A    between atoms: C_21  and  O_22 
ROOT
ATOM      1  C   UNL d   1      25.843 -14.805  -3.785  0.00  0.00     0.260 C 
ATOM      2  O   UNL d   1      25.155 -14.506  -4.764  0.00  0.00    -0.269 OA
ATOM      3  N   UNL d   1      27.180 -15.185  -3.935  0.00  0.00    -0.264 N 
ATOM      4  H   UNL d   1      27.800 -15.443  -3.167  0.00  0.00     0.190 HD
ENDROOT
BRANCH   1   5
ATOM      5  C   UNL d   1      25.295 -14.791  -2.328  0.00  0.00     0.280 C 
BRANCH   5   6
ATOM      6  O   UNL d   1      25.655 -15.953  -1.560  0.00  0.00    -0.339 OA
BRANCH   6   7
ATOM      7  C   UNL d   1      24.665 -16.805  -1.109  0.00  0.00     0.102 A 
ATOM      8  C   UNL d   1      23.350 -16.321  -1.264  0.00  0.00     0.040 A 
ATOM      9  C   UNL d   1      22.239 -17.035  -0.777  0.00  0.00     0.014 A 
ATOM     10  C   UNL d   1      22.419 -18.282  -0.182  0.00  0.00    -0.034 A 
ATOM     11  C   UNL d   1      23.719 -18.785  -0.072  0.00  0.00     0.051 A 
ATOM     12  C   UNL d   1      24.839 -18.069  -0.525  0.00  0.00     0.102 A 
BRANCH  10  13
ATOM     13  C   UNL d   1      21.278 -19.114   0.225  0.00  0.00     0.007 C 
ATOM     14  C   UNL d   1      20.209 -19.321  -0.562  0.00  0.00    -0.030 C 
ATOM     15  C   UNL d   1      19.013 -20.101  -0.128  0.00  0.00     0.036 C 
ENDBRANCH  10  13
BRANCH  12  16
ATOM     16  O   UNL d   1      26.108 -18.572  -0.446  0.00  0.00    -0.353 OA
ATOM     17  C   UNL d   1      27.073 -17.834   0.284  0.00  0.00     0.210 C 
ENDBRANCH  12  16
ENDBRANCH   6   7
ENDBRANCH   5   6
ENDBRANCH   1   5
BRANCH   3  18
ATOM     18  N   UNL d   1      27.755 -15.241  -5.252  0.00  0.00    -0.249 N 
ATOM     19  C   UNL d   1      29.093 -15.570  -5.415  0.00  0.00     0.334 C 
ATOM     20  O   UNL d   1      29.826 -15.820  -4.455  0.00  0.00    -0.246 OA
ATOM     21  N   UNL d   1      29.533 -15.595  -6.725  0.00  0.00    -0.342 N 
ATOM     22  H   UNL d   1      28.890 -15.382  -7.475  0.00  0.00     0.164 HD
ATOM     23  H   UNL d   1      27.121 -15.033  -6.019  0.00  0.00     0.192 HD
BRANCH  21  24
ATOM     24  C   UNL d   1      30.924 -15.922  -7.062  0.00  0.00     0.124 C 
BRANCH  24  25
ATOM     25  C   UNL d   1      31.190 -17.422  -7.272  0.00  0.00     0.019 C 
BRANCH  25  26
ATOM     26  C   UNL d   1      30.563 -18.288  -6.165  0.00  0.00    -0.003 C 
ATOM     27  C   UNL d   1      30.430 -19.743  -6.596  0.00  0.00     0.005 C 
ENDBRANCH  25  26
ENDBRANCH  24  25
ENDBRANCH  21  24
ENDBRANCH   3  18
TORSDOF 9
ENDMDL
MODEL 6
REMARK VINA RESULT:    -7.422      4.850      6.729
REMARK INTER + INTRA:         -12.237
REMARK INTER:                 -10.107
REMARK INTRA:                  -2.130
REMARK CONF_INDEPENDENT:        2.685
REMARK UNBOUND:                -2.130
REMARK  9 active torsions:
REMARK  status: ('A' for Active; 'I' for Inactive)
REMARK    1  A    between atoms: C_3  and  C_4 
REMARK    2  A    between atoms: C_7  and  O_8 
REMARK    3  A    between atoms: O_8  and  C_9 
REMARK    4  A    between atoms: C_9  and  C_10 
REMARK       I    between atoms: C_10  and  N_12 
REMARK    5  A    between atoms: N_12  and  N_13 
REMARK       I    between atoms: N_13  and  C_14 
REMARK       I    between atoms: C_14  and  N_16 
REMARK    6  A    between atoms: N_16  and  C_17 
REMARK    7  A    between atoms: C_17  and  C_18 
REMARK    8  A    between atoms: C_18  and  C_19 
REMARK    9  A    between atoms: C_21  and  O_22 
ROOT
ATOM      1  C   UNL d   1      27.629 -15.899  -0.450  0.00  0.00     0.260 C 
ATOM      2  O   UNL d   1      28.660 -16.553  -0.623  0.00  0.00    -0.269 OA
ATOM      3  N   UNL d   1      27.427 -15.172   0.727  0.00  0.00    -0.264 N 
ATOM      4  H   UNL d   1      26.598 -14.614   0.930  0.00  0.00     0.190 HD
ENDROOT
BRANCH   1   5
ATOM      5  C   UNL d   1      26.484 -15.830  -1.501  0.00  0.00     0.280 C 
BRANCH   5   6
ATOM      6  O   UNL d   1      25.182 -15.606  -0.930  0.00  0.00    -0.339 OA
BRANCH   6   7
ATOM      7  C   UNL d   1      24.321 -16.673  -0.761  0.00  0.00     0.102 A 
ATOM      8  C   UNL d   1      22.957 -16.369  -0.950  0.00  0.00     0.040 A 
ATOM      9  C   UNL d   1      21.950 -17.329  -0.732  0.00  0.00     0.014 A 
ATOM     10  C   UNL d   1      22.295 -18.633  -0.382  0.00  0.00    -0.034 A 
ATOM     11  C   UNL d   1      23.651 -18.947  -0.241  0.00  0.00     0.051 A 
ATOM     12  C   UNL d   1      24.663 -17.991  -0.425  0.00  0.00     0.102 A 
BRANCH  10  13
ATOM     13  C   UNL d   1      21.284 -19.694  -0.268  0.00  0.00     0.007 C 
ATOM     14  C   UNL d   1      20.151 -19.549   0.437  0.00  0.00    -0.030 C 
ATOM     15  C   UNL d   1      19.156 -20.646   0.622  0.00  0.00     0.036 C 
ENDBRANCH  10  13
BRANCH  12  16
ATOM     16  O   UNL d   1      25.990 -18.304  -0.318  0.00  0.00    -0.353 OA
ATOM     17  C   UNL d   1      26.514 -18.553   0.976  0.00  0.00     0.210 C 
ENDBRANCH  12  16
ENDBRANCH   6   7
ENDBRANCH   5   6
ENDBRANCH   1   5
BRANCH   3  18
ATOM     18  N   UNL d   1      28.432 -15.201   1.757  0.00  0.00    -0.249 N 
ATOM     19  C   UNL d   1      28.350 -14.331   2.834  0.00  0.00     0.334 C 
ATOM     20  O   UNL d   1      27.433 -13.514   2.947  0.00  0.00    -0.246 OA
ATOM     21  N   UNL d   1      29.370 -14.451   3.760  0.00  0.00    -0.342 N 
ATOM     22  H   UNL d   1      30.098 -15.137   3.619  0.00  0.00     0.164 HD
ATOM     23  H   UNL d   1      29.170 -15.889   1.633  0.00  0.00     0.192 HD
BRANCH  21  24
ATOM     24  C   UNL d   1      29.427 -13.599   4.954  0.00  0.00     0.124 C 
BRANCH  24  25
ATOM     25  C   UNL d   1      28.569 -14.094   6.129  0.00  0.00     0.019 C 
BRANCH  25  26
ATOM     26  C   UNL d   1      28.156 -12.951   7.074  0.00  0.00    -0.003 C 
ATOM     27  C   UNL d   1      28.619 -11.596   6.555  0.00  0.00     0.005 C 
ENDBRANCH  25  26
ENDBRANCH  24  25
ENDBRANCH  21  24
ENDBRANCH   3  18
TORSDOF 9
ENDMDL
MODEL 7
REMARK VINA RESULT:    -7.182      3.832      9.435
REMARK INTER + INTRA:         -12.031
REMARK INTER:                  -9.866
REMARK INTRA:                  -2.165
REMARK CONF_INDEPENDENT:        2.685
REMARK UNBOUND:                -2.165
REMARK  9 active torsions:
REMARK  status: ('A' for Active; 'I' for Inactive)
REMARK    1  A    between atoms: C_3  and  C_4 
REMARK    2  A    between atoms: C_7  and  O_8 
REMARK    3  A    between atoms: O_8  and  C_9 
REMARK    4  A    between atoms: C_9  and  C_10 
REMARK       I    between atoms: C_10  and  N_12 
REMARK    5  A    between atoms: N_12  and  N_13 
REMARK       I    between atoms: N_13  and  C_14 
REMARK       I    between atoms: C_14  and  N_16 
REMARK    6  A    between atoms: N_16  and  C_17 
REMARK    7  A    between atoms: C_17  and  C_18 
REMARK    8  A    between atoms: C_18  and  C_19 
REMARK    9  A    between atoms: C_21  and  O_22 
ROOT
ATOM      1  C   UNL d   1      25.217 -17.564   0.097  0.00  0.00     0.260 C 
ATOM      2  O   UNL d   1      25.686 -18.526   0.707  0.00  0.00    -0.269 OA
ATOM      3  N   UNL d   1      23.864 -17.527  -0.258  0.00  0.00    -0.264 N 
ATOM      4  H   UNL d   1      23.416 -16.762  -0.762  0.00  0.00     0.190 HD
ENDROOT
BRANCH   1   5
ATOM      5  C   UNL d   1      26.068 -16.333  -0.330  0.00  0.00     0.280 C 
BRANCH   5   6
ATOM      6  O   UNL d   1      25.342 -15.364  -1.106  0.00  0.00    -0.339 OA
BRANCH   6   7
ATOM      7  C   UNL d   1      25.927 -14.816  -2.232  0.00  0.00     0.102 A 
ATOM      8  C   UNL d   1      25.797 -15.590  -3.403  0.00  0.00     0.040 A 
ATOM      9  C   UNL d   1      26.410 -15.207  -4.612  0.00  0.00     0.014 A 
ATOM     10  C   UNL d   1      27.113 -14.006  -4.687  0.00  0.00    -0.034 A 
ATOM     11  C   UNL d   1      27.200 -13.214  -3.537  0.00  0.00     0.051 A 
ATOM     12  C   UNL d   1      26.620 -13.599  -2.318  0.00  0.00     0.102 A 
BRANCH  10  13
ATOM     13  C   UNL d   1      27.659 -13.510  -5.958  0.00  0.00     0.007 C 
ATOM     14  C   UNL d   1      27.404 -12.279  -6.430  0.00  0.00    -0.030 C 
ATOM     15  C   UNL d   1      27.891 -11.794  -7.755  0.00  0.00     0.036 C 
ENDBRANCH  10  13
BRANCH  12  16
ATOM     16  O   UNL d   1      26.678 -12.811  -1.201  0.00  0.00    -0.353 OA
ATOM     17  C   UNL d   1      27.420 -13.285  -0.090  0.00  0.00     0.210 C 
ENDBRANCH  12  16
ENDBRANCH   6   7
ENDBRANCH   5   6
ENDBRANCH   1   5
BRANCH   3  18
ATOM     18  N   UNL d   1      23.014 -18.637   0.084  0.00  0.00    -0.249 N 
ATOM     19  C   UNL d   1      21.676 -18.626  -0.279  0.00  0.00     0.334 C 
ATOM     20  O   UNL d   1      21.173 -17.683  -0.895  0.00  0.00    -0.246 OA
ATOM     21  N   UNL d   1      20.958 -19.745   0.101  0.00  0.00    -0.342 N 
ATOM     22  H   UNL d   1      21.420 -20.490   0.604  0.00  0.00     0.164 HD
ATOM     23  H   UNL d   1      23.463 -19.397   0.587  0.00  0.00     0.192 HD
BRANCH  21  24
ATOM     24  C   UNL d   1      19.529 -19.883  -0.206  0.00  0.00     0.124 C 
BRANCH  24  25
ATOM     25  C   UNL d   1      18.792 -20.923   0.653  0.00  0.00     0.019 C 
BRANCH  25  26
ATOM     26  C   UNL d   1      18.581 -20.442   2.099  0.00  0.00    -0.003 C 
ATOM     27  C   UNL d   1      19.902 -20.298   2.845  0.00  0.00     0.005 C 
ENDBRANCH  25  26
ENDBRANCH  24  25
ENDBRANCH  21  24
ENDBRANCH   3  18
TORSDOF 9
ENDMDL
MODEL 8
REMARK VINA RESULT:    -6.591      3.509      9.038
REMARK INTER + INTRA:         -12.137
REMARK INTER:                  -9.276
REMARK INTRA:                  -2.861
REMARK CONF_INDEPENDENT:        2.685
REMARK UNBOUND:                -2.861
REMARK  9 active torsions:
REMARK  status: ('A' for Active; 'I' for Inactive)
REMARK    1  A    between atoms: C_3  and  C_4 
REMARK    2  A    between atoms: C_7  and  O_8 
REMARK    3  A    between atoms: O_8  and  C_9 
REMARK    4  A    between atoms: C_9  and  C_10 
REMARK       I    between atoms: C_10  and  N_12 
REMARK    5  A    between atoms: N_12  and  N_13 
REMARK       I    between atoms: N_13  and  C_14 
REMARK       I    between atoms: C_14  and  N_16 
REMARK    6  A    between atoms: N_16  and  C_17 
REMARK    7  A    between atoms: C_17  and  C_18 
REMARK    8  A    between atoms: C_18  and  C_19 
REMARK    9  A    between atoms: C_21  and  O_22 
ROOT
ATOM      1  C   UNL d   1      25.888 -18.118   0.352  0.00  0.00     0.260 C 
ATOM      2  O   UNL d   1      25.976 -18.575   1.494  0.00  0.00    -0.269 OA
ATOM      3  N   UNL d   1      24.697 -18.223  -0.374  0.00  0.00    -0.264 N 
ATOM      4  H   UNL d   1      24.561 -17.867  -1.320  0.00  0.00     0.190 HD
ENDROOT
BRANCH   1   5
ATOM      5  C   UNL d   1      27.068 -17.407  -0.370  0.00  0.00     0.280 C 
BRANCH   5   6
ATOM      6  O   UNL d   1      26.879 -17.258  -1.788  0.00  0.00    -0.339 OA
BRANCH   6   7
ATOM      7  C   UNL d   1      26.447 -16.048  -2.294  0.00  0.00     0.102 A 
ATOM      8  C   UNL d   1      27.473 -15.197  -2.753  0.00  0.00     0.040 A 
ATOM      9  C   UNL d   1      27.201 -13.897  -3.219  0.00  0.00     0.014 A 
ATOM     10  C   UNL d   1      25.885 -13.446  -3.296  0.00  0.00    -0.034 A 
ATOM     11  C   UNL d   1      24.862 -14.308  -2.888  0.00  0.00     0.051 A 
ATOM     12  C   UNL d   1      25.122 -15.595  -2.391  0.00  0.00     0.102 A 
BRANCH  10  13
ATOM     13  C   UNL d   1      25.548 -12.146  -3.893  0.00  0.00     0.007 C 
ATOM     14  C   UNL d   1      25.951 -11.781  -5.122  0.00  0.00    -0.030 C 
ATOM     15  C   UNL d   1      25.679 -10.435  -5.705  0.00  0.00     0.036 C 
ENDBRANCH  10  13
BRANCH  12  16
ATOM     16  O   UNL d   1      24.122 -16.451  -2.020  0.00  0.00    -0.353 OA
ATOM     17  C   UNL d   1      23.095 -15.950  -1.181  0.00  0.00     0.210 C 
ENDBRANCH  12  16
ENDBRANCH   6   7
ENDBRANCH   5   6
ENDBRANCH   1   5
BRANCH   3  18
ATOM     18  N   UNL d   1      23.565 -18.885   0.217  0.00  0.00    -0.249 N 
ATOM     19  C   UNL d   1      22.424 -19.118  -0.536  0.00  0.00     0.334 C 
ATOM     20  O   UNL d   1      22.337 -18.772  -1.717  0.00  0.00    -0.246 OA
ATOM     21  N   UNL d   1      21.401 -19.762   0.136  0.00  0.00    -0.342 N 
ATOM     22  H   UNL d   1      21.525 -20.024   1.104  0.00  0.00     0.164 HD
ATOM     23  H   UNL d   1      23.673 -19.159   1.189  0.00  0.00     0.192 HD
BRANCH  21  24
ATOM     24  C   UNL d   1      20.127 -20.077  -0.522  0.00  0.00     0.124 C 
BRANCH  24  25
ATOM     25  C   UNL d   1      18.999 -20.483   0.440  0.00  0.00     0.019 C 
BRANCH  25  26
ATOM     26  C   UNL d   1      18.969 -19.610   1.707  0.00  0.00    -0.003 C 
ATOM     27  C   UNL d   1      19.917 -20.136   2.777  0.00  0.00     0.005 C 
ENDBRANCH  25  26
ENDBRANCH  24  25
ENDBRANCH  21  24
ENDBRANCH   3  18
TORSDOF 9
ENDMDL
MODEL 9
REMARK VINA RESULT:    -6.309      4.151      8.089
REMARK INTER + INTRA:         -12.012
REMARK INTER:                  -8.994
REMARK INTRA:                  -3.018
REMARK CONF_INDEPENDENT:        2.685
REMARK UNBOUND:                -3.018
REMARK  9 active torsions:
REMARK  status: ('A' for Active; 'I' for Inactive)
REMARK    1  A    between atoms: C_3  and  C_4 
REMARK    2  A    between atoms: C_7  and  O_8 
REMARK    3  A    between atoms: O_8  and  C_9 
REMARK    4  A    between atoms: C_9  and  C_10 
REMARK       I    between atoms: C_10  and  N_12 
REMARK    5  A    between atoms: N_12  and  N_13 
REMARK       I    between atoms: N_13  and  C_14 
REMARK       I    between atoms: C_14  and  N_16 
REMARK    6  A    between atoms: N_16  and  C_17 
REMARK    7  A    between atoms: C_17  and  C_18 
REMARK    8  A    between atoms: C_18  and  C_19 
REMARK    9  A    between atoms: C_21  and  O_22 
ROOT
ATOM      1  C   UNL d   1      25.646 -15.200  -3.071  0.00  0.00     0.260 C 
ATOM      2  O   UNL d   1      24.745 -14.525  -3.574  0.00  0.00    -0.269 OA
ATOM      3  N   UNL d   1      25.357 -16.219  -2.158  0.00  0.00    -0.264 N 
ATOM      4  H   UNL d   1      26.055 -16.811  -1.708  0.00  0.00     0.190 HD
ENDROOT
BRANCH   1   5
ATOM      5  C   UNL d   1      27.152 -14.980  -3.396  0.00  0.00     0.280 C 
BRANCH   5   6
ATOM      6  O   UNL d   1      28.047 -15.586  -2.446  0.00  0.00    -0.339 OA
BRANCH   6   7
ATOM      7  C   UNL d   1      27.907 -15.301  -1.101  0.00  0.00     0.102 A 
ATOM      8  C   UNL d   1      28.085 -13.945  -0.761  0.00  0.00     0.040 A 
ATOM      9  C   UNL d   1      28.057 -13.511   0.578  0.00  0.00     0.014 A 
ATOM     10  C   UNL d   1      27.785 -14.419   1.599  0.00  0.00    -0.034 A 
ATOM     11  C   UNL d   1      27.558 -15.756   1.258  0.00  0.00     0.051 A 
ATOM     12  C   UNL d   1      27.615 -16.208  -0.071  0.00  0.00     0.102 A 
BRANCH  10  13
ATOM     13  C   UNL d   1      27.622 -13.985   2.994  0.00  0.00     0.007 C 
ATOM     14  C   UNL d   1      28.364 -14.473   4.002  0.00  0.00    -0.030 C 
ATOM     15  C   UNL d   1      28.154 -14.096   5.430  0.00  0.00     0.036 C 
ENDBRANCH  10  13
BRANCH  12  16
ATOM     16  O   UNL d   1      27.364 -17.509  -0.410  0.00  0.00    -0.353 OA
ATOM     17  C   UNL d   1      27.018 -18.412   0.626  0.00  0.00     0.210 C 
ENDBRANCH  12  16
ENDBRANCH   6   7
ENDBRANCH   5   6
ENDBRANCH   1   5
BRANCH   3  18
ATOM     18  N   UNL d   1      23.989 -16.472  -1.791  0.00  0.00    -0.249 N 
ATOM     19  C   UNL d   1      23.651 -17.641  -1.126  0.00  0.00     0.334 C 
ATOM     20  O   UNL d   1      24.492 -18.493  -0.833  0.00  0.00    -0.246 OA
ATOM     21  N   UNL d   1      22.308 -17.774  -0.824  0.00  0.00    -0.342 N 
ATOM     22  H   UNL d   1      21.660 -17.045  -1.087  0.00  0.00     0.164 HD
ATOM     23  H   UNL d   1      23.323 -15.746  -2.045  0.00  0.00     0.192 HD
BRANCH  21  24
ATOM     24  C   UNL d   1      21.791 -18.957  -0.125  0.00  0.00     0.124 C 
BRANCH  24  25
ATOM     25  C   UNL d   1      20.333 -19.306  -0.462  0.00  0.00     0.019 C 
BRANCH  25  26
ATOM     26  C   UNL d   1      19.519 -19.685   0.788  0.00  0.00    -0.003 C 
ATOM     27  C   UNL d   1      18.789 -21.010   0.605  0.00  0.00     0.005 C 
ENDBRANCH  25  26
ENDBRANCH  24  25
ENDBRANCH  21  24
ENDBRANCH   3  18
TORSDOF 9
ENDMDL
