MODEL 1
REMARK VINA RESULT:    -7.347      0.000      0.000
REMARK INTER + INTRA:         -14.791
REMARK INTER:                 -10.629
REMARK INTRA:                  -4.162
REMARK CONF_INDEPENDENT:        3.281
REMARK UNBOUND:                -4.162
REMARK  11 active torsions:
REMARK  status: ('A' for Active; 'I' for Inactive)
REMARK    1  A    between atoms: C_8  and  N_9 
REMARK       I    between atoms: N_9  and  C_10 
REMARK    2  A    between atoms: C_10  and  C_12 
REMARK    3  A    between atoms: C_12  and  C_13 
REMARK    4  A    between atoms: C_13  and  C_14 
REMARK       I    between atoms: C_14  and  N_16 
REMARK    5  A    between atoms: N_16  and  N_17 
REMARK    6  A    between atoms: N_17  and  C_18 
REMARK    7  A    between atoms: C_18  and  N_20 
REMARK       I    between atoms: N_20  and  C_21 
REMARK    8  A    between atoms: C_21  and  C_23 
REMARK    9  A    between atoms: C_23  and  O_24 
REMARK   10  A    between atoms: O_24  and  C_25 
REMARK   11  A    between atoms: C_28  and  C_29 
ROOT
ATOM      1  N   UNL d   1      30.051 -13.807  -1.073  0.00  0.00    -0.273 N 
ATOM      2  H   UNL d   1      30.479 -12.886  -1.005  0.00  0.00     0.189 HD
ENDROOT
BRANCH   1   3
ATOM      3  N   UNL d   1      29.336 -14.029  -2.313  0.00  0.00    -0.268 N 
ATOM      4  C   UNL d   1      28.835 -12.959  -3.035  0.00  0.00     0.236 C 
ATOM      5  O   UNL d   1      28.970 -11.795  -2.664  0.00  0.00    -0.272 OA
ATOM      6  H   UNL d   1      29.236 -15.006  -2.603  0.00  0.00     0.190 HD
BRANCH   4   7
ATOM      7  C   UNL d   1      28.107 -13.319  -4.312  0.00  0.00     0.114 C 
BRANCH   7   8
ATOM      8  C   UNL d   1      26.535 -13.300  -4.170  0.00  0.00     0.112 C 
BRANCH   8   9
ATOM      9  C   UNL d   1      26.145 -14.560  -3.437  0.00  0.00     0.222 C 
ATOM     10  N   UNL d   1      26.522 -14.796  -2.122  0.00  0.00    -0.327 N 
ATOM     11  H   UNL d   1      27.080 -14.079  -1.667  0.00  0.00     0.169 HD
ATOM     12  O   UNL d   1      25.477 -15.312  -4.148  0.00  0.00    -0.273 OA
BRANCH  10  13
ATOM     13  C   UNL d   1      26.214 -15.962  -1.289  0.00  0.00     0.042 A 
ATOM     14  C   UNL d   1      27.300 -16.617  -0.655  0.00  0.00     0.030 A 
ATOM     15  C   UNL d   1      27.109 -17.750   0.165  0.00  0.00     0.004 A 
ATOM     16  C   UNL d   1      25.836 -18.257   0.384  0.00  0.00     0.024 A 
ATOM     17  C   UNL d   1      24.751 -17.640  -0.214  0.00  0.00     0.042 A 
ATOM     18  C   UNL d   1      24.917 -16.512  -1.048  0.00  0.00    -0.013 A 
ATOM     19 CL   UNL d   1      23.194 -18.331   0.126  0.00  0.00    -0.084 Cl
ATOM     20  C   UNL d   1      23.669 -15.953  -1.643  0.00  0.00     0.052 C 
ENDBRANCH  10  13
ENDBRANCH   8   9
ENDBRANCH   7   8
ENDBRANCH   4   7
ENDBRANCH   1   3
BRANCH   1  21
ATOM     21  C   UNL d   1      30.103 -14.831  -0.114  0.00  0.00     0.193 C 
ATOM     22  S   UNL d   1      31.195 -16.101  -0.330  0.00  0.00    -0.039 SA
BRANCH  21  23
ATOM     23  N   UNL d   1      29.205 -14.694   0.976  0.00  0.00    -0.301 N 
ATOM     24  C   UNL d   1      28.091 -13.821   1.024  0.00  0.00     0.248 C 
ATOM     25  O   UNL d   1      27.806 -13.055   0.102  0.00  0.00    -0.271 OA
ATOM     26  H   UNL d   1      29.372 -15.271   1.788  0.00  0.00     0.171 HD
BRANCH  24  27
ATOM     27  C   UNL d   1      27.200 -13.808   2.292  0.00  0.00     0.278 C 
BRANCH  27  28
ATOM     28  O   UNL d   1      27.737 -14.808   3.186  0.00  0.00    -0.342 OA
BRANCH  28  29
ATOM     29  C   UNL d   1      28.156 -14.439   4.430  0.00  0.00     0.069 A 
ATOM     30  C   UNL d   1      27.402 -13.456   5.080  0.00  0.00     0.037 A 
ATOM     31  C   UNL d   1      27.789 -12.968   6.337  0.00  0.00     0.011 A 
ATOM     32  C   UNL d   1      28.909 -13.495   6.997  0.00  0.00    -0.050 A 
ATOM     33  C   UNL d   1      29.679 -14.441   6.300  0.00  0.00     0.011 A 
ATOM     34  C   UNL d   1      29.314 -14.901   5.032  0.00  0.00     0.037 A 
BRANCH  32  35
ATOM     35  C   UNL d   1      29.233 -13.092   8.444  0.00  0.00    -0.024 C 
ATOM     36  C   UNL d   1      28.231 -12.041   8.958  0.00  0.00     0.019 C 
ATOM     37  C   UNL d   1      29.158 -14.342   9.347  0.00  0.00     0.019 C 
ATOM     38  C   UNL d   1      30.655 -12.506   8.584  0.00  0.00     0.019 C 
ENDBRANCH  32  35
ENDBRANCH  28  29
ENDBRANCH  27  28
ENDBRANCH  24  27
ENDBRANCH  21  23
ENDBRANCH   1  21
TORSDOF 11
ENDMDL
MODEL 2
REMARK VINA RESULT:    -7.326      2.847      4.442
REMARK INTER + INTRA:         -14.937
REMARK INTER:                 -10.607
REMARK INTRA:                  -4.330
REMARK CONF_INDEPENDENT:        3.281
REMARK UNBOUND:                -4.330
REMARK  11 active torsions:
REMARK  status: ('A' for Active; 'I' for Inactive)
REMARK    1  A    between atoms: C_8  and  N_9 
REMARK       I    between atoms: N_9  and  C_10 
REMARK    2  A    between atoms: C_10  and  C_12 
REMARK    3  A    between atoms: C_12  and  C_13 
REMARK    4  A    between atoms: C_13  and  C_14 
REMARK       I    between atoms: C_14  and  N_16 
REMARK    5  A    between atoms: N_16  and  N_17 
REMARK    6  A    between atoms: N_17  and  C_18 
REMARK    7  A    between atoms: C_18  and  N_20 
REMARK       I    between atoms: N_20  and  C_21 
REMARK    8  A    between atoms: C_21  and  C_23 
REMARK    9  A    between atoms: C_23  and  O_24 
REMARK   10  A    between atoms: O_24  and  C_25 
REMARK   11  A    between atoms: C_28  and  C_29 
ROOT
ATOM      1  N   UNL d   1      27.309 -12.684  -6.175  0.00  0.00    -0.273 N 
ATOM      2  H   UNL d   1      27.163 -12.733  -7.181  0.00  0.00     0.189 HD
ENDROOT
BRANCH   1   3
ATOM      3  N   UNL d   1      28.360 -13.556  -5.693  0.00  0.00    -0.268 N 
ATOM      4  C   UNL d   1      28.124 -14.910  -5.522  0.00  0.00     0.236 C 
ATOM      5  O   UNL d   1      27.035 -15.423  -5.764  0.00  0.00    -0.272 OA
ATOM      6  H   UNL d   1      29.259 -13.108  -5.498  0.00  0.00     0.190 HD
BRANCH   4   7
ATOM      7  C   UNL d   1      29.299 -15.717  -5.013  0.00  0.00     0.114 C 
BRANCH   7   8
ATOM      8  C   UNL d   1      29.741 -15.335  -3.546  0.00  0.00     0.112 C 
BRANCH   8   9
ATOM      9  C   UNL d   1      29.027 -16.280  -2.612  0.00  0.00     0.222 C 
ATOM     10  N   UNL d   1      27.812 -15.958  -2.022  0.00  0.00    -0.327 N 
ATOM     11  H   UNL d   1      27.419 -15.048  -2.246  0.00  0.00     0.169 HD
ATOM     12  O   UNL d   1      29.656 -17.327  -2.456  0.00  0.00    -0.273 OA
BRANCH  10  13
ATOM     13  C   UNL d   1      27.008 -16.772  -1.105  0.00  0.00     0.042 A 
ATOM     14  C   UNL d   1      27.659 -17.304   0.036  0.00  0.00     0.030 A 
ATOM     15  C   UNL d   1      26.974 -18.102   0.978  0.00  0.00     0.004 A 
ATOM     16  C   UNL d   1      25.625 -18.386   0.815  0.00  0.00     0.024 A 
ATOM     17  C   UNL d   1      24.956 -17.879  -0.285  0.00  0.00     0.042 A 
ATOM     18  C   UNL d   1      25.622 -17.087  -1.247  0.00  0.00    -0.013 A 
ATOM     19 CL   UNL d   1      23.268 -18.270  -0.402  0.00  0.00    -0.084 Cl
ATOM     20  C   UNL d   1      24.790 -16.617  -2.392  0.00  0.00     0.052 C 
ENDBRANCH  10  13
ENDBRANCH   8   9
ENDBRANCH   7   8
ENDBRANCH   4   7
ENDBRANCH   1   3
BRANCH   1  21
ATOM     21  C   UNL d   1      26.614 -11.874  -5.263  0.00  0.00     0.193 C 
ATOM     22  S   UNL d   1      25.915 -10.437  -5.811  0.00  0.00    -0.039 SA
BRANCH  21  23
ATOM     23  N   UNL d   1      26.565 -12.357  -3.930  0.00  0.00    -0.301 N 
ATOM     24  C   UNL d   1      25.694 -13.364  -3.448  0.00  0.00     0.248 C 
ATOM     25  O   UNL d   1      24.852 -13.912  -4.160  0.00  0.00    -0.271 OA
ATOM     26  H   UNL d   1      27.209 -11.950  -3.266  0.00  0.00     0.171 HD
BRANCH  24  27
ATOM     27  C   UNL d   1      25.783 -13.786  -1.960  0.00  0.00     0.278 C 
BRANCH  27  28
ATOM     28  O   UNL d   1      26.945 -13.125  -1.410  0.00  0.00    -0.342 OA
BRANCH  28  29
ATOM     29  C   UNL d   1      27.248 -13.287  -0.091  0.00  0.00     0.069 A 
ATOM     30  C   UNL d   1      28.396 -14.030   0.204  0.00  0.00     0.037 A 
ATOM     31  C   UNL d   1      28.754 -14.302   1.532  0.00  0.00     0.011 A 
ATOM     32  C   UNL d   1      28.001 -13.787   2.598  0.00  0.00    -0.050 A 
ATOM     33  C   UNL d   1      26.824 -13.091   2.275  0.00  0.00     0.011 A 
ATOM     34  C   UNL d   1      26.447 -12.851   0.951  0.00  0.00     0.037 A 
BRANCH  32  35
ATOM     35  C   UNL d   1      28.488 -13.932   4.049  0.00  0.00    -0.024 C 
ATOM     36  C   UNL d   1      27.791 -15.115   4.745  0.00  0.00     0.019 C 
ATOM     37  C   UNL d   1      30.013 -14.175   4.049  0.00  0.00     0.019 C 
ATOM     38  C   UNL d   1      28.223 -12.660   4.884  0.00  0.00     0.019 C 
ENDBRANCH  32  35
ENDBRANCH  28  29
ENDBRANCH  27  28
ENDBRANCH  24  27
ENDBRANCH  21  23
ENDBRANCH   1  21
TORSDOF 11
ENDMDL
MODEL 3
REMARK VINA RESULT:    -7.093      1.900      2.151
REMARK INTER + INTRA:         -14.630
REMARK INTER:                 -10.374
REMARK INTRA:                  -4.256
REMARK CONF_INDEPENDENT:        3.281
REMARK UNBOUND:                -4.256
REMARK  11 active torsions:
REMARK  status: ('A' for Active; 'I' for Inactive)
REMARK    1  A    between atoms: C_8  and  N_9 
REMARK       I    between atoms: N_9  and  C_10 
REMARK    2  A    between atoms: C_10  and  C_12 
REMARK    3  A    between atoms: C_12  and  C_13 
REMARK    4  A    between atoms: C_13  and  C_14 
REMARK       I    between atoms: C_14  and  N_16 
REMARK    5  A    between atoms: N_16  and  N_17 
REMARK    6  A    between atoms: N_17  and  C_18 
REMARK    7  A    between atoms: C_18  and  N_20 
REMARK       I    between atoms: N_20  and  C_21 
REMARK    8  A    between atoms: C_21  and  C_23 
REMARK    9  A    between atoms: C_23  and  O_24 
REMARK   10  A    between atoms: O_24  and  C_25 
REMARK   11  A    between atoms: C_28  and  C_29 
ROOT
ATOM      1  N   UNL d   1      27.282 -10.805  -0.607  0.00  0.00    -0.273 N 
ATOM      2  H   UNL d   1      26.448 -10.267  -0.833  0.00  0.00     0.189 HD
ENDROOT
BRANCH   1   3
ATOM      3  N   UNL d   1      27.792 -11.587  -1.714  0.00  0.00    -0.268 N 
ATOM      4  C   UNL d   1      27.009 -11.810  -2.834  0.00  0.00     0.236 C 
ATOM      5  O   UNL d   1      25.869 -11.364  -2.939  0.00  0.00    -0.272 OA
ATOM      6  H   UNL d   1      28.744 -11.949  -1.606  0.00  0.00     0.190 HD
BRANCH   4   7
ATOM      7  C   UNL d   1      27.651 -12.641  -3.924  0.00  0.00     0.114 C 
BRANCH   7   8
ATOM      8  C   UNL d   1      26.624 -13.528  -4.730  0.00  0.00     0.112 C 
BRANCH   8   9
ATOM      9  C   UNL d   1      26.298 -14.721  -3.864  0.00  0.00     0.222 C 
ATOM     10  N   UNL d   1      26.834 -14.878  -2.593  0.00  0.00    -0.327 N 
ATOM     11  H   UNL d   1      27.463 -14.150  -2.265  0.00  0.00     0.169 HD
ATOM     12  O   UNL d   1      25.527 -15.496  -4.430  0.00  0.00    -0.273 OA
BRANCH  10  13
ATOM     13  C   UNL d   1      26.605 -15.972  -1.645  0.00  0.00     0.042 A 
ATOM     14  C   UNL d   1      27.745 -16.584  -1.066  0.00  0.00     0.030 A 
ATOM     15  C   UNL d   1      27.631 -17.647  -0.145  0.00  0.00     0.004 A 
ATOM     16  C   UNL d   1      26.384 -18.125   0.232  0.00  0.00     0.024 A 
ATOM     17  C   UNL d   1      25.248 -17.549  -0.309  0.00  0.00     0.042 A 
ATOM     18  C   UNL d   1      25.336 -16.491  -1.242  0.00  0.00    -0.013 A 
ATOM     19 CL   UNL d   1      23.729 -18.198   0.229  0.00  0.00    -0.084 Cl
ATOM     20  C   UNL d   1      24.038 -15.971  -1.760  0.00  0.00     0.052 C 
ENDBRANCH  10  13
ENDBRANCH   8   9
ENDBRANCH   7   8
ENDBRANCH   4   7
ENDBRANCH   1   3
BRANCH   1  21
ATOM     21  C   UNL d   1      27.949 -10.843   0.629  0.00  0.00     0.193 C 
ATOM     22  S   UNL d   1      28.868  -9.508   1.104  0.00  0.00    -0.039 SA
BRANCH  21  23
ATOM     23  N   UNL d   1      27.779 -12.036   1.379  0.00  0.00    -0.301 N 
ATOM     24  C   UNL d   1      27.980 -13.351   0.897  0.00  0.00     0.248 C 
ATOM     25  O   UNL d   1      28.306 -13.590  -0.267  0.00  0.00    -0.271 OA
ATOM     26  H   UNL d   1      27.493 -11.938   2.343  0.00  0.00     0.171 HD
BRANCH  24  27
ATOM     27  C   UNL d   1      27.764 -14.546   1.858  0.00  0.00     0.278 C 
BRANCH  27  28
ATOM     28  O   UNL d   1      27.030 -14.036   2.995  0.00  0.00    -0.342 OA
BRANCH  28  29
ATOM     29  C   UNL d   1      27.647 -13.952   4.208  0.00  0.00     0.069 A 
ATOM     30  C   UNL d   1      27.730 -12.680   4.783  0.00  0.00     0.037 A 
ATOM     31  C   UNL d   1      28.399 -12.484   6.000  0.00  0.00     0.011 A 
ATOM     32  C   UNL d   1      28.953 -13.568   6.697  0.00  0.00    -0.050 A 
ATOM     33  C   UNL d   1      28.904 -14.825   6.071  0.00  0.00     0.011 A 
ATOM     34  C   UNL d   1      28.268 -15.015   4.842  0.00  0.00     0.037 A 
BRANCH  32  35
ATOM     35  C   UNL d   1      29.529 -13.385   8.110  0.00  0.00    -0.024 C 
ATOM     36  C   UNL d   1      31.054 -13.599   8.112  0.00  0.00     0.019 C 
ATOM     37  C   UNL d   1      29.220 -11.954   8.601  0.00  0.00     0.019 C 
ATOM     38  C   UNL d   1      28.906 -14.367   9.126  0.00  0.00     0.019 C 
ENDBRANCH  32  35
ENDBRANCH  28  29
ENDBRANCH  27  28
ENDBRANCH  24  27
ENDBRANCH  21  23
ENDBRANCH   1  21
TORSDOF 11
ENDMDL
MODEL 4
REMARK VINA RESULT:    -7.031      1.966      3.015
REMARK INTER + INTRA:         -14.775
REMARK INTER:                 -10.312
REMARK INTRA:                  -4.463
REMARK CONF_INDEPENDENT:        3.281
REMARK UNBOUND:                -4.463
REMARK  11 active torsions:
REMARK  status: ('A' for Active; 'I' for Inactive)
REMARK    1  A    between atoms: C_8  and  N_9 
REMARK       I    between atoms: N_9  and  C_10 
REMARK    2  A    between atoms: C_10  and  C_12 
REMARK    3  A    between atoms: C_12  and  C_13 
REMARK    4  A    between atoms: C_13  and  C_14 
REMARK       I    between atoms: C_14  and  N_16 
REMARK    5  A    between atoms: N_16  and  N_17 
REMARK    6  A    between atoms: N_17  and  C_18 
REMARK    7  A    between atoms: C_18  and  N_20 
REMARK       I    between atoms: N_20  and  C_21 
REMARK    8  A    between atoms: C_21  and  C_23 
REMARK    9  A    between atoms: C_23  and  O_24 
REMARK   10  A    between atoms: O_24  and  C_25 
REMARK   11  A    between atoms: C_28  and  C_29 
ROOT
ATOM      1  N   UNL d   1      29.237 -16.242  -4.558  0.00  0.00    -0.273 N 
ATOM      2  H   UNL d   1      28.785 -16.880  -5.210  0.00  0.00     0.189 HD
ENDROOT
BRANCH   1   3
ATOM      3  N   UNL d   1      28.631 -14.927  -4.512  0.00  0.00    -0.268 N 
ATOM      4  C   UNL d   1      27.438 -14.681  -5.169  0.00  0.00     0.236 C 
ATOM      5  O   UNL d   1      26.849 -15.548  -5.810  0.00  0.00    -0.272 OA
ATOM      6  H   UNL d   1      29.138 -14.219  -3.972  0.00  0.00     0.190 HD
BRANCH   4   7
ATOM      7  C   UNL d   1      26.905 -13.269  -5.047  0.00  0.00     0.114 C 
BRANCH   7   8
ATOM      8  C   UNL d   1      26.347 -12.927  -3.611  0.00  0.00     0.112 C 
BRANCH   8   9
ATOM      9  C   UNL d   1      25.729 -14.191  -3.065  0.00  0.00     0.222 C 
ATOM     10  N   UNL d   1      26.260 -14.859  -1.970  0.00  0.00    -0.327 N 
ATOM     11  H   UNL d   1      27.092 -14.459  -1.546  0.00  0.00     0.169 HD
ATOM     12  O   UNL d   1      24.734 -14.525  -3.709  0.00  0.00    -0.273 OA
BRANCH  10  13
ATOM     13  C   UNL d   1      25.768 -16.084  -1.333  0.00  0.00     0.042 A 
ATOM     14  C   UNL d   1      26.733 -16.992  -0.830  0.00  0.00     0.030 A 
ATOM     15  C   UNL d   1      26.361 -18.201  -0.202  0.00  0.00     0.004 A 
ATOM     16  C   UNL d   1      25.023 -18.535  -0.050  0.00  0.00     0.024 A 
ATOM     17  C   UNL d   1      24.052 -17.670  -0.524  0.00  0.00     0.042 A 
ATOM     18  C   UNL d   1      24.399 -16.460  -1.166  0.00  0.00    -0.013 A 
ATOM     19 CL   UNL d   1      22.404 -18.160  -0.278  0.00  0.00    -0.084 Cl
ATOM     20  C   UNL d   1      23.258 -15.627  -1.645  0.00  0.00     0.052 C 
ENDBRANCH  10  13
ENDBRANCH   8   9
ENDBRANCH   7   8
ENDBRANCH   4   7
ENDBRANCH   1   3
BRANCH   1  21
ATOM     21  C   UNL d   1      30.340 -16.521  -3.736  0.00  0.00     0.193 C 
ATOM     22  S   UNL d   1      31.833 -16.852  -4.453  0.00  0.00    -0.039 SA
BRANCH  21  23
ATOM     23  N   UNL d   1      30.084 -16.496  -2.341  0.00  0.00    -0.301 N 
ATOM     24  C   UNL d   1      29.504 -15.422  -1.626  0.00  0.00     0.248 C 
ATOM     25  O   UNL d   1      29.181 -14.362  -2.165  0.00  0.00    -0.271 OA
ATOM     26  H   UNL d   1      30.336 -17.319  -1.810  0.00  0.00     0.171 HD
BRANCH  24  27
ATOM     27  C   UNL d   1      29.280 -15.567  -0.100  0.00  0.00     0.278 C 
BRANCH  27  28
ATOM     28  O   UNL d   1      28.190 -14.682   0.245  0.00  0.00    -0.342 OA
BRANCH  28  29
ATOM     29  C   UNL d   1      28.208 -14.031   1.442  0.00  0.00     0.069 A 
ATOM     30  C   UNL d   1      29.167 -14.450   2.370  0.00  0.00     0.037 A 
ATOM     31  C   UNL d   1      29.223 -13.883   3.652  0.00  0.00     0.011 A 
ATOM     32  C   UNL d   1      28.355 -12.842   4.014  0.00  0.00    -0.050 A 
ATOM     33  C   UNL d   1      27.367 -12.478   3.084  0.00  0.00     0.011 A 
ATOM     34  C   UNL d   1      27.288 -13.068   1.820  0.00  0.00     0.037 A 
BRANCH  32  35
ATOM     35  C   UNL d   1      28.529 -12.099   5.348  0.00  0.00    -0.024 C 
ATOM     36  C   UNL d   1      30.018 -11.833   5.638  0.00  0.00     0.019 C 
ATOM     37  C   UNL d   1      27.782 -10.749   5.277  0.00  0.00     0.019 C 
ATOM     38  C   UNL d   1      27.943 -12.889   6.538  0.00  0.00     0.019 C 
ENDBRANCH  32  35
ENDBRANCH  28  29
ENDBRANCH  27  28
ENDBRANCH  24  27
ENDBRANCH  21  23
ENDBRANCH   1  21
TORSDOF 11
ENDMDL
MODEL 5
REMARK VINA RESULT:    -6.774      3.006      6.959
REMARK INTER + INTRA:         -14.954
REMARK INTER:                 -10.056
REMARK INTRA:                  -4.898
REMARK CONF_INDEPENDENT:        3.281
REMARK UNBOUND:                -4.898
REMARK  11 active torsions:
REMARK  status: ('A' for Active; 'I' for Inactive)
REMARK    1  A    between atoms: C_8  and  N_9 
REMARK       I    between atoms: N_9  and  C_10 
REMARK    2  A    between atoms: C_10  and  C_12 
REMARK    3  A    between atoms: C_12  and  C_13 
REMARK    4  A    between atoms: C_13  and  C_14 
REMARK       I    between atoms: C_14  and  N_16 
REMARK    5  A    between atoms: N_16  and  N_17 
REMARK    6  A    between atoms: N_17  and  C_18 
REMARK    7  A    between atoms: C_18  and  N_20 
REMARK       I    between atoms: N_20  and  C_21 
REMARK    8  A    between atoms: C_21  and  C_23 
REMARK    9  A    between atoms: C_23  and  O_24 
REMARK   10  A    between atoms: O_24  and  C_25 
REMARK   11  A    between atoms: C_28  and  C_29 
ROOT
ATOM      1  N   UNL d   1      30.747 -14.490   3.319  0.00  0.00    -0.273 N 
ATOM      2  H   UNL d   1      31.512 -14.363   3.978  0.00  0.00     0.189 HD
ENDROOT
BRANCH   1   3
ATOM      3  N   UNL d   1      31.123 -15.203   2.115  0.00  0.00    -0.268 N 
ATOM      4  C   UNL d   1      31.394 -14.512   0.947  0.00  0.00     0.236 C 
ATOM      5  O   UNL d   1      31.328 -13.287   0.877  0.00  0.00    -0.272 OA
ATOM      6  H   UNL d   1      31.172 -16.223   2.196  0.00  0.00     0.190 HD
BRANCH   4   7
ATOM      7  C   UNL d   1      31.776 -15.367  -0.243  0.00  0.00     0.114 C 
BRANCH   7   8
ATOM      8  C   UNL d   1      31.243 -16.849  -0.152  0.00  0.00     0.112 C 
BRANCH   8   9
ATOM      9  C   UNL d   1      29.832 -16.843  -0.688  0.00  0.00     0.222 C 
ATOM     10  N   UNL d   1      28.732 -16.626   0.131  0.00  0.00    -0.327 N 
ATOM     11  H   UNL d   1      28.917 -16.472   1.118  0.00  0.00     0.169 HD
ATOM     12  O   UNL d   1      29.805 -17.053  -1.901  0.00  0.00    -0.273 OA
BRANCH  10  13
ATOM     13  C   UNL d   1      27.317 -16.587  -0.248  0.00  0.00     0.042 A 
ATOM     14  C   UNL d   1      26.856 -15.438  -0.938  0.00  0.00     0.030 A 
ATOM     15  C   UNL d   1      25.511 -15.303  -1.345  0.00  0.00     0.004 A 
ATOM     16  C   UNL d   1      24.591 -16.309  -1.084  0.00  0.00     0.024 A 
ATOM     17  C   UNL d   1      25.005 -17.448  -0.417  0.00  0.00     0.042 A 
ATOM     18  C   UNL d   1      26.344 -17.602   0.010  0.00  0.00    -0.013 A 
ATOM     19 CL   UNL d   1      23.792 -18.662  -0.147  0.00  0.00    -0.084 Cl
ATOM     20  C   UNL d   1      26.655 -18.869   0.732  0.00  0.00     0.052 C 
ENDBRANCH  10  13
ENDBRANCH   8   9
ENDBRANCH   7   8
ENDBRANCH   4   7
ENDBRANCH   1   3
BRANCH   1  21
ATOM     21  C   UNL d   1      29.420 -14.059   3.477  0.00  0.00     0.193 C 
ATOM     22  S   UNL d   1      28.550 -14.568   4.833  0.00  0.00    -0.039 SA
BRANCH  21  23
ATOM     23  N   UNL d   1      28.926 -13.211   2.453  0.00  0.00    -0.301 N 
ATOM     24  C   UNL d   1      27.567 -12.874   2.242  0.00  0.00     0.248 C 
ATOM     25  O   UNL d   1      26.655 -13.324   2.937  0.00  0.00    -0.271 OA
ATOM     26  H   UNL d   1      29.603 -12.810   1.819  0.00  0.00     0.171 HD
BRANCH  24  27
ATOM     27  C   UNL d   1      27.201 -11.918   1.079  0.00  0.00     0.278 C 
BRANCH  27  28
ATOM     28  O   UNL d   1      28.311 -11.946   0.154  0.00  0.00    -0.342 OA
BRANCH  28  29
ATOM     29  C   UNL d   1      28.155 -12.543  -1.062  0.00  0.00     0.069 A 
ATOM     30  C   UNL d   1      29.204 -13.356  -1.501  0.00  0.00     0.037 A 
ATOM     31  C   UNL d   1      29.162 -13.964  -2.765  0.00  0.00     0.011 A 
ATOM     32  C   UNL d   1      28.040 -13.816  -3.595  0.00  0.00    -0.050 A 
ATOM     33  C   UNL d   1      27.025 -12.950  -3.154  0.00  0.00     0.011 A 
ATOM     34  C   UNL d   1      27.083 -12.317  -1.910  0.00  0.00     0.037 A 
BRANCH  32  35
ATOM     35  C   UNL d   1      27.913 -14.620  -4.898  0.00  0.00    -0.024 C 
ATOM     36  C   UNL d   1      28.928 -15.777  -4.930  0.00  0.00     0.019 C 
ATOM     37  C   UNL d   1      26.486 -15.200  -4.998  0.00  0.00     0.019 C 
ATOM     38  C   UNL d   1      28.145 -13.745  -6.149  0.00  0.00     0.019 C 
ENDBRANCH  32  35
ENDBRANCH  28  29
ENDBRANCH  27  28
ENDBRANCH  24  27
ENDBRANCH  21  23
ENDBRANCH   1  21
TORSDOF 11
ENDMDL
MODEL 6
REMARK VINA RESULT:    -6.580      3.192      7.593
REMARK INTER + INTRA:         -15.254
REMARK INTER:                  -9.862
REMARK INTRA:                  -5.393
REMARK CONF_INDEPENDENT:        3.281
REMARK UNBOUND:                -5.393
REMARK  11 active torsions:
REMARK  status: ('A' for Active; 'I' for Inactive)
REMARK    1  A    between atoms: C_8  and  N_9 
REMARK       I    between atoms: N_9  and  C_10 
REMARK    2  A    between atoms: C_10  and  C_12 
REMARK    3  A    between atoms: C_12  and  C_13 
REMARK    4  A    between atoms: C_13  and  C_14 
REMARK       I    between atoms: C_14  and  N_16 
REMARK    5  A    between atoms: N_16  and  N_17 
REMARK    6  A    between atoms: N_17  and  C_18 
REMARK    7  A    between atoms: C_18  and  N_20 
REMARK       I    between atoms: N_20  and  C_21 
REMARK    8  A    between atoms: C_21  and  C_23 
REMARK    9  A    between atoms: C_23  and  O_24 
REMARK   10  A    between atoms: O_24  and  C_25 
REMARK   11  A    between atoms: C_28  and  C_29 
ROOT
ATOM      1  N   UNL d   1      31.388 -14.251   3.384  0.00  0.00    -0.273 N 
ATOM      2  H   UNL d   1      32.121 -14.022   4.052  0.00  0.00     0.189 HD
ENDROOT
BRANCH   1   3
ATOM      3  N   UNL d   1      30.158 -14.707   3.998  0.00  0.00    -0.268 N 
ATOM      4  C   UNL d   1      29.617 -14.026   5.075  0.00  0.00     0.236 C 
ATOM      5  O   UNL d   1      30.145 -13.023   5.551  0.00  0.00    -0.272 OA
ATOM      6  H   UNL d   1      29.735 -15.544   3.586  0.00  0.00     0.190 HD
BRANCH   4   7
ATOM      7  C   UNL d   1      28.331 -14.599   5.630  0.00  0.00     0.114 C 
BRANCH   7   8
ATOM      8  C   UNL d   1      27.037 -14.079   4.891  0.00  0.00     0.112 C 
BRANCH   8   9
ATOM      9  C   UNL d   1      27.398 -13.915   3.435  0.00  0.00     0.222 C 
ATOM     10  N   UNL d   1      27.295 -12.693   2.782  0.00  0.00    -0.327 N 
ATOM     11  H   UNL d   1      26.959 -11.906   3.330  0.00  0.00     0.169 HD
ATOM     12  O   UNL d   1      27.777 -14.975   2.938  0.00  0.00    -0.273 OA
BRANCH  10  13
ATOM     13  C   UNL d   1      27.612 -12.386   1.384  0.00  0.00     0.042 A 
ATOM     14  C   UNL d   1      26.750 -12.910   0.389  0.00  0.00     0.030 A 
ATOM     15  C   UNL d   1      26.970 -12.673  -0.986  0.00  0.00     0.004 A 
ATOM     16  C   UNL d   1      28.047 -11.905  -1.406  0.00  0.00     0.024 A 
ATOM     17  C   UNL d   1      28.907 -11.373  -0.462  0.00  0.00     0.042 A 
ATOM     18  C   UNL d   1      28.714 -11.605   0.919  0.00  0.00    -0.013 A 
ATOM     19 CL   UNL d   1      30.218 -10.413  -1.075  0.00  0.00    -0.084 Cl
ATOM     20  C   UNL d   1      29.722 -10.989   1.829  0.00  0.00     0.052 C 
ENDBRANCH  10  13
ENDBRANCH   8   9
ENDBRANCH   7   8
ENDBRANCH   4   7
ENDBRANCH   1   3
BRANCH   1  21
ATOM     21  C   UNL d   1      31.466 -14.156   1.985  0.00  0.00     0.193 C 
ATOM     22  S   UNL d   1      32.709 -13.247   1.293  0.00  0.00    -0.039 SA
BRANCH  21  23
ATOM     23  N   UNL d   1      30.461 -14.857   1.269  0.00  0.00    -0.301 N 
ATOM     24  C   UNL d   1      30.306 -14.869  -0.138  0.00  0.00     0.248 C 
ATOM     25  O   UNL d   1      31.038 -14.229  -0.894  0.00  0.00    -0.271 OA
ATOM     26  H   UNL d   1      29.800 -15.397   1.809  0.00  0.00     0.171 HD
BRANCH  24  27
ATOM     27  C   UNL d   1      29.159 -15.704  -0.761  0.00  0.00     0.278 C 
BRANCH  27  28
ATOM     28  O   UNL d   1      28.465 -16.339   0.336  0.00  0.00    -0.342 OA
BRANCH  28  29
ATOM     29  C   UNL d   1      27.174 -16.744   0.168  0.00  0.00     0.069 A 
ATOM     30  C   UNL d   1      26.349 -15.913  -0.596  0.00  0.00     0.037 A 
ATOM     31  C   UNL d   1      24.991 -16.214  -0.773  0.00  0.00     0.011 A 
ATOM     32  C   UNL d   1      24.441 -17.388  -0.236  0.00  0.00    -0.050 A 
ATOM     33  C   UNL d   1      25.277 -18.177   0.573  0.00  0.00     0.011 A 
ATOM     34  C   UNL d   1      26.621 -17.857   0.779  0.00  0.00     0.037 A 
BRANCH  32  35
ATOM     35  C   UNL d   1      23.003 -17.812  -0.575  0.00  0.00    -0.024 C 
ATOM     36  C   UNL d   1      22.358 -18.558   0.607  0.00  0.00     0.019 C 
ATOM     37  C   UNL d   1      22.167 -16.554  -0.893  0.00  0.00     0.019 C 
ATOM     38  C   UNL d   1      22.942 -18.732  -1.813  0.00  0.00     0.019 C 
ENDBRANCH  32  35
ENDBRANCH  28  29
ENDBRANCH  27  28
ENDBRANCH  24  27
ENDBRANCH  21  23
ENDBRANCH   1  21
TORSDOF 11
ENDMDL
MODEL 7
REMARK VINA RESULT:    -6.331      1.952      3.318
REMARK INTER + INTRA:         -15.061
REMARK INTER:                  -9.613
REMARK INTRA:                  -5.449
REMARK CONF_INDEPENDENT:        3.281
REMARK UNBOUND:                -5.449
REMARK  11 active torsions:
REMARK  status: ('A' for Active; 'I' for Inactive)
REMARK    1  A    between atoms: C_8  and  N_9 
REMARK       I    between atoms: N_9  and  C_10 
REMARK    2  A    between atoms: C_10  and  C_12 
REMARK    3  A    between atoms: C_12  and  C_13 
REMARK    4  A    between atoms: C_13  and  C_14 
REMARK       I    between atoms: C_14  and  N_16 
REMARK    5  A    between atoms: N_16  and  N_17 
REMARK    6  A    between atoms: N_17  and  C_18 
REMARK    7  A    between atoms: C_18  and  N_20 
REMARK       I    between atoms: N_20  and  C_21 
REMARK    8  A    between atoms: C_21  and  C_23 
REMARK    9  A    between atoms: C_23  and  O_24 
REMARK   10  A    between atoms: O_24  and  C_25 
REMARK   11  A    between atoms: C_28  and  C_29 
ROOT
ATOM      1  N   UNL d   1      30.676 -14.409  -3.153  0.00  0.00    -0.273 N 
ATOM      2  H   UNL d   1      31.471 -14.899  -3.557  0.00  0.00     0.189 HD
ENDROOT
BRANCH   1   3
ATOM      3  N   UNL d   1      29.716 -13.944  -4.132  0.00  0.00    -0.268 N 
ATOM      4  C   UNL d   1      28.965 -14.849  -4.863  0.00  0.00     0.236 C 
ATOM      5  O   UNL d   1      29.078 -16.064  -4.720  0.00  0.00    -0.272 OA
ATOM      6  H   UNL d   1      29.638 -12.928  -4.236  0.00  0.00     0.190 HD
BRANCH   4   7
ATOM      7  C   UNL d   1      27.996 -14.242  -5.855  0.00  0.00     0.114 C 
BRANCH   7   8
ATOM      8  C   UNL d   1      26.761 -13.532  -5.177  0.00  0.00     0.112 C 
BRANCH   8   9
ATOM      9  C   UNL d   1      26.080 -14.564  -4.312  0.00  0.00     0.222 C 
ATOM     10  N   UNL d   1      26.367 -14.699  -2.960  0.00  0.00    -0.327 N 
ATOM     11  H   UNL d   1      27.064 -14.069  -2.572  0.00  0.00     0.169 HD
ATOM     12  O   UNL d   1      25.274 -15.236  -4.955  0.00  0.00    -0.273 OA
BRANCH  10  13
ATOM     13  C   UNL d   1      25.786 -15.645  -2.004  0.00  0.00     0.042 A 
ATOM     14  C   UNL d   1      24.374 -15.664  -1.879  0.00  0.00     0.030 A 
ATOM     15  C   UNL d   1      23.718 -16.537  -0.984  0.00  0.00     0.004 A 
ATOM     16  C   UNL d   1      24.445 -17.418  -0.196  0.00  0.00     0.024 A 
ATOM     17  C   UNL d   1      25.826 -17.432  -0.295  0.00  0.00     0.042 A 
ATOM     18  C   UNL d   1      26.506 -16.560  -1.175  0.00  0.00    -0.013 A 
ATOM     19 CL   UNL d   1      26.654 -18.576   0.715  0.00  0.00    -0.084 Cl
ATOM     20  C   UNL d   1      27.994 -16.665  -1.173  0.00  0.00     0.052 C 
ENDBRANCH  10  13
ENDBRANCH   8   9
ENDBRANCH   7   8
ENDBRANCH   4   7
ENDBRANCH   1   3
BRANCH   1  21
ATOM     21  C   UNL d   1      30.442 -14.167  -1.790  0.00  0.00     0.193 C 
ATOM     22  S   UNL d   1      31.655 -14.533  -0.673  0.00  0.00    -0.039 SA
BRANCH  21  23
ATOM     23  N   UNL d   1      29.171 -13.621  -1.475  0.00  0.00    -0.301 N 
ATOM     24  C   UNL d   1      28.681 -12.365  -1.905  0.00  0.00     0.248 C 
ATOM     25  O   UNL d   1      29.349 -11.591  -2.593  0.00  0.00    -0.271 OA
ATOM     26  H   UNL d   1      28.559 -14.179  -0.896  0.00  0.00     0.171 HD
BRANCH  24  27
ATOM     27  C   UNL d   1      27.257 -11.926  -1.481  0.00  0.00     0.278 C 
BRANCH  27  28
ATOM     28  O   UNL d   1      26.708 -13.007  -0.693  0.00  0.00    -0.342 OA
BRANCH  28  29
ATOM     29  C   UNL d   1      27.065 -13.131   0.616  0.00  0.00     0.069 A 
ATOM     30  C   UNL d   1      27.454 -14.404   1.044  0.00  0.00     0.037 A 
ATOM     31  C   UNL d   1      27.779 -14.644   2.387  0.00  0.00     0.011 A 
ATOM     32  C   UNL d   1      27.778 -13.598   3.322  0.00  0.00    -0.050 A 
ATOM     33  C   UNL d   1      27.331 -12.342   2.880  0.00  0.00     0.011 A 
ATOM     34  C   UNL d   1      26.972 -12.111   1.549  0.00  0.00     0.037 A 
BRANCH  32  35
ATOM     35  C   UNL d   1      28.304 -13.817   4.750  0.00  0.00    -0.024 C 
ATOM     36  C   UNL d   1      27.887 -15.201   5.281  0.00  0.00     0.019 C 
ATOM     37  C   UNL d   1      29.845 -13.724   4.742  0.00  0.00     0.019 C 
ATOM     38  C   UNL d   1      27.782 -12.749   5.735  0.00  0.00     0.019 C 
ENDBRANCH  32  35
ENDBRANCH  28  29
ENDBRANCH  27  28
ENDBRANCH  24  27
ENDBRANCH  21  23
ENDBRANCH   1  21
TORSDOF 11
ENDMDL
MODEL 8
REMARK VINA RESULT:    -6.180      2.791      4.163
REMARK INTER + INTRA:         -14.438
REMARK INTER:                  -9.461
REMARK INTRA:                  -4.977
REMARK CONF_INDEPENDENT:        3.281
REMARK UNBOUND:                -4.977
REMARK  11 active torsions:
REMARK  status: ('A' for Active; 'I' for Inactive)
REMARK    1  A    between atoms: C_8  and  N_9 
REMARK       I    between atoms: N_9  and  C_10 
REMARK    2  A    between atoms: C_10  and  C_12 
REMARK    3  A    between atoms: C_12  and  C_13 
REMARK    4  A    between atoms: C_13  and  C_14 
REMARK       I    between atoms: C_14  and  N_16 
REMARK    5  A    between atoms: N_16  and  N_17 
REMARK    6  A    between atoms: N_17  and  C_18 
REMARK    7  A    between atoms: C_18  and  N_20 
REMARK       I    between atoms: N_20  and  C_21 
REMARK    8  A    between atoms: C_21  and  C_23 
REMARK    9  A    between atoms: C_23  and  O_24 
REMARK   10  A    between atoms: O_24  and  C_25 
REMARK   11  A    between atoms: C_28  and  C_29 
ROOT
ATOM      1  N   UNL d   1      25.891 -10.686  -4.342  0.00  0.00    -0.273 N 
ATOM      2  H   UNL d   1      24.977 -10.662  -4.789  0.00  0.00     0.189 HD
ENDROOT
BRANCH   1   3
ATOM      3  N   UNL d   1      26.859 -11.514  -5.033  0.00  0.00    -0.268 N 
ATOM      4  C   UNL d   1      26.704 -11.797  -6.380  0.00  0.00     0.236 C 
ATOM      5  O   UNL d   1      25.759 -11.369  -7.037  0.00  0.00    -0.272 OA
ATOM      6  H   UNL d   1      27.638 -11.859  -4.466  0.00  0.00     0.190 HD
BRANCH   4   7
ATOM      7  C   UNL d   1      27.779 -12.671  -6.989  0.00  0.00     0.114 C 
BRANCH   7   8
ATOM      8  C   UNL d   1      28.664 -13.423  -5.920  0.00  0.00     0.112 C 
BRANCH   8   9
ATOM      9  C   UNL d   1      27.733 -14.292  -5.110  0.00  0.00     0.222 C 
ATOM     10  N   UNL d   1      27.613 -14.163  -3.733  0.00  0.00    -0.327 N 
ATOM     11  H   UNL d   1      28.187 -13.453  -3.286  0.00  0.00     0.169 HD
ATOM     12  O   UNL d   1      27.127 -15.094  -5.821  0.00  0.00    -0.273 OA
BRANCH  10  13
ATOM     13  C   UNL d   1      26.754 -14.927  -2.825  0.00  0.00     0.042 A 
ATOM     14  C   UNL d   1      25.352 -14.801  -2.991  0.00  0.00     0.030 A 
ATOM     15  C   UNL d   1      24.439 -15.494  -2.167  0.00  0.00     0.004 A 
ATOM     16  C   UNL d   1      24.894 -16.335  -1.161  0.00  0.00     0.024 A 
ATOM     17  C   UNL d   1      26.257 -16.487  -0.973  0.00  0.00     0.042 A 
ATOM     18  C   UNL d   1      27.190 -15.796  -1.778  0.00  0.00    -0.013 A 
ATOM     19 CL   UNL d   1      26.738 -17.571   0.297  0.00  0.00    -0.084 Cl
ATOM     20  C   UNL d   1      28.627 -16.036  -1.460  0.00  0.00     0.052 C 
ENDBRANCH  10  13
ENDBRANCH   8   9
ENDBRANCH   7   8
ENDBRANCH   4   7
ENDBRANCH   1   3
BRANCH   1  21
ATOM     21  C   UNL d   1      26.274 -10.010  -3.172  0.00  0.00     0.193 C 
ATOM     22  S   UNL d   1      26.044  -8.339  -3.080  0.00  0.00    -0.039 SA
BRANCH  21  23
ATOM     23  N   UNL d   1      26.832 -10.822  -2.151  0.00  0.00    -0.301 N 
ATOM     24  C   UNL d   1      28.082 -11.483  -2.212  0.00  0.00     0.248 C 
ATOM     25  O   UNL d   1      28.813 -11.433  -3.201  0.00  0.00    -0.271 OA
ATOM     26  H   UNL d   1      26.291 -10.937  -1.305  0.00  0.00     0.171 HD
BRANCH  24  27
ATOM     27  C   UNL d   1      28.549 -12.322  -0.996  0.00  0.00     0.278 C 
BRANCH  27  28
ATOM     28  O   UNL d   1      27.439 -12.365  -0.071  0.00  0.00    -0.342 OA
BRANCH  28  29
ATOM     29  C   UNL d   1      27.673 -12.625   1.246  0.00  0.00     0.069 A 
ATOM     30  C   UNL d   1      27.990 -13.946   1.579  0.00  0.00     0.037 A 
ATOM     31  C   UNL d   1      28.188 -14.323   2.915  0.00  0.00     0.011 A 
ATOM     32  C   UNL d   1      28.129 -13.372   3.945  0.00  0.00    -0.050 A 
ATOM     33  C   UNL d   1      27.755 -12.065   3.591  0.00  0.00     0.011 A 
ATOM     34  C   UNL d   1      27.523 -11.697   2.263  0.00  0.00     0.037 A 
BRANCH  32  35
ATOM     35  C   UNL d   1      28.519 -13.745   5.384  0.00  0.00    -0.024 C 
ATOM     36  C   UNL d   1      27.779 -12.855   6.400  0.00  0.00     0.019 C 
ATOM     37  C   UNL d   1      28.148 -15.221   5.644  0.00  0.00     0.019 C 
ATOM     38  C   UNL d   1      30.035 -13.599   5.635  0.00  0.00     0.019 C 
ENDBRANCH  32  35
ENDBRANCH  28  29
ENDBRANCH  27  28
ENDBRANCH  24  27
ENDBRANCH  21  23
ENDBRANCH   1  21
TORSDOF 11
ENDMDL
MODEL 9
REMARK VINA RESULT:    -6.078      3.407      5.618
REMARK INTER + INTRA:         -14.481
REMARK INTER:                  -9.359
REMARK INTRA:                  -5.122
REMARK CONF_INDEPENDENT:        3.281
REMARK UNBOUND:                -5.122
REMARK  11 active torsions:
REMARK  status: ('A' for Active; 'I' for Inactive)
REMARK    1  A    between atoms: C_8  and  N_9 
REMARK       I    between atoms: N_9  and  C_10 
REMARK    2  A    between atoms: C_10  and  C_12 
REMARK    3  A    between atoms: C_12  and  C_13 
REMARK    4  A    between atoms: C_13  and  C_14 
REMARK       I    between atoms: C_14  and  N_16 
REMARK    5  A    between atoms: N_16  and  N_17 
REMARK    6  A    between atoms: N_17  and  C_18 
REMARK    7  A    between atoms: C_18  and  N_20 
REMARK       I    between atoms: N_20  and  C_21 
REMARK    8  A    between atoms: C_21  and  C_23 
REMARK    9  A    between atoms: C_23  and  O_24 
REMARK   10  A    between atoms: O_24  and  C_25 
REMARK   11  A    between atoms: C_28  and  C_29 
ROOT
ATOM      1  N   UNL d   1      29.614 -16.615  -4.228  0.00  0.00    -0.273 N 
ATOM      2  H   UNL d   1      29.320 -17.590  -4.231  0.00  0.00     0.189 HD
ENDROOT
BRANCH   1   3
ATOM      3  N   UNL d   1      30.415 -16.249  -3.079  0.00  0.00    -0.268 N 
ATOM      4  C   UNL d   1      31.035 -17.225  -2.317  0.00  0.00     0.236 C 
ATOM      5  O   UNL d   1      30.935 -18.422  -2.574  0.00  0.00    -0.272 OA
ATOM      6  H   UNL d   1      30.485 -15.246  -2.883  0.00  0.00     0.190 HD
BRANCH   4   7
ATOM      7  C   UNL d   1      31.844 -16.718  -1.142  0.00  0.00     0.114 C 
BRANCH   7   8
ATOM      8  C   UNL d   1      30.959 -16.212   0.063  0.00  0.00     0.112 C 
BRANCH   8   9
ATOM      9  C   UNL d   1      29.546 -16.084  -0.452  0.00  0.00     0.222 C 
ATOM     10  N   UNL d   1      28.600 -17.084  -0.268  0.00  0.00    -0.327 N 
ATOM     11  H   UNL d   1      28.901 -17.917   0.230  0.00  0.00     0.169 HD
ATOM     12  O   UNL d   1      29.369 -15.013  -1.032  0.00  0.00    -0.273 OA
BRANCH  10  13
ATOM     13  C   UNL d   1      27.201 -17.095  -0.705  0.00  0.00     0.042 A 
ATOM     14  C   UNL d   1      26.877 -16.367  -1.878  0.00  0.00     0.030 A 
ATOM     15  C   UNL d   1      25.559 -16.314  -2.380  0.00  0.00     0.004 A 
ATOM     16  C   UNL d   1      24.530 -16.987  -1.736  0.00  0.00     0.024 A 
ATOM     17  C   UNL d   1      24.810 -17.713  -0.591  0.00  0.00     0.042 A 
ATOM     18  C   UNL d   1      26.119 -17.773  -0.063  0.00  0.00    -0.013 A 
ATOM     19 CL   UNL d   1      23.467 -18.536   0.141  0.00  0.00    -0.084 Cl
ATOM     20  C   UNL d   1      26.282 -18.575   1.184  0.00  0.00     0.052 C 
ENDBRANCH  10  13
ENDBRANCH   8   9
ENDBRANCH   7   8
ENDBRANCH   4   7
ENDBRANCH   1   3
BRANCH   1  21
ATOM     21  C   UNL d   1      29.326 -15.647  -5.204  0.00  0.00     0.193 C 
ATOM     22  S   UNL d   1      30.073 -15.760  -6.715  0.00  0.00    -0.039 SA
BRANCH  21  23
ATOM     23  N   UNL d   1      28.407 -14.639  -4.813  0.00  0.00    -0.301 N 
ATOM     24  C   UNL d   1      27.010 -14.660  -5.042  0.00  0.00     0.248 C 
ATOM     25  O   UNL d   1      26.449 -15.575  -5.647  0.00  0.00    -0.271 OA
ATOM     26  H   UNL d   1      28.781 -13.837  -4.325  0.00  0.00     0.171 HD
BRANCH  24  27
ATOM     27  C   UNL d   1      26.146 -13.479  -4.532  0.00  0.00     0.278 C 
BRANCH  27  28
ATOM     28  O   UNL d   1      27.047 -12.562  -3.871  0.00  0.00    -0.342 OA
BRANCH  28  29
ATOM     29  C   UNL d   1      27.226 -12.653  -2.523  0.00  0.00     0.069 A 
ATOM     30  C   UNL d   1      28.407 -12.108  -2.009  0.00  0.00     0.037 A 
ATOM     31  C   UNL d   1      28.709 -12.208  -0.643  0.00  0.00     0.011 A 
ATOM     32  C   UNL d   1      27.807 -12.806   0.250  0.00  0.00    -0.050 A 
ATOM     33  C   UNL d   1      26.655 -13.393  -0.300  0.00  0.00     0.011 A 
ATOM     34  C   UNL d   1      26.371 -13.326  -1.667  0.00  0.00     0.037 A 
BRANCH  32  35
ATOM     35  C   UNL d   1      28.050 -12.759   1.766  0.00  0.00    -0.024 C 
ATOM     36  C   UNL d   1      27.883 -11.326   2.305  0.00  0.00     0.019 C 
ATOM     37  C   UNL d   1      27.033 -13.683   2.471  0.00  0.00     0.019 C 
ATOM     38  C   UNL d   1      29.463 -13.252   2.147  0.00  0.00     0.019 C 
ENDBRANCH  32  35
ENDBRANCH  28  29
ENDBRANCH  27  28
ENDBRANCH  24  27
ENDBRANCH  21  23
ENDBRANCH   1  21
TORSDOF 11
ENDMDL
