MODEL 1
REMARK VINA RESULT:   -10.255      0.000      0.000
REMARK INTER + INTRA:         -15.229
REMARK INTER:                 -14.133
REMARK INTRA:                  -1.095
REMARK CONF_INDEPENDENT:        3.878
REMARK UNBOUND:                -1.095
REMARK  13 active torsions:
REMARK  status: ('A' for Active; 'I' for Inactive)
REMARK    1  A    between atoms: C_2  and  O_3 
REMARK    2  A    between atoms: O_3  and  C_4 
REMARK    3  A    between atoms: C_6  and  C_7 
REMARK    4  A    between atoms: N_8  and  N_9 
REMARK    5  A    between atoms: N_9  and  C_10 
REMARK    6  A    between atoms: C_12  and  S_13 
REMARK    7  A    between atoms: S_13  and  C_14 
REMARK    8  A    between atoms: C_14  and  C_15 
REMARK       I    between atoms: C_15  and  N_17 
REMARK    9  A    between atoms: N_17  and  C_18 
REMARK   10  A    between atoms: C_21  and  N_22 
REMARK   11  A    between atoms: N_22  and  C_23 
REMARK   12  A    between atoms: N_22  and  C_25 
REMARK   13  A    between atoms: C_33  and  O_34 
ROOT
ATOM      1  C   UNL d   1      28.694 -17.214  -0.371  0.00  0.00     0.739 A 
ATOM      2  N   UNL d   1      28.745 -17.066  -1.682  0.00  0.00    -0.034 NA
ATOM      3  C   UNL d   1      29.906 -16.379  -1.883  0.00  0.00     0.226 A 
ATOM      4  N   UNL d   1      30.601 -16.107  -0.774  0.00  0.00    -0.132 NA
ATOM      5  N   UNL d   1      29.818 -16.645   0.172  0.00  0.00    -0.103 N 
ATOM      6  H   UNL d   1      30.142 -16.651   1.132  0.00  0.00     0.208 HD
ENDROOT
BRANCH   3   7
ATOM      7  S   UNL d   1      30.521 -15.863  -3.417  0.00  0.00    -0.079 SA
BRANCH   7   8
ATOM      8  C   UNL d   1      29.306 -16.429  -4.648  0.00  0.00     0.185 C 
BRANCH   8   9
ATOM      9  C   UNL d   1      28.402 -15.241  -5.011  0.00  0.00     0.231 C 
ATOM     10  O   UNL d   1      27.629 -15.236  -5.982  0.00  0.00    -0.272 OA
ATOM     11  N   UNL d   1      28.527 -14.126  -4.199  0.00  0.00    -0.327 N 
ATOM     12  H   UNL d   1      29.359 -14.034  -3.623  0.00  0.00     0.169 HD
BRANCH  11  13
ATOM     13  C   UNL d   1      27.735 -12.977  -4.388  0.00  0.00     0.034 A 
ATOM     14  C   UNL d   1      26.372 -13.129  -4.408  0.00  0.00     0.032 A 
ATOM     15  C   UNL d   1      25.564 -12.024  -4.670  0.00  0.00     0.039 A 
ATOM     16  C   UNL d   1      26.039 -10.710  -4.815  0.00  0.00     0.134 A 
ATOM     17  C   UNL d   1      27.432 -10.577  -4.802  0.00  0.00     0.039 A 
ATOM     18  C   UNL d   1      28.265 -11.700  -4.591  0.00  0.00     0.032 A 
BRANCH  16  19
ATOM     19  N   UNL d   1      25.155  -9.496  -4.524  0.00  0.00    -0.042 N 
ATOM     20  H   UNL d   1      24.282 -10.000  -4.319  0.00  0.00     0.286 HD
BRANCH  19  21
ATOM     21  C   UNL d   1      24.716  -8.542  -5.623  0.00  0.00     0.237 C 
ATOM     22  C   UNL d   1      23.375  -7.882  -5.471  0.00  0.00     0.035 C 
ENDBRANCH  19  21
BRANCH  19  23
ATOM     23  C   UNL d   1      25.461  -8.794  -3.187  0.00  0.00     0.237 C 
ATOM     24  C   UNL d   1      25.729  -7.297  -3.335  0.00  0.00     0.035 C 
ENDBRANCH  19  23
ENDBRANCH  16  19
ENDBRANCH  11  13
ENDBRANCH   8   9
ENDBRANCH   7   8
ENDBRANCH   3   7
BRANCH   1  25
ATOM     25  N   UNL d   1      27.778 -17.861   0.399  0.00  0.00    -0.106 N 
ATOM     26  H   UNL d   1      28.076 -18.556   1.081  0.00  0.00     0.208 HD
BRANCH  25  27
ATOM     27  N   UNL d   1      26.453 -17.579   0.256  0.00  0.00    -0.172 NA
ATOM     28  C   UNL d   1      25.640 -18.513  -0.129  0.00  0.00     0.150 C 
BRANCH  28  29
ATOM     29  C   UNL d   1      24.201 -18.191  -0.357  0.00  0.00    -0.014 A 
ATOM     30  C   UNL d   1      23.226 -19.193  -0.454  0.00  0.00     0.052 A 
ATOM     31  C   UNL d   1      21.883 -18.851  -0.717  0.00  0.00     0.102 A 
ATOM     32  C   UNL d   1      21.544 -17.500  -0.910  0.00  0.00     0.099 A 
ATOM     33  C   UNL d   1      22.499 -16.504  -0.755  0.00  0.00     0.040 A 
ATOM     34  C   UNL d   1      23.823 -16.849  -0.496  0.00  0.00     0.016 A 
BRANCH  31  35
ATOM     35  O   UNL d   1      21.016 -19.918  -0.723  0.00  0.00    -0.349 OA
BRANCH  35  36
ATOM     36  C   UNL d   1      19.706 -19.716  -0.178  0.00  0.00     0.171 C 
ATOM     37  C   UNL d   1      19.389 -20.703   0.947  0.00  0.00     0.034 C 
ENDBRANCH  35  36
ENDBRANCH  31  35
BRANCH  32  38
ATOM     38  O   UNL d   1      20.284 -17.107  -1.270  0.00  0.00    -0.358 OA
ATOM     39  H   UNL d   1      20.146 -17.236  -2.221  0.00  0.00     0.217 HD
ENDBRANCH  32  38
ENDBRANCH  28  29
ENDBRANCH  25  27
ENDBRANCH   1  25
TORSDOF 13
ENDMDL
MODEL 2
REMARK VINA RESULT:    -9.693      5.432      8.072
REMARK INTER + INTRA:         -14.931
REMARK INTER:                 -13.571
REMARK INTRA:                  -1.360
REMARK CONF_INDEPENDENT:        3.878
REMARK UNBOUND:                -1.360
REMARK  13 active torsions:
REMARK  status: ('A' for Active; 'I' for Inactive)
REMARK    1  A    between atoms: C_2  and  O_3 
REMARK    2  A    between atoms: O_3  and  C_4 
REMARK    3  A    between atoms: C_6  and  C_7 
REMARK    4  A    between atoms: N_8  and  N_9 
REMARK    5  A    between atoms: N_9  and  C_10 
REMARK    6  A    between atoms: C_12  and  S_13 
REMARK    7  A    between atoms: S_13  and  C_14 
REMARK    8  A    between atoms: C_14  and  C_15 
REMARK       I    between atoms: C_15  and  N_17 
REMARK    9  A    between atoms: N_17  and  C_18 
REMARK   10  A    between atoms: C_21  and  N_22 
REMARK   11  A    between atoms: N_22  and  C_23 
REMARK   12  A    between atoms: N_22  and  C_25 
REMARK   13  A    between atoms: C_33  and  O_34 
ROOT
ATOM      1  C   UNL d   1      27.889 -17.205   0.387  0.00  0.00     0.739 A 
ATOM      2  N   UNL d   1      27.296 -16.042   0.189  0.00  0.00    -0.034 NA
ATOM      3  C   UNL d   1      28.333 -15.191  -0.060  0.00  0.00     0.226 A 
ATOM      4  N   UNL d   1      29.543 -15.758  -0.053  0.00  0.00    -0.132 NA
ATOM      5  N   UNL d   1      29.240 -17.034   0.230  0.00  0.00    -0.103 N 
ATOM      6  H   UNL d   1      29.981 -17.725   0.227  0.00  0.00     0.208 HD
ENDROOT
BRANCH   3   7
ATOM      7  S   UNL d   1      28.192 -13.495  -0.379  0.00  0.00    -0.079 SA
BRANCH   7   8
ATOM      8  C   UNL d   1      26.835 -12.908   0.681  0.00  0.00     0.185 C 
BRANCH   8   9
ATOM      9  C   UNL d   1      27.374 -12.750   2.110  0.00  0.00     0.231 C 
ATOM     10  O   UNL d   1      27.464 -11.660   2.696  0.00  0.00    -0.272 OA
ATOM     11  N   UNL d   1      27.808 -13.918   2.716  0.00  0.00    -0.327 N 
ATOM     12  H   UNL d   1      28.015 -14.723   2.131  0.00  0.00     0.169 HD
BRANCH  11  13
ATOM     13  C   UNL d   1      28.292 -13.934   4.038  0.00  0.00     0.034 A 
ATOM     14  C   UNL d   1      27.595 -13.232   4.988  0.00  0.00     0.032 A 
ATOM     15  C   UNL d   1      28.091 -13.165   6.290  0.00  0.00     0.039 A 
ATOM     16  C   UNL d   1      29.221 -13.862   6.745  0.00  0.00     0.134 A 
ATOM     17  C   UNL d   1      29.925 -14.563   5.759  0.00  0.00     0.039 A 
ATOM     18  C   UNL d   1      29.461 -14.595   4.424  0.00  0.00     0.032 A 
BRANCH  16  19
ATOM     19  N   UNL d   1      29.400 -14.235   8.219  0.00  0.00    -0.042 N 
ATOM     20  H   UNL d   1      29.036 -15.196   8.169  0.00  0.00     0.286 HD
BRANCH  19  21
ATOM     21  C   UNL d   1      28.533 -13.628   9.311  0.00  0.00     0.237 C 
ATOM     22  C   UNL d   1      28.219 -14.487  10.502  0.00  0.00     0.035 C 
ENDBRANCH  19  21
BRANCH  19  23
ATOM     23  C   UNL d   1      30.864 -14.450   8.645  0.00  0.00     0.237 C 
ATOM     24  C   UNL d   1      31.316 -13.508   9.760  0.00  0.00     0.035 C 
ENDBRANCH  19  23
ENDBRANCH  16  19
ENDBRANCH  11  13
ENDBRANCH   8   9
ENDBRANCH   7   8
ENDBRANCH   3   7
BRANCH   1  25
ATOM     25  N   UNL d   1      27.349 -18.430   0.633  0.00  0.00    -0.106 N 
ATOM     26  H   UNL d   1      27.852 -19.111   1.199  0.00  0.00     0.208 HD
BRANCH  25  27
ATOM     27  N   UNL d   1      26.129 -18.747   0.117  0.00  0.00    -0.172 NA
ATOM     28  C   UNL d   1      25.111 -17.985   0.370  0.00  0.00     0.150 C 
BRANCH  28  29
ATOM     29  C   UNL d   1      23.759 -18.368  -0.133  0.00  0.00    -0.014 A 
ATOM     30  C   UNL d   1      22.677 -18.569   0.736  0.00  0.00     0.052 A 
ATOM     31  C   UNL d   1      21.427 -18.977   0.226  0.00  0.00     0.102 A 
ATOM     32  C   UNL d   1      21.290 -19.206  -1.155  0.00  0.00     0.099 A 
ATOM     33  C   UNL d   1      22.345 -18.950  -2.020  0.00  0.00     0.040 A 
ATOM     34  C   UNL d   1      23.577 -18.549  -1.510  0.00  0.00     0.016 A 
BRANCH  31  35
ATOM     35  O   UNL d   1      20.434 -19.076   1.171  0.00  0.00    -0.349 OA
BRANCH  35  36
ATOM     36  C   UNL d   1      19.523 -20.177   1.069  0.00  0.00     0.171 C 
ATOM     37  C   UNL d   1      18.436 -20.131   2.145  0.00  0.00     0.034 C 
ENDBRANCH  35  36
ENDBRANCH  31  35
BRANCH  32  38
ATOM     38  O   UNL d   1      20.138 -19.701  -1.702  0.00  0.00    -0.358 OA
ATOM     39  H   UNL d   1      20.086 -19.478  -2.645  0.00  0.00     0.217 HD
ENDBRANCH  32  38
ENDBRANCH  28  29
ENDBRANCH  25  27
ENDBRANCH   1  25
TORSDOF 13
ENDMDL
MODEL 3
REMARK VINA RESULT:    -9.042      2.865      7.137
REMARK INTER + INTRA:         -15.355
REMARK INTER:                 -12.920
REMARK INTRA:                  -2.435
REMARK CONF_INDEPENDENT:        3.878
REMARK UNBOUND:                -2.435
REMARK  13 active torsions:
REMARK  status: ('A' for Active; 'I' for Inactive)
REMARK    1  A    between atoms: C_2  and  O_3 
REMARK    2  A    between atoms: O_3  and  C_4 
REMARK    3  A    between atoms: C_6  and  C_7 
REMARK    4  A    between atoms: N_8  and  N_9 
REMARK    5  A    between atoms: N_9  and  C_10 
REMARK    6  A    between atoms: C_12  and  S_13 
REMARK    7  A    between atoms: S_13  and  C_14 
REMARK    8  A    between atoms: C_14  and  C_15 
REMARK       I    between atoms: C_15  and  N_17 
REMARK    9  A    between atoms: N_17  and  C_18 
REMARK   10  A    between atoms: C_21  and  N_22 
REMARK   11  A    between atoms: N_22  and  C_23 
REMARK   12  A    between atoms: N_22  and  C_25 
REMARK   13  A    between atoms: C_33  and  O_34 
ROOT
ATOM      1  C   UNL d   1      25.470 -13.105  -4.904  0.00  0.00     0.739 A 
ATOM      2  N   UNL d   1      26.592 -13.654  -5.331  0.00  0.00    -0.034 NA
ATOM      3  C   UNL d   1      27.313 -12.594  -5.796  0.00  0.00     0.226 A 
ATOM      4  N   UNL d   1      26.718 -11.404  -5.663  0.00  0.00    -0.132 NA
ATOM      5  N   UNL d   1      25.553 -11.749  -5.095  0.00  0.00    -0.103 N 
ATOM      6  H   UNL d   1      24.914 -11.018  -4.806  0.00  0.00     0.208 HD
ENDROOT
BRANCH   3   7
ATOM      7  S   UNL d   1      28.888 -12.680  -6.510  0.00  0.00    -0.079 SA
BRANCH   7   8
ATOM      8  C   UNL d   1      29.165 -14.440  -6.877  0.00  0.00     0.185 C 
BRANCH   8   9
ATOM      9  C   UNL d   1      29.154 -15.215  -5.551  0.00  0.00     0.231 C 
ATOM     10  O   UNL d   1      28.221 -15.949  -5.190  0.00  0.00    -0.272 OA
ATOM     11  N   UNL d   1      30.255 -15.015  -4.734  0.00  0.00    -0.327 N 
ATOM     12  H   UNL d   1      30.838 -14.199  -4.895  0.00  0.00     0.169 HD
BRANCH  11  13
ATOM     13  C   UNL d   1      30.401 -15.688  -3.506  0.00  0.00     0.034 A 
ATOM     14  C   UNL d   1      30.537 -17.052  -3.530  0.00  0.00     0.032 A 
ATOM     15  C   UNL d   1      30.605 -17.755  -2.328  0.00  0.00     0.039 A 
ATOM     16  C   UNL d   1      30.655 -17.154  -1.060  0.00  0.00     0.134 A 
ATOM     17  C   UNL d   1      30.503 -15.763  -1.055  0.00  0.00     0.039 A 
ATOM     18  C   UNL d   1      30.379 -15.044  -2.266  0.00  0.00     0.032 A 
BRANCH  16  19
ATOM     19  N   UNL d   1      31.292 -17.855   0.142  0.00  0.00    -0.042 N 
ATOM     20  H   UNL d   1      30.428 -18.200   0.581  0.00  0.00     0.286 HD
BRANCH  19  21
ATOM     21  C   UNL d   1      31.932 -17.075   1.279  0.00  0.00     0.237 C 
ATOM     22  C   UNL d   1      32.658 -17.860   2.333  0.00  0.00     0.035 C 
ENDBRANCH  19  21
BRANCH  19  23
ATOM     23  C   UNL d   1      32.037 -19.157  -0.206  0.00  0.00     0.237 C 
ATOM     24  C   UNL d   1      31.149 -20.399  -0.146  0.00  0.00     0.035 C 
ENDBRANCH  19  23
ENDBRANCH  16  19
ENDBRANCH  11  13
ENDBRANCH   8   9
ENDBRANCH   7   8
ENDBRANCH   3   7
BRANCH   1  25
ATOM     25  N   UNL d   1      24.393 -13.675  -4.298  0.00  0.00    -0.106 N 
ATOM     26  H   UNL d   1      23.452 -13.498  -4.646  0.00  0.00     0.208 HD
BRANCH  25  27
ATOM     27  N   UNL d   1      24.574 -14.487  -3.220  0.00  0.00    -0.172 NA
ATOM     28  C   UNL d   1      25.637 -15.226  -3.149  0.00  0.00     0.150 C 
BRANCH  28  29
ATOM     29  C   UNL d   1      25.805 -16.170  -2.005  0.00  0.00    -0.014 A 
ATOM     30  C   UNL d   1      24.707 -16.657  -1.281  0.00  0.00     0.052 A 
ATOM     31  C   UNL d   1      24.911 -17.510  -0.177  0.00  0.00     0.102 A 
ATOM     32  C   UNL d   1      26.224 -17.840   0.203  0.00  0.00     0.099 A 
ATOM     33  C   UNL d   1      27.307 -17.405  -0.550  0.00  0.00     0.040 A 
ATOM     34  C   UNL d   1      27.098 -16.563  -1.638  0.00  0.00     0.016 A 
BRANCH  31  35
ATOM     35  O   UNL d   1      23.754 -17.968   0.407  0.00  0.00    -0.349 OA
BRANCH  35  36
ATOM     36  C   UNL d   1      22.516 -17.693  -0.261  0.00  0.00     0.171 C 
ATOM     37  C   UNL d   1      21.842 -18.964  -0.779  0.00  0.00     0.034 C 
ENDBRANCH  35  36
ENDBRANCH  31  35
BRANCH  32  38
ATOM     38  O   UNL d   1      26.497 -18.576   1.324  0.00  0.00    -0.358 OA
ATOM     39  H   UNL d   1      25.687 -18.735   1.833  0.00  0.00     0.217 HD
ENDBRANCH  32  38
ENDBRANCH  28  29
ENDBRANCH  25  27
ENDBRANCH   1  25
TORSDOF 13
ENDMDL
MODEL 4
REMARK VINA RESULT:    -8.965      4.081      7.118
REMARK INTER + INTRA:         -15.345
REMARK INTER:                 -12.843
REMARK INTRA:                  -2.502
REMARK CONF_INDEPENDENT:        3.878
REMARK UNBOUND:                -2.502
REMARK  13 active torsions:
REMARK  status: ('A' for Active; 'I' for Inactive)
REMARK    1  A    between atoms: C_2  and  O_3 
REMARK    2  A    between atoms: O_3  and  C_4 
REMARK    3  A    between atoms: C_6  and  C_7 
REMARK    4  A    between atoms: N_8  and  N_9 
REMARK    5  A    between atoms: N_9  and  C_10 
REMARK    6  A    between atoms: C_12  and  S_13 
REMARK    7  A    between atoms: S_13  and  C_14 
REMARK    8  A    between atoms: C_14  and  C_15 
REMARK       I    between atoms: C_15  and  N_17 
REMARK    9  A    between atoms: N_17  and  C_18 
REMARK   10  A    between atoms: C_21  and  N_22 
REMARK   11  A    between atoms: N_22  and  C_23 
REMARK   12  A    between atoms: N_22  and  C_25 
REMARK   13  A    between atoms: C_33  and  O_34 
ROOT
ATOM      1  C   UNL d   1      25.727 -12.469  -4.519  0.00  0.00     0.739 A 
ATOM      2  N   UNL d   1      26.693 -12.198  -3.660  0.00  0.00    -0.034 NA
ATOM      3  C   UNL d   1      27.067 -10.928  -3.986  0.00  0.00     0.226 A 
ATOM      4  N   UNL d   1      26.375 -10.374  -4.987  0.00  0.00    -0.132 NA
ATOM      5  N   UNL d   1      25.531 -11.365  -5.309  0.00  0.00    -0.103 N 
ATOM      6  H   UNL d   1      24.819 -11.194  -6.010  0.00  0.00     0.208 HD
ENDROOT
BRANCH   3   7
ATOM      7  S   UNL d   1      28.322 -10.017  -3.216  0.00  0.00    -0.079 SA
BRANCH   7   8
ATOM      8  C   UNL d   1      27.536  -9.204  -1.791  0.00  0.00     0.185 C 
BRANCH   8   9
ATOM      9  C   UNL d   1      27.802 -10.059  -0.544  0.00  0.00     0.231 C 
ATOM     10  O   UNL d   1      28.210  -9.598   0.533  0.00  0.00    -0.272 OA
ATOM     11  N   UNL d   1      27.595 -11.420  -0.698  0.00  0.00    -0.327 N 
ATOM     12  H   UNL d   1      27.567 -11.805  -1.639  0.00  0.00     0.169 HD
BRANCH  11  13
ATOM     13  C   UNL d   1      27.762 -12.323   0.369  0.00  0.00     0.034 A 
ATOM     14  C   UNL d   1      28.898 -13.091   0.393  0.00  0.00     0.032 A 
ATOM     15  C   UNL d   1      29.056 -14.049   1.394  0.00  0.00     0.039 A 
ATOM     16  C   UNL d   1      28.172 -14.224   2.471  0.00  0.00     0.134 A 
ATOM     17  C   UNL d   1      27.014 -13.440   2.423  0.00  0.00     0.039 A 
ATOM     18  C   UNL d   1      26.817 -12.503   1.383  0.00  0.00     0.032 A 
BRANCH  16  19
ATOM     19  N   UNL d   1      28.630 -14.827   3.801  0.00  0.00    -0.042 N 
ATOM     20  H   UNL d   1      28.530 -15.819   3.550  0.00  0.00     0.286 HD
BRANCH  19  21
ATOM     21  C   UNL d   1      27.780 -14.733   5.059  0.00  0.00     0.237 C 
ATOM     22  C   UNL d   1      27.849 -13.456   5.845  0.00  0.00     0.035 C 
ENDBRANCH  19  21
BRANCH  19  23
ATOM     23  C   UNL d   1      30.141 -14.698   4.069  0.00  0.00     0.237 C 
ATOM     24  C   UNL d   1      30.624 -13.250   4.135  0.00  0.00     0.035 C 
ENDBRANCH  19  23
ENDBRANCH  16  19
ENDBRANCH  11  13
ENDBRANCH   8   9
ENDBRANCH   7   8
ENDBRANCH   3   7
BRANCH   1  25
ATOM     25  N   UNL d   1      24.950 -13.579  -4.638  0.00  0.00    -0.106 N 
ATOM     26  H   UNL d   1      24.214 -13.620  -5.340  0.00  0.00     0.208 HD
BRANCH  25  27
ATOM     27  N   UNL d   1      25.157 -14.642  -3.811  0.00  0.00    -0.172 NA
ATOM     28  C   UNL d   1      25.199 -14.455  -2.529  0.00  0.00     0.150 C 
BRANCH  28  29
ATOM     29  C   UNL d   1      25.497 -15.603  -1.624  0.00  0.00    -0.014 A 
ATOM     30  C   UNL d   1      24.586 -16.651  -1.436  0.00  0.00     0.052 A 
ATOM     31  C   UNL d   1      24.886 -17.695  -0.535  0.00  0.00     0.102 A 
ATOM     32  C   UNL d   1      26.090 -17.654   0.188  0.00  0.00     0.099 A 
ATOM     33  C   UNL d   1      27.017 -16.646  -0.043  0.00  0.00     0.040 A 
ATOM     34  C   UNL d   1      26.715 -15.618  -0.932  0.00  0.00     0.016 A 
BRANCH  31  35
ATOM     35  O   UNL d   1      23.941 -18.693  -0.490  0.00  0.00    -0.349 OA
BRANCH  35  36
ATOM     36  C   UNL d   1      22.634 -18.354  -0.010  0.00  0.00     0.171 C 
ATOM     37  C   UNL d   1      21.526 -18.927  -0.895  0.00  0.00     0.034 C 
ENDBRANCH  35  36
ENDBRANCH  31  35
BRANCH  32  38
ATOM     38  O   UNL d   1      26.396 -18.576   1.152  0.00  0.00    -0.358 OA
ATOM     39  H   UNL d   1      26.045 -18.298   2.012  0.00  0.00     0.217 HD
ENDBRANCH  32  38
ENDBRANCH  28  29
ENDBRANCH  25  27
ENDBRANCH   1  25
TORSDOF 13
ENDMDL
MODEL 5
REMARK VINA RESULT:    -8.623      2.929      6.009
REMARK INTER + INTRA:         -15.325
REMARK INTER:                 -12.501
REMARK INTRA:                  -2.824
REMARK CONF_INDEPENDENT:        3.878
REMARK UNBOUND:                -2.824
REMARK  13 active torsions:
REMARK  status: ('A' for Active; 'I' for Inactive)
REMARK    1  A    between atoms: C_2  and  O_3 
REMARK    2  A    between atoms: O_3  and  C_4 
REMARK    3  A    between atoms: C_6  and  C_7 
REMARK    4  A    between atoms: N_8  and  N_9 
REMARK    5  A    between atoms: N_9  and  C_10 
REMARK    6  A    between atoms: C_12  and  S_13 
REMARK    7  A    between atoms: S_13  and  C_14 
REMARK    8  A    between atoms: C_14  and  C_15 
REMARK       I    between atoms: C_15  and  N_17 
REMARK    9  A    between atoms: N_17  and  C_18 
REMARK   10  A    between atoms: C_21  and  N_22 
REMARK   11  A    between atoms: N_22  and  C_23 
REMARK   12  A    between atoms: N_22  and  C_25 
REMARK   13  A    between atoms: C_33  and  O_34 
ROOT
ATOM      1  C   UNL d   1      25.534 -13.111  -4.962  0.00  0.00     0.739 A 
ATOM      2  N   UNL d   1      26.610 -13.743  -5.394  0.00  0.00    -0.034 NA
ATOM      3  C   UNL d   1      27.403 -12.741  -5.871  0.00  0.00     0.226 A 
ATOM      4  N   UNL d   1      26.897 -11.510  -5.742  0.00  0.00    -0.132 NA
ATOM      5  N   UNL d   1      25.715 -11.766  -5.163  0.00  0.00    -0.103 N 
ATOM      6  H   UNL d   1      25.132 -10.988  -4.875  0.00  0.00     0.208 HD
ENDROOT
BRANCH   3   7
ATOM      7  S   UNL d   1      28.962 -12.946  -6.596  0.00  0.00    -0.079 SA
BRANCH   7   8
ATOM      8  C   UNL d   1      29.441 -14.667  -6.251  0.00  0.00     0.185 C 
BRANCH   8   9
ATOM      9  C   UNL d   1      29.058 -14.991  -4.800  0.00  0.00     0.231 C 
ATOM     10  O   UNL d   1      28.344 -15.952  -4.474  0.00  0.00    -0.272 OA
ATOM     11  N   UNL d   1      29.532 -14.104  -3.846  0.00  0.00    -0.327 N 
ATOM     12  H   UNL d   1      29.837 -13.183  -4.147  0.00  0.00     0.169 HD
BRANCH  11  13
ATOM     13  C   UNL d   1      29.293 -14.294  -2.472  0.00  0.00     0.034 A 
ATOM     14  C   UNL d   1      30.019 -15.256  -1.818  0.00  0.00     0.032 A 
ATOM     15  C   UNL d   1      29.751 -15.522  -0.475  0.00  0.00     0.039 A 
ATOM     16  C   UNL d   1      28.847 -14.791   0.313  0.00  0.00     0.134 A 
ATOM     17  C   UNL d   1      28.108 -13.822  -0.375  0.00  0.00     0.039 A 
ATOM     18  C   UNL d   1      28.332 -13.580  -1.749  0.00  0.00     0.032 A 
BRANCH  16  19
ATOM     19  N   UNL d   1      28.989 -14.704   1.834  0.00  0.00    -0.042 N 
ATOM     20  H   UNL d   1      29.276 -15.677   2.006  0.00  0.00     0.286 HD
BRANCH  19  21
ATOM     21  C   UNL d   1      27.780 -14.567   2.746  0.00  0.00     0.237 C 
ATOM     22  C   UNL d   1      27.731 -13.372   3.654  0.00  0.00     0.035 C 
ENDBRANCH  19  21
BRANCH  19  23
ATOM     23  C   UNL d   1      30.213 -13.902   2.312  0.00  0.00     0.237 C 
ATOM     24  C   UNL d   1      30.842 -14.457   3.589  0.00  0.00     0.035 C 
ENDBRANCH  19  23
ENDBRANCH  16  19
ENDBRANCH  11  13
ENDBRANCH   8   9
ENDBRANCH   7   8
ENDBRANCH   3   7
BRANCH   1  25
ATOM     25  N   UNL d   1      24.424 -13.598  -4.345  0.00  0.00    -0.106 N 
ATOM     26  H   UNL d   1      23.496 -13.373  -4.700  0.00  0.00     0.208 HD
BRANCH  25  27
ATOM     27  N   UNL d   1      24.553 -14.389  -3.244  0.00  0.00    -0.172 NA
ATOM     28  C   UNL d   1      25.440 -15.335  -3.239  0.00  0.00     0.150 C 
BRANCH  28  29
ATOM     29  C   UNL d   1      25.536 -16.250  -2.064  0.00  0.00    -0.014 A 
ATOM     30  C   UNL d   1      24.396 -16.706  -1.387  0.00  0.00     0.052 A 
ATOM     31  C   UNL d   1      24.532 -17.532  -0.251  0.00  0.00     0.102 A 
ATOM     32  C   UNL d   1      25.819 -17.865   0.206  0.00  0.00     0.099 A 
ATOM     33  C   UNL d   1      26.944 -17.462  -0.500  0.00  0.00     0.040 A 
ATOM     34  C   UNL d   1      26.803 -16.646  -1.619  0.00  0.00     0.016 A 
BRANCH  31  35
ATOM     35  O   UNL d   1      23.340 -17.962   0.282  0.00  0.00    -0.349 OA
BRANCH  35  36
ATOM     36  C   UNL d   1      22.648 -19.017  -0.397  0.00  0.00     0.171 C 
ATOM     37  C   UNL d   1      21.269 -18.579  -0.895  0.00  0.00     0.034 C 
ENDBRANCH  35  36
ENDBRANCH  31  35
BRANCH  32  38
ATOM     38  O   UNL d   1      26.024 -18.575   1.358  0.00  0.00    -0.358 OA
ATOM     39  H   UNL d   1      25.192 -18.681   1.845  0.00  0.00     0.217 HD
ENDBRANCH  32  38
ENDBRANCH  28  29
ENDBRANCH  25  27
ENDBRANCH   1  25
TORSDOF 13
ENDMDL
MODEL 6
REMARK VINA RESULT:    -8.427      3.303      6.075
REMARK INTER + INTRA:         -15.301
REMARK INTER:                 -12.305
REMARK INTRA:                  -2.996
REMARK CONF_INDEPENDENT:        3.878
REMARK UNBOUND:                -2.996
REMARK  13 active torsions:
REMARK  status: ('A' for Active; 'I' for Inactive)
REMARK    1  A    between atoms: C_2  and  O_3 
REMARK    2  A    between atoms: O_3  and  C_4 
REMARK    3  A    between atoms: C_6  and  C_7 
REMARK    4  A    between atoms: N_8  and  N_9 
REMARK    5  A    between atoms: N_9  and  C_10 
REMARK    6  A    between atoms: C_12  and  S_13 
REMARK    7  A    between atoms: S_13  and  C_14 
REMARK    8  A    between atoms: C_14  and  C_15 
REMARK       I    between atoms: C_15  and  N_17 
REMARK    9  A    between atoms: N_17  and  C_18 
REMARK   10  A    between atoms: C_21  and  N_22 
REMARK   11  A    between atoms: N_22  and  C_23 
REMARK   12  A    between atoms: N_22  and  C_25 
REMARK   13  A    between atoms: C_33  and  O_34 
ROOT
ATOM      1  C   UNL d   1      26.919 -14.086  -5.427  0.00  0.00     0.739 A 
ATOM      2  N   UNL d   1      27.565 -15.106  -5.961  0.00  0.00    -0.034 NA
ATOM      3  C   UNL d   1      28.822 -14.619  -6.169  0.00  0.00     0.226 A 
ATOM      4  N   UNL d   1      29.011 -13.356  -5.773  0.00  0.00    -0.132 NA
ATOM      5  N   UNL d   1      27.795 -13.037  -5.305  0.00  0.00    -0.103 N 
ATOM      6  H   UNL d   1      27.662 -12.135  -4.863  0.00  0.00     0.208 HD
ENDROOT
BRANCH   3   7
ATOM      7  S   UNL d   1      30.140 -15.493  -6.874  0.00  0.00    -0.079 SA
BRANCH   7   8
ATOM      8  C   UNL d   1      30.168 -17.104  -6.029  0.00  0.00     0.185 C 
BRANCH   8   9
ATOM      9  C   UNL d   1      30.380 -16.855  -4.528  0.00  0.00     0.231 C 
ATOM     10  O   UNL d   1      31.389 -17.220  -3.905  0.00  0.00    -0.272 OA
ATOM     11  N   UNL d   1      29.337 -16.218  -3.876  0.00  0.00    -0.327 N 
ATOM     12  H   UNL d   1      28.421 -16.209  -4.315  0.00  0.00     0.169 HD
BRANCH  11  13
ATOM     13  C   UNL d   1      29.406 -15.890  -2.508  0.00  0.00     0.034 A 
ATOM     14  C   UNL d   1      29.596 -16.908  -1.610  0.00  0.00     0.032 A 
ATOM     15  C   UNL d   1      29.591 -16.627  -0.244  0.00  0.00     0.039 A 
ATOM     16  C   UNL d   1      29.512 -15.334   0.298  0.00  0.00     0.134 A 
ATOM     17  C   UNL d   1      29.307 -14.310  -0.633  0.00  0.00     0.039 A 
ATOM     18  C   UNL d   1      29.256 -14.590  -2.017  0.00  0.00     0.032 A 
BRANCH  16  19
ATOM     19  N   UNL d   1      30.074 -15.004   1.683  0.00  0.00    -0.042 N 
ATOM     20  H   UNL d   1      30.024 -15.949   2.087  0.00  0.00     0.286 HD
BRANCH  19  21
ATOM     21  C   UNL d   1      29.285 -14.188   2.695  0.00  0.00     0.237 C 
ATOM     22  C   UNL d   1      30.001 -13.756   3.943  0.00  0.00     0.035 C 
ENDBRANCH  19  21
BRANCH  19  23
ATOM     23  C   UNL d   1      31.585 -14.710   1.700  0.00  0.00     0.237 C 
ATOM     24  C   UNL d   1      32.379 -15.665   2.590  0.00  0.00     0.035 C 
ENDBRANCH  19  23
ENDBRANCH  16  19
ENDBRANCH  11  13
ENDBRANCH   8   9
ENDBRANCH   7   8
ENDBRANCH   3   7
BRANCH   1  25
ATOM     25  N   UNL d   1      25.639 -14.003  -4.974  0.00  0.00    -0.106 N 
ATOM     26  H   UNL d   1      24.994 -13.323  -5.372  0.00  0.00     0.208 HD
BRANCH  25  27
ATOM     27  N   UNL d   1      25.218 -14.834  -3.980  0.00  0.00    -0.172 NA
ATOM     28  C   UNL d   1      26.039 -15.161  -3.031  0.00  0.00     0.150 C 
BRANCH  28  29
ATOM     29  C   UNL d   1      25.605 -16.127  -1.980  0.00  0.00    -0.014 A 
ATOM     30  C   UNL d   1      24.433 -16.885  -2.112  0.00  0.00     0.052 A 
ATOM     31  C   UNL d   1      24.032 -17.753  -1.074  0.00  0.00     0.102 A 
ATOM     32  C   UNL d   1      24.805 -17.824   0.099  0.00  0.00     0.099 A 
ATOM     33  C   UNL d   1      25.995 -17.117   0.203  0.00  0.00     0.040 A 
ATOM     34  C   UNL d   1      26.384 -16.262  -0.824  0.00  0.00     0.016 A 
BRANCH  31  35
ATOM     35  O   UNL d   1      22.904 -18.487  -1.353  0.00  0.00    -0.349 OA
BRANCH  35  36
ATOM     36  C   UNL d   1      21.742 -18.257  -0.546  0.00  0.00     0.171 C 
ATOM     37  C   UNL d   1      20.668 -19.325  -0.759  0.00  0.00     0.034 C 
ENDBRANCH  35  36
ENDBRANCH  31  35
BRANCH  32  38
ATOM     38  O   UNL d   1      24.420 -18.564   1.183  0.00  0.00    -0.358 OA
ATOM     39  H   UNL d   1      23.633 -19.092   0.973  0.00  0.00     0.217 HD
ENDBRANCH  32  38
ENDBRANCH  28  29
ENDBRANCH  25  27
ENDBRANCH   1  25
TORSDOF 13
ENDMDL
MODEL 7
REMARK VINA RESULT:    -7.747      3.938      6.312
REMARK INTER + INTRA:         -14.477
REMARK INTER:                 -11.625
REMARK INTRA:                  -2.852
REMARK CONF_INDEPENDENT:        3.878
REMARK UNBOUND:                -2.852
REMARK  13 active torsions:
REMARK  status: ('A' for Active; 'I' for Inactive)
REMARK    1  A    between atoms: C_2  and  O_3 
REMARK    2  A    between atoms: O_3  and  C_4 
REMARK    3  A    between atoms: C_6  and  C_7 
REMARK    4  A    between atoms: N_8  and  N_9 
REMARK    5  A    between atoms: N_9  and  C_10 
REMARK    6  A    between atoms: C_12  and  S_13 
REMARK    7  A    between atoms: S_13  and  C_14 
REMARK    8  A    between atoms: C_14  and  C_15 
REMARK       I    between atoms: C_15  and  N_17 
REMARK    9  A    between atoms: N_17  and  C_18 
REMARK   10  A    between atoms: C_21  and  N_22 
REMARK   11  A    between atoms: N_22  and  C_23 
REMARK   12  A    between atoms: N_22  and  C_25 
REMARK   13  A    between atoms: C_33  and  O_34 
ROOT
ATOM      1  C   UNL d   1      30.392 -18.325  -1.012  0.00  0.00     0.739 A 
ATOM      2  N   UNL d   1      30.672 -18.371  -2.302  0.00  0.00    -0.034 NA
ATOM      3  C   UNL d   1      31.591 -19.374  -2.396  0.00  0.00     0.226 A 
ATOM      4  N   UNL d   1      31.888 -19.978  -1.241  0.00  0.00    -0.132 NA
ATOM      5  N   UNL d   1      31.117 -19.301  -0.378  0.00  0.00    -0.103 N 
ATOM      6  H   UNL d   1      31.085 -19.601   0.589  0.00  0.00     0.208 HD
ENDROOT
BRANCH   3   7
ATOM      7  S   UNL d   1      32.363 -19.901  -3.854  0.00  0.00    -0.079 SA
BRANCH   7   8
ATOM      8  C   UNL d   1      31.017 -20.217  -5.035  0.00  0.00     0.185 C 
BRANCH   8   9
ATOM      9  C   UNL d   1      30.848 -18.970  -5.916  0.00  0.00     0.231 C 
ATOM     10  O   UNL d   1      30.864 -18.996  -7.156  0.00  0.00    -0.272 OA
ATOM     11  N   UNL d   1      30.714 -17.772  -5.234  0.00  0.00    -0.327 N 
ATOM     12  H   UNL d   1      31.009 -17.729  -4.263  0.00  0.00     0.169 HD
BRANCH  11  13
ATOM     13  C   UNL d   1      30.514 -16.552  -5.908  0.00  0.00     0.034 A 
ATOM     14  C   UNL d   1      31.596 -15.960  -6.506  0.00  0.00     0.032 A 
ATOM     15  C   UNL d   1      31.447 -14.715  -7.114  0.00  0.00     0.039 A 
ATOM     16  C   UNL d   1      30.221 -14.046  -7.261  0.00  0.00     0.134 A 
ATOM     17  C   UNL d   1      29.130 -14.659  -6.635  0.00  0.00     0.039 A 
ATOM     18  C   UNL d   1      29.280 -15.897  -5.968  0.00  0.00     0.032 A 
BRANCH  16  19
ATOM     19  N   UNL d   1      29.984 -13.031  -8.382  0.00  0.00    -0.042 N 
ATOM     20  H   UNL d   1      29.788 -13.699  -9.140  0.00  0.00     0.286 HD
BRANCH  19  21
ATOM     21  C   UNL d   1      31.119 -12.210  -8.974  0.00  0.00     0.237 C 
ATOM     22  C   UNL d   1      32.277 -12.959  -9.568  0.00  0.00     0.035 C 
ENDBRANCH  19  21
BRANCH  19  23
ATOM     23  C   UNL d   1      28.660 -12.255  -8.265  0.00  0.00     0.237 C 
ATOM     24  C   UNL d   1      28.084 -11.829  -9.615  0.00  0.00     0.035 C 
ENDBRANCH  19  23
ENDBRANCH  16  19
ENDBRANCH  11  13
ENDBRANCH   8   9
ENDBRANCH   7   8
ENDBRANCH   3   7
BRANCH   1  25
ATOM     25  N   UNL d   1      29.505 -17.543  -0.339  0.00  0.00    -0.106 N 
ATOM     26  H   UNL d   1      29.645 -17.338   0.649  0.00  0.00     0.208 HD
BRANCH  25  27
ATOM     27  N   UNL d   1      28.422 -17.033  -0.989  0.00  0.00    -0.172 NA
ATOM     28  C   UNL d   1      28.597 -16.173  -1.943  0.00  0.00     0.150 C 
BRANCH  28  29
ATOM     29  C   UNL d   1      27.411 -15.558  -2.608  0.00  0.00    -0.014 A 
ATOM     30  C   UNL d   1      27.548 -14.620  -3.642  0.00  0.00     0.052 A 
ATOM     31  C   UNL d   1      26.403 -14.026  -4.213  0.00  0.00     0.102 A 
ATOM     32  C   UNL d   1      25.133 -14.363  -3.714  0.00  0.00     0.099 A 
ATOM     33  C   UNL d   1      24.996 -15.335  -2.731  0.00  0.00     0.040 A 
ATOM     34  C   UNL d   1      26.130 -15.917  -2.172  0.00  0.00     0.016 A 
BRANCH  31  35
ATOM     35  O   UNL d   1      26.669 -13.174  -5.259  0.00  0.00    -0.349 OA
BRANCH  35  36
ATOM     36  C   UNL d   1      26.371 -11.784  -5.079  0.00  0.00     0.171 C 
ATOM     37  C   UNL d   1      26.258 -11.039  -6.410  0.00  0.00     0.034 C 
ENDBRANCH  35  36
ENDBRANCH  31  35
BRANCH  32  38
ATOM     38  O   UNL d   1      23.990 -13.749  -4.150  0.00  0.00    -0.358 OA
ATOM     39  H   UNL d   1      24.136 -13.331  -5.012  0.00  0.00     0.217 HD
ENDBRANCH  32  38
ENDBRANCH  28  29
ENDBRANCH  25  27
ENDBRANCH   1  25
TORSDOF 13
ENDMDL
MODEL 8
REMARK VINA RESULT:    -7.736      2.539      6.640
REMARK INTER + INTRA:         -14.522
REMARK INTER:                 -11.614
REMARK INTRA:                  -2.909
REMARK CONF_INDEPENDENT:        3.878
REMARK UNBOUND:                -2.909
REMARK  13 active torsions:
REMARK  status: ('A' for Active; 'I' for Inactive)
REMARK    1  A    between atoms: C_2  and  O_3 
REMARK    2  A    between atoms: O_3  and  C_4 
REMARK    3  A    between atoms: C_6  and  C_7 
REMARK    4  A    between atoms: N_8  and  N_9 
REMARK    5  A    between atoms: N_9  and  C_10 
REMARK    6  A    between atoms: C_12  and  S_13 
REMARK    7  A    between atoms: S_13  and  C_14 
REMARK    8  A    between atoms: C_14  and  C_15 
REMARK       I    between atoms: C_15  and  N_17 
REMARK    9  A    between atoms: N_17  and  C_18 
REMARK   10  A    between atoms: C_21  and  N_22 
REMARK   11  A    between atoms: N_22  and  C_23 
REMARK   12  A    between atoms: N_22  and  C_25 
REMARK   13  A    between atoms: C_33  and  O_34 
ROOT
ATOM      1  C   UNL d   1      28.415 -17.460   0.029  0.00  0.00     0.739 A 
ATOM      2  N   UNL d   1      27.406 -18.311  -0.020  0.00  0.00    -0.034 NA
ATOM      3  C   UNL d   1      26.348 -17.583   0.438  0.00  0.00     0.226 A 
ATOM      4  N   UNL d   1      26.627 -16.313   0.750  0.00  0.00    -0.132 NA
ATOM      5  N   UNL d   1      27.940 -16.255   0.482  0.00  0.00    -0.103 N 
ATOM      6  H   UNL d   1      28.417 -15.364   0.560  0.00  0.00     0.208 HD
ENDROOT
BRANCH   3   7
ATOM      7  S   UNL d   1      24.728 -18.167   0.628  0.00  0.00    -0.079 SA
BRANCH   7   8
ATOM      8  C   UNL d   1      24.020 -18.202  -1.047  0.00  0.00     0.185 C 
BRANCH   8   9
ATOM      9  C   UNL d   1      24.120 -16.788  -1.640  0.00  0.00     0.231 C 
ATOM     10  O   UNL d   1      23.199 -15.957  -1.597  0.00  0.00    -0.272 OA
ATOM     11  N   UNL d   1      25.312 -16.493  -2.281  0.00  0.00    -0.327 N 
ATOM     12  H   UNL d   1      25.910 -17.260  -2.573  0.00  0.00     0.169 HD
BRANCH  11  13
ATOM     13  C   UNL d   1      25.560 -15.225  -2.840  0.00  0.00     0.034 A 
ATOM     14  C   UNL d   1      25.538 -15.105  -4.206  0.00  0.00     0.032 A 
ATOM     15  C   UNL d   1      25.856 -13.881  -4.791  0.00  0.00     0.039 A 
ATOM     16  C   UNL d   1      26.101 -12.699  -4.075  0.00  0.00     0.134 A 
ATOM     17  C   UNL d   1      26.132 -12.843  -2.683  0.00  0.00     0.039 A 
ATOM     18  C   UNL d   1      25.863 -14.092  -2.079  0.00  0.00     0.032 A 
BRANCH  16  19
ATOM     19  N   UNL d   1      25.873 -11.317  -4.693  0.00  0.00    -0.042 N 
ATOM     20  H   UNL d   1      24.852 -11.277  -4.579  0.00  0.00     0.286 HD
BRANCH  19  21
ATOM     21  C   UNL d   1      26.033 -11.070  -6.185  0.00  0.00     0.237 C 
ATOM     22  C   UNL d   1      26.806  -9.853  -6.604  0.00  0.00     0.035 C 
ENDBRANCH  19  21
BRANCH  19  23
ATOM     23  C   UNL d   1      26.357 -10.144  -3.820  0.00  0.00     0.237 C 
ATOM     24  C   UNL d   1      25.310  -9.044  -3.648  0.00  0.00     0.035 C 
ENDBRANCH  19  23
ENDBRANCH  16  19
ENDBRANCH  11  13
ENDBRANCH   8   9
ENDBRANCH   7   8
ENDBRANCH   3   7
BRANCH   1  25
ATOM     25  N   UNL d   1      29.712 -17.620  -0.349  0.00  0.00    -0.106 N 
ATOM     26  H   UNL d   1      30.391 -18.020   0.296  0.00  0.00     0.208 HD
BRANCH  25  27
ATOM     27  N   UNL d   1      30.105 -17.239  -1.596  0.00  0.00    -0.172 NA
ATOM     28  C   UNL d   1      29.279 -16.590  -2.356  0.00  0.00     0.150 C 
BRANCH  28  29
ATOM     29  C   UNL d   1      29.680 -16.235  -3.749  0.00  0.00    -0.014 A 
ATOM     30  C   UNL d   1      28.774 -15.673  -4.658  0.00  0.00     0.052 A 
ATOM     31  C   UNL d   1      29.179 -15.396  -5.981  0.00  0.00     0.102 A 
ATOM     32  C   UNL d   1      30.489 -15.715  -6.379  0.00  0.00     0.099 A 
ATOM     33  C   UNL d   1      31.403 -16.217  -5.461  0.00  0.00     0.040 A 
ATOM     34  C   UNL d   1      30.996 -16.489  -4.158  0.00  0.00     0.016 A 
BRANCH  31  35
ATOM     35  O   UNL d   1      28.218 -14.788  -6.753  0.00  0.00    -0.349 OA
BRANCH  35  36
ATOM     36  C   UNL d   1      28.488 -13.466  -7.237  0.00  0.00     0.171 C 
ATOM     37  C   UNL d   1      29.189 -12.599  -6.190  0.00  0.00     0.034 C 
ENDBRANCH  35  36
ENDBRANCH  31  35
BRANCH  32  38
ATOM     38  O   UNL d   1      30.917 -15.569  -7.671  0.00  0.00    -0.358 OA
ATOM     39  H   UNL d   1      30.297 -15.018  -8.174  0.00  0.00     0.217 HD
ENDBRANCH  32  38
ENDBRANCH  28  29
ENDBRANCH  25  27
ENDBRANCH   1  25
TORSDOF 13
ENDMDL
