MODEL 1
REMARK VINA RESULT:   -27.924      0.000      0.000
REMARK INTER + INTRA:         -30.464
REMARK INTER:                 -29.713
REMARK INTRA:                  -0.751
REMARK CONF_INDEPENDENT:        1.790
REMARK UNBOUND:                -0.751
REMARK  6 active torsions:
REMARK  status: ('A' for Active; 'I' for Inactive)
REMARK    1  A    between atoms: O_2  and  C_3 
REMARK    2  A    between atoms: C_6  and  C_7 
REMARK       I    between atoms: C_7  and  N_9 
REMARK    3  A    between atoms: N_9  and  C_10 
REMARK    4  A    between atoms: C_13  and  S_14 
REMARK    5  A    between atoms: S_14  and  N_17 
REMARK    6  A    between atoms: N_17  and  C_18 
ROOT
ATOM      1  C   UNL d   1      26.247 -15.377  -2.845  0.00  0.00     0.035 A 
ATOM      2  C   UNL d   1      26.453 -16.506  -2.047  0.00  0.00     0.031 A 
ATOM      3  C   UNL d   1      25.398 -17.041  -1.278  0.00  0.00     0.027 A 
ATOM      4  C   UNL d   1      24.127 -16.436  -1.289  0.00  0.00     0.080 A 
ATOM      5  C   UNL d   1      23.911 -15.335  -2.115  0.00  0.00     0.027 A 
ATOM      6  C   UNL d   1      24.969 -14.807  -2.877  0.00  0.00     0.031 A 
ENDROOT
BRANCH   4   7
ATOM      7  S   UNL d   1      22.883 -17.048  -0.132  0.00  0.00     0.276 S 
ATOM      8  O   UNL d   1      23.611 -17.850   0.827  0.00  0.00    -0.200 OA
ATOM      9  O   UNL d   1      22.160 -15.858   0.275  0.00  0.00    -0.200 OA
BRANCH   7  10
ATOM     10  N   UNL d   1      21.854 -18.044  -0.986  0.00  0.00    -0.109 N 
ATOM     11  H   UNL d   1      21.943 -18.257  -1.963  0.00  0.00     0.198 HD
BRANCH  10  12
ATOM     12  C   UNL d   1      20.994 -18.872  -0.255  0.00  0.00     0.736 A 
ATOM     13  N   UNL d   1      21.234 -18.993   1.046  0.00  0.00    -0.067 NA
ATOM     14  C   UNL d   1      20.347 -19.698   1.769  0.00  0.00     0.051 A 
ATOM     15  C   UNL d   1      20.642 -19.840   3.230  0.00  0.00     0.071 C 
ATOM     16  C   UNL d   1      19.228 -20.275   1.207  0.00  0.00     0.054 A 
ATOM     17  C   UNL d   1      19.036 -20.059  -0.148  0.00  0.00     0.051 A 
ATOM     18  C   UNL d   1      17.832 -20.656  -0.830  0.00  0.00     0.071 C 
ATOM     19  N   UNL d   1      19.904 -19.324  -0.897  0.00  0.00    -0.067 NA
ENDBRANCH  10  12
ENDBRANCH   7  10
ENDBRANCH   4   7
BRANCH   1  20
ATOM     20  N   UNL d   1      27.310 -14.869  -3.641  0.00  0.00    -0.323 N 
ATOM     21  C   UNL d   1      27.383 -15.020  -5.022  0.00  0.00     0.256 C 
ATOM     22  O   UNL d   1      26.493 -15.555  -5.694  0.00  0.00    -0.267 OA
ATOM     23  H   UNL d   1      27.958 -14.252  -3.174  0.00  0.00     0.169 HD
BRANCH  21  24
ATOM     24  C   UNL d   1      28.592 -14.494  -5.753  0.00  0.00     0.032 A 
ATOM     25  C   UNL d   1      28.376 -13.663  -6.867  0.00  0.00     0.020 A 
ATOM     26  C   UNL d   1      29.437 -13.256  -7.687  0.00  0.00     0.038 A 
ATOM     27  C   UNL d   1      30.746 -13.615  -7.375  0.00  0.00     0.068 A 
ATOM     28  C   UNL d   1      30.984 -14.382  -6.236  0.00  0.00     0.038 A 
ATOM     29  C   UNL d   1      29.915 -14.825  -5.431  0.00  0.00     0.020 A 
BRANCH  27  30
ATOM     30  O   UNL d   1      31.717 -13.073  -8.169  0.00  0.00    -0.356 OA
ATOM     31  C   UNL d   1      32.307 -13.955  -9.119  0.00  0.00     0.210 C 
ENDBRANCH  27  30
ENDBRANCH  21  24
ENDBRANCH   1  20
TORSDOF 6
ENDMDL
MODEL 2
REMARK VINA RESULT:   -27.129      4.389      5.435
REMARK INTER + INTRA:         -29.746
REMARK INTER:                 -28.919
REMARK INTRA:                  -0.827
REMARK CONF_INDEPENDENT:        1.790
REMARK UNBOUND:                -0.827
REMARK  6 active torsions:
REMARK  status: ('A' for Active; 'I' for Inactive)
REMARK    1  A    between atoms: O_2  and  C_3 
REMARK    2  A    between atoms: C_6  and  C_7 
REMARK       I    between atoms: C_7  and  N_9 
REMARK    3  A    between atoms: N_9  and  C_10 
REMARK    4  A    between atoms: C_13  and  S_14 
REMARK    5  A    between atoms: S_14  and  N_17 
REMARK    6  A    between atoms: N_17  and  C_18 
ROOT
ATOM      1  C   UNL d   1      26.203 -15.307  -0.650  0.00  0.00     0.035 A 
ATOM      2  C   UNL d   1      26.169 -16.405   0.214  0.00  0.00     0.031 A 
ATOM      3  C   UNL d   1      25.288 -17.480  -0.030  0.00  0.00     0.027 A 
ATOM      4  C   UNL d   1      24.418 -17.455  -1.136  0.00  0.00     0.080 A 
ATOM      5  C   UNL d   1      24.480 -16.379  -2.019  0.00  0.00     0.027 A 
ATOM      6  C   UNL d   1      25.360 -15.311  -1.768  0.00  0.00     0.031 A 
ENDROOT
BRANCH   4   7
ATOM      7  S   UNL d   1      23.180 -18.763  -1.276  0.00  0.00     0.276 S 
ATOM      8  O   UNL d   1      23.263 -19.225  -2.645  0.00  0.00    -0.200 OA
ATOM      9  O   UNL d   1      23.471 -19.648  -0.164  0.00  0.00    -0.200 OA
BRANCH   7  10
ATOM     10  N   UNL d   1      21.686 -18.064  -1.040  0.00  0.00    -0.109 N 
ATOM     11  H   UNL d   1      21.321 -17.298  -1.576  0.00  0.00     0.198 HD
BRANCH  10  12
ATOM     12  C   UNL d   1      20.758 -18.762  -0.259  0.00  0.00     0.736 A 
ATOM     13  N   UNL d   1      19.736 -19.325  -0.895  0.00  0.00    -0.067 NA
ATOM     14  C   UNL d   1      18.903 -20.086  -0.164  0.00  0.00     0.051 A 
ATOM     15  C   UNL d   1      17.748 -20.698  -0.892  0.00  0.00     0.071 C 
ATOM     16  C   UNL d   1      19.086 -20.291   1.188  0.00  0.00     0.054 A 
ATOM     17  C   UNL d   1      20.202 -19.701   1.757  0.00  0.00     0.051 A 
ATOM     18  C   UNL d   1      20.468 -19.886   3.229  0.00  0.00     0.071 C 
ATOM     19  N   UNL d   1      21.076 -18.950   1.033  0.00  0.00    -0.067 NA
ENDBRANCH  10  12
ENDBRANCH   7  10
ENDBRANCH   4   7
BRANCH   1  20
ATOM     20  N   UNL d   1      27.120 -14.247  -0.412  0.00  0.00    -0.323 N 
ATOM     21  C   UNL d   1      26.935 -13.267   0.559  0.00  0.00     0.256 C 
ATOM     22  O   UNL d   1      25.984 -13.268   1.350  0.00  0.00    -0.267 OA
ATOM     23  H   UNL d   1      28.007 -14.313  -0.888  0.00  0.00     0.169 HD
BRANCH  21  24
ATOM     24  C   UNL d   1      27.945 -12.155   0.677  0.00  0.00     0.032 A 
ATOM     25  C   UNL d   1      27.551 -10.978   1.340  0.00  0.00     0.020 A 
ATOM     26  C   UNL d   1      28.375  -9.845   1.362  0.00  0.00     0.038 A 
ATOM     27  C   UNL d   1      29.639  -9.883   0.779  0.00  0.00     0.068 A 
ATOM     28  C   UNL d   1      30.072 -11.063   0.176  0.00  0.00     0.038 A 
ATOM     29  C   UNL d   1      29.229 -12.192   0.120  0.00  0.00     0.020 A 
BRANCH  27  30
ATOM     30  O   UNL d   1      30.409  -8.767   0.954  0.00  0.00    -0.356 OA
ATOM     31  C   UNL d   1      31.679  -8.976   1.564  0.00  0.00     0.210 C 
ENDBRANCH  27  30
ENDBRANCH  21  24
ENDBRANCH   1  20
TORSDOF 6
ENDMDL
MODEL 3
REMARK VINA RESULT:   -26.859      2.434      3.243
REMARK INTER + INTRA:         -29.400
REMARK INTER:                 -28.649
REMARK INTRA:                  -0.751
REMARK CONF_INDEPENDENT:        1.790
REMARK UNBOUND:                -0.751
REMARK  6 active torsions:
REMARK  status: ('A' for Active; 'I' for Inactive)
REMARK    1  A    between atoms: O_2  and  C_3 
REMARK    2  A    between atoms: C_6  and  C_7 
REMARK       I    between atoms: C_7  and  N_9 
REMARK    3  A    between atoms: N_9  and  C_10 
REMARK    4  A    between atoms: C_13  and  S_14 
REMARK    5  A    between atoms: S_14  and  N_17 
REMARK    6  A    between atoms: N_17  and  C_18 
ROOT
ATOM      1  C   UNL d   1      25.845 -14.907  -2.225  0.00  0.00     0.035 A 
ATOM      2  C   UNL d   1      24.458 -14.861  -2.391  0.00  0.00     0.031 A 
ATOM      3  C   UNL d   1      23.655 -15.954  -2.006  0.00  0.00     0.027 A 
ATOM      4  C   UNL d   1      24.239 -17.115  -1.465  0.00  0.00     0.080 A 
ATOM      5  C   UNL d   1      25.617 -17.146  -1.262  0.00  0.00     0.027 A 
ATOM      6  C   UNL d   1      26.410 -16.052  -1.651  0.00  0.00     0.031 A 
ENDROOT
BRANCH   4   7
ATOM      7  S   UNL d   1      23.178 -18.550  -1.182  0.00  0.00     0.276 S 
ATOM      8  O   UNL d   1      23.279 -19.346  -2.387  0.00  0.00    -0.200 OA
ATOM      9  O   UNL d   1      23.615 -19.067   0.100  0.00  0.00    -0.200 OA
BRANCH   7  10
ATOM     10  N   UNL d   1      21.613 -17.994  -1.041  0.00  0.00    -0.109 N 
ATOM     11  H   UNL d   1      21.199 -17.294  -1.630  0.00  0.00     0.198 HD
BRANCH  10  12
ATOM     12  C   UNL d   1      20.724 -18.743  -0.263  0.00  0.00     0.736 A 
ATOM     13  N   UNL d   1      19.710 -19.325  -0.896  0.00  0.00    -0.067 NA
ATOM     14  C   UNL d   1      18.918 -20.133  -0.171  0.00  0.00     0.051 A 
ATOM     15  C   UNL d   1      17.771 -20.765  -0.895  0.00  0.00     0.071 C 
ATOM     16  C   UNL d   1      19.132 -20.367   1.172  0.00  0.00     0.054 A 
ATOM     17  C   UNL d   1      20.239 -19.754   1.736  0.00  0.00     0.051 A 
ATOM     18  C   UNL d   1      20.538 -19.968   3.198  0.00  0.00     0.071 C 
ATOM     19  N   UNL d   1      21.073 -18.955   1.017  0.00  0.00    -0.067 NA
ENDBRANCH  10  12
ENDBRANCH   7  10
ENDBRANCH   4   7
BRANCH   1  20
ATOM     20  N   UNL d   1      26.639 -13.784  -2.585  0.00  0.00    -0.323 N 
ATOM     21  C   UNL d   1      26.508 -13.098  -3.788  0.00  0.00     0.256 C 
ATOM     22  O   UNL d   1      25.640 -13.362  -4.628  0.00  0.00    -0.267 OA
ATOM     23  H   UNL d   1      27.223 -13.402  -1.856  0.00  0.00     0.169 HD
BRANCH  21  24
ATOM     24  C   UNL d   1      27.451 -11.960  -4.088  0.00  0.00     0.032 A 
ATOM     25  C   UNL d   1      28.039 -11.915  -5.365  0.00  0.00     0.020 A 
ATOM     26  C   UNL d   1      29.037 -10.980  -5.673  0.00  0.00     0.038 A 
ATOM     27  C   UNL d   1      29.422 -10.027  -4.733  0.00  0.00     0.068 A 
ATOM     28  C   UNL d   1      28.801 -10.015  -3.486  0.00  0.00     0.038 A 
ATOM     29  C   UNL d   1      27.824 -10.979  -3.161  0.00  0.00     0.020 A 
BRANCH  27  30
ATOM     30  O   UNL d   1      30.318  -9.090  -5.169  0.00  0.00    -0.356 OA
ATOM     31  C   UNL d   1      30.520  -9.030  -6.577  0.00  0.00     0.210 C 
ENDBRANCH  27  30
ENDBRANCH  21  24
ENDBRANCH   1  20
TORSDOF 6
ENDMDL
MODEL 4
REMARK VINA RESULT:   -26.679      4.323      5.240
REMARK INTER + INTRA:         -29.277
REMARK INTER:                 -28.468
REMARK INTRA:                  -0.809
REMARK CONF_INDEPENDENT:        1.790
REMARK UNBOUND:                -0.809
REMARK  6 active torsions:
REMARK  status: ('A' for Active; 'I' for Inactive)
REMARK    1  A    between atoms: O_2  and  C_3 
REMARK    2  A    between atoms: C_6  and  C_7 
REMARK       I    between atoms: C_7  and  N_9 
REMARK    3  A    between atoms: N_9  and  C_10 
REMARK    4  A    between atoms: C_13  and  S_14 
REMARK    5  A    between atoms: S_14  and  N_17 
REMARK    6  A    between atoms: N_17  and  C_18 
ROOT
ATOM      1  C   UNL d   1      26.166 -15.105  -0.792  0.00  0.00     0.035 A 
ATOM      2  C   UNL d   1      26.203 -16.193   0.085  0.00  0.00     0.031 A 
ATOM      3  C   UNL d   1      25.362 -17.306  -0.122  0.00  0.00     0.027 A 
ATOM      4  C   UNL d   1      24.461 -17.331  -1.203  0.00  0.00     0.080 A 
ATOM      5  C   UNL d   1      24.453 -16.265  -2.099  0.00  0.00     0.027 A 
ATOM      6  C   UNL d   1      25.293 -15.158  -1.884  0.00  0.00     0.031 A 
ENDROOT
BRANCH   4   7
ATOM      7  S   UNL d   1      23.277 -18.692  -1.293  0.00  0.00     0.276 S 
ATOM      8  O   UNL d   1      23.276 -19.109  -2.679  0.00  0.00    -0.200 OA
ATOM      9  O   UNL d   1      23.691 -19.595  -0.236  0.00  0.00    -0.200 OA
BRANCH   7  10
ATOM     10  N   UNL d   1      21.775 -18.073  -0.923  0.00  0.00    -0.109 N 
ATOM     11  H   UNL d   1      21.377 -17.249  -1.337  0.00  0.00     0.198 HD
BRANCH  10  12
ATOM     12  C   UNL d   1      20.886 -18.896  -0.223  0.00  0.00     0.736 A 
ATOM     13  N   UNL d   1      21.092 -19.035   1.082  0.00  0.00    -0.067 NA
ATOM     14  C   UNL d   1      20.178 -19.736   1.776  0.00  0.00     0.051 A 
ATOM     15  C   UNL d   1      20.436 -19.899   3.241  0.00  0.00     0.071 C 
ATOM     16  C   UNL d   1      19.064 -20.290   1.180  0.00  0.00     0.054 A 
ATOM     17  C   UNL d   1      18.908 -20.055  -0.176  0.00  0.00     0.051 A 
ATOM     18  C   UNL d   1      17.713 -20.626  -0.894  0.00  0.00     0.071 C 
ATOM     19  N   UNL d   1      19.804 -19.325  -0.895  0.00  0.00    -0.067 NA
ENDBRANCH  10  12
ENDBRANCH   7  10
ENDBRANCH   4   7
BRANCH   1  20
ATOM     20  N   UNL d   1      27.044 -14.004  -0.591  0.00  0.00    -0.323 N 
ATOM     21  C   UNL d   1      26.848 -13.025   0.378  0.00  0.00     0.256 C 
ATOM     22  O   UNL d   1      25.924 -13.060   1.200  0.00  0.00    -0.267 OA
ATOM     23  H   UNL d   1      27.917 -14.035  -1.096  0.00  0.00     0.169 HD
BRANCH  21  24
ATOM     24  C   UNL d   1      27.812 -11.869   0.455  0.00  0.00     0.032 A 
ATOM     25  C   UNL d   1      27.876 -11.146   1.661  0.00  0.00     0.020 A 
ATOM     26  C   UNL d   1      28.632  -9.971   1.765  0.00  0.00     0.038 A 
ATOM     27  C   UNL d   1      29.395  -9.528   0.687  0.00  0.00     0.068 A 
ATOM     28  C   UNL d   1      29.396 -10.269  -0.493  0.00  0.00     0.038 A 
ATOM     29  C   UNL d   1      28.606 -11.430  -0.612  0.00  0.00     0.020 A 
BRANCH  27  30
ATOM     30  O   UNL d   1      30.186  -8.438   0.927  0.00  0.00    -0.356 OA
ATOM     31  C   UNL d   1      31.383  -8.687   1.657  0.00  0.00     0.210 C 
ENDBRANCH  27  30
ENDBRANCH  21  24
ENDBRANCH   1  20
TORSDOF 6
ENDMDL
MODEL 5
REMARK VINA RESULT:   -25.623      3.946      5.036
REMARK INTER + INTRA:         -27.990
REMARK INTER:                 -27.412
REMARK INTRA:                  -0.578
REMARK CONF_INDEPENDENT:        1.790
REMARK UNBOUND:                -0.578
REMARK  6 active torsions:
REMARK  status: ('A' for Active; 'I' for Inactive)
REMARK    1  A    between atoms: O_2  and  C_3 
REMARK    2  A    between atoms: C_6  and  C_7 
REMARK       I    between atoms: C_7  and  N_9 
REMARK    3  A    between atoms: N_9  and  C_10 
REMARK    4  A    between atoms: C_13  and  S_14 
REMARK    5  A    between atoms: S_14  and  N_17 
REMARK    6  A    between atoms: N_17  and  C_18 
ROOT
ATOM      1  C   UNL d   1      27.055 -17.572  -0.498  0.00  0.00     0.035 A 
ATOM      2  C   UNL d   1      26.185 -18.136   0.440  0.00  0.00     0.031 A 
ATOM      3  C   UNL d   1      24.792 -17.942   0.330  0.00  0.00     0.027 A 
ATOM      4  C   UNL d   1      24.258 -17.163  -0.714  0.00  0.00     0.080 A 
ATOM      5  C   UNL d   1      25.122 -16.634  -1.671  0.00  0.00     0.027 A 
ATOM      6  C   UNL d   1      26.509 -16.831  -1.552  0.00  0.00     0.031 A 
ENDROOT
BRANCH   4   7
ATOM      7  S   UNL d   1      22.491 -16.789  -0.680  0.00  0.00     0.276 S 
ATOM      8  O   UNL d   1      22.157 -16.637   0.720  0.00  0.00    -0.200 OA
ATOM      9  O   UNL d   1      22.343 -15.688  -1.613  0.00  0.00    -0.200 OA
BRANCH   7  10
ATOM     10  N   UNL d   1      21.688 -18.121  -1.278  0.00  0.00    -0.109 N 
ATOM     11  H   UNL d   1      21.946 -18.621  -2.109  0.00  0.00     0.198 HD
BRANCH  10  12
ATOM     12  C   UNL d   1      20.785 -18.771  -0.429  0.00  0.00     0.736 A 
ATOM     13  N   UNL d   1      19.717 -19.324  -0.994  0.00  0.00    -0.067 NA
ATOM     14  C   UNL d   1      18.906 -20.043  -0.198  0.00  0.00     0.051 A 
ATOM     15  C   UNL d   1      17.697 -20.643  -0.847  0.00  0.00     0.071 C 
ATOM     16  C   UNL d   1      19.155 -20.216   1.148  0.00  0.00     0.054 A 
ATOM     17  C   UNL d   1      20.315 -19.641   1.640  0.00  0.00     0.051 A 
ATOM     18  C   UNL d   1      20.655 -19.792   3.100  0.00  0.00     0.071 C 
ATOM     19  N   UNL d   1      21.168 -18.933   0.849  0.00  0.00    -0.067 NA
ENDBRANCH  10  12
ENDBRANCH   7  10
ENDBRANCH   4   7
BRANCH   1  20
ATOM     20  N   UNL d   1      28.453 -17.804  -0.395  0.00  0.00    -0.323 N 
ATOM     21  C   UNL d   1      29.403 -17.185  -1.202  0.00  0.00     0.256 C 
ATOM     22  O   UNL d   1      29.119 -16.323  -2.043  0.00  0.00    -0.267 OA
ATOM     23  H   UNL d   1      28.756 -18.341   0.405  0.00  0.00     0.169 HD
BRANCH  21  24
ATOM     24  C   UNL d   1      30.854 -17.559  -1.043  0.00  0.00     0.032 A 
ATOM     25  C   UNL d   1      31.157 -18.897  -0.728  0.00  0.00     0.020 A 
ATOM     26  C   UNL d   1      32.465 -19.292  -0.417  0.00  0.00     0.038 A 
ATOM     27  C   UNL d   1      33.511 -18.375  -0.478  0.00  0.00     0.068 A 
ATOM     28  C   UNL d   1      33.239 -17.061  -0.855  0.00  0.00     0.038 A 
ATOM     29  C   UNL d   1      31.918 -16.652  -1.131  0.00  0.00     0.020 A 
BRANCH  27  30
ATOM     30  O   UNL d   1      34.762 -18.885  -0.270  0.00  0.00    -0.356 OA
ATOM     31  C   UNL d   1      35.795 -18.354  -1.093  0.00  0.00     0.210 C 
ENDBRANCH  27  30
ENDBRANCH  21  24
ENDBRANCH   1  20
TORSDOF 6
ENDMDL
