MODEL 1
REMARK VINA RESULT:   -30.871      0.000      0.000
REMARK INTER + INTRA:         -34.605
REMARK INTER:                 -32.959
REMARK INTRA:                  -1.645
REMARK CONF_INDEPENDENT:        2.088
REMARK UNBOUND:                -1.645
REMARK  7 active torsions:
REMARK  status: ('A' for Active; 'I' for Inactive)
REMARK    1  A    between atoms: C_2  and  C_3 
REMARK       I    between atoms: C_2  and  N_15 
REMARK    2  A    between atoms: C_3  and  O_4 
REMARK    3  A    between atoms: O_4  and  C_5 
REMARK    4  A    between atoms: C_9  and  C_10 
REMARK    5  A    between atoms: N_15  and  N_16 
REMARK       I    between atoms: N_16  and  C_17 
REMARK    6  A    between atoms: C_17  and  C_19 
REMARK    7  A    between atoms: C_19  and  C_20 
ROOT
ATOM      1  O   UNL d   1      29.228 -16.050   0.483  0.00  0.00    -0.269 OA
ATOM      2  C   UNL d   1      28.053 -15.754   0.216  0.00  0.00     0.260 C 
ATOM      3  N   UNL d   1      27.045 -16.748   0.321  0.00  0.00    -0.266 N 
ATOM      4  H   UNL d   1      27.402 -17.667   0.594  0.00  0.00     0.190 HD
ENDROOT
BRANCH   3   5
ATOM      5  N   UNL d   1      25.553 -16.680  -0.064  0.00  0.00    -0.267 N 
ATOM      6  C   UNL d   1      24.712 -17.896  -0.335  0.00  0.00     0.237 C 
ATOM      7  O   UNL d   1      25.222 -19.005  -0.160  0.00  0.00    -0.272 OA
ATOM      8  H   UNL d   1      25.169 -15.747   0.007  0.00  0.00     0.190 HD
BRANCH   6   9
ATOM      9  C   UNL d   1      23.032 -17.623  -0.877  0.00  0.00     0.121 C 
BRANCH   9  10
ATOM     10  C   UNL d   1      21.450 -18.380  -0.326  0.00  0.00     0.028 C 
ATOM     11  C   UNL d   1      21.223 -19.324  -1.273  0.00  0.00     0.094 C 
ATOM     12  N   UNL d   1      19.905 -19.003  -1.270  0.00  0.00    -0.285 NA
ATOM     13  C   UNL d   1      19.500 -19.642  -0.136  0.00  0.00     0.015 A 
ATOM     14  H   UNL d   1      19.492 -18.097  -1.439  0.00  0.00     0.128 HD
ATOM     15  C   UNL d   1      18.285 -20.443  -0.205  0.00  0.00     0.024 A 
ATOM     16  C   UNL d   1      20.619 -19.334   0.912  0.00  0.00    -0.025 A 
ATOM     17  C   UNL d   1      17.800 -21.247   0.777  0.00  0.00     0.002 A 
ATOM     18  C   UNL d   1      18.601 -21.199   1.867  0.00  0.00     0.001 A 
ATOM     19  C   UNL d   1      19.813 -20.281   1.866  0.00  0.00     0.010 A 
ENDBRANCH   9  10
ENDBRANCH   6   9
ENDBRANCH   3   5
BRANCH   2  20
ATOM     20  C   UNL d   1      27.705 -14.301  -0.193  0.00  0.00     0.280 C 
BRANCH  20  21
ATOM     21  O   UNL d   1      26.355 -14.132  -0.679  0.00  0.00    -0.342 OA
BRANCH  21  22
ATOM     22  C   UNL d   1      26.170 -14.049  -2.039  0.00  0.00     0.070 A 
ATOM     23  C   UNL d   1      25.872 -15.236  -2.725  0.00  0.00     0.037 A 
ATOM     24  C   UNL d   1      25.785 -15.262  -4.125  0.00  0.00     0.004 A 
ATOM     25  C   UNL d   1      25.942 -14.086  -4.853  0.00  0.00     0.016 A 
ATOM     26  C   UNL d   1      26.257 -12.894  -4.188  0.00  0.00     0.050 A 
ATOM     27  C   UNL d   1      26.372 -12.888  -2.783  0.00  0.00     0.052 A 
BRANCH  26  28
ATOM     28  C   UNL d   1      26.523 -11.639  -4.979  0.00  0.00     0.417 C 
ATOM     29  F   UNL d   1      25.542 -10.710  -4.826  0.00  0.00    -0.166 F 
ATOM     30  F   UNL d   1      27.685 -11.029  -4.619  0.00  0.00    -0.166 F 
ATOM     31  F   UNL d   1      26.620 -11.863  -6.321  0.00  0.00    -0.166 F 
ENDBRANCH  26  28
ENDBRANCH  21  22
ENDBRANCH  20  21
ENDBRANCH   2  20
TORSDOF 7
ENDMDL
MODEL 2
REMARK VINA RESULT:   -30.770      4.232      5.546
REMARK INTER + INTRA:         -33.726
REMARK INTER:                 -32.859
REMARK INTRA:                  -0.867
REMARK CONF_INDEPENDENT:        2.088
REMARK UNBOUND:                -0.867
REMARK  7 active torsions:
REMARK  status: ('A' for Active; 'I' for Inactive)
REMARK    1  A    between atoms: C_2  and  C_3 
REMARK       I    between atoms: C_2  and  N_15 
REMARK    2  A    between atoms: C_3  and  O_4 
REMARK    3  A    between atoms: O_4  and  C_5 
REMARK    4  A    between atoms: C_9  and  C_10 
REMARK    5  A    between atoms: N_15  and  N_16 
REMARK       I    between atoms: N_16  and  C_17 
REMARK    6  A    between atoms: C_17  and  C_19 
REMARK    7  A    between atoms: C_19  and  C_20 
ROOT
ATOM      1  O   UNL d   1      29.044 -15.441  -0.131  0.00  0.00    -0.269 OA
ATOM      2  C   UNL d   1      27.828 -15.272  -0.306  0.00  0.00     0.260 C 
ATOM      3  N   UNL d   1      26.986 -16.403  -0.475  0.00  0.00    -0.266 N 
ATOM      4  H   UNL d   1      27.489 -17.294  -0.464  0.00  0.00     0.190 HD
ENDROOT
BRANCH   3   5
ATOM      5  N   UNL d   1      25.486 -16.467  -0.825  0.00  0.00    -0.267 N 
ATOM      6  C   UNL d   1      24.623 -17.668  -0.551  0.00  0.00     0.237 C 
ATOM      7  O   UNL d   1      25.125 -18.616   0.058  0.00  0.00    -0.272 OA
ATOM      8  H   UNL d   1      25.115 -15.581  -1.140  0.00  0.00     0.190 HD
BRANCH   6   9
ATOM      9  C   UNL d   1      22.933 -17.608  -1.125  0.00  0.00     0.121 C 
BRANCH   9  10
ATOM     10  C   UNL d   1      21.404 -18.373  -0.450  0.00  0.00     0.028 C 
ATOM     11  C   UNL d   1      21.113 -19.325  -1.371  0.00  0.00     0.094 C 
ATOM     12  N   UNL d   1      19.796 -19.014  -1.270  0.00  0.00    -0.285 NA
ATOM     13  C   UNL d   1      19.484 -19.649  -0.105  0.00  0.00     0.015 A 
ATOM     14  H   UNL d   1      19.364 -18.113  -1.413  0.00  0.00     0.128 HD
ATOM     15  C   UNL d   1      18.274 -20.459  -0.076  0.00  0.00     0.024 A 
ATOM     16  C   UNL d   1      20.677 -19.325   0.853  0.00  0.00    -0.025 A 
ATOM     17  C   UNL d   1      17.872 -21.260   0.945  0.00  0.00     0.002 A 
ATOM     18  C   UNL d   1      18.753 -21.199   1.970  0.00  0.00     0.001 A 
ATOM     19  C   UNL d   1      19.954 -20.272   1.871  0.00  0.00     0.010 A 
ENDBRANCH   9  10
ENDBRANCH   6   9
ENDBRANCH   3   5
BRANCH   2  20
ATOM     20  C   UNL d   1      27.247 -13.835  -0.301  0.00  0.00     0.280 C 
BRANCH  20  21
ATOM     21  O   UNL d   1      26.323 -13.577   0.778  0.00  0.00    -0.342 OA
BRANCH  21  22
ATOM     22  C   UNL d   1      26.842 -13.147   1.977  0.00  0.00     0.070 A 
ATOM     23  C   UNL d   1      27.022 -11.766   2.145  0.00  0.00     0.037 A 
ATOM     24  C   UNL d   1      27.654 -11.251   3.287  0.00  0.00     0.004 A 
ATOM     25  C   UNL d   1      28.065 -12.111   4.301  0.00  0.00     0.016 A 
ATOM     26  C   UNL d   1      27.909 -13.494   4.145  0.00  0.00     0.050 A 
ATOM     27  C   UNL d   1      27.301 -14.000   2.978  0.00  0.00     0.052 A 
BRANCH  26  28
ATOM     28  C   UNL d   1      28.440 -14.435   5.196  0.00  0.00     0.417 C 
ATOM     29  F   UNL d   1      29.771 -14.678   5.052  0.00  0.00    -0.166 F 
ATOM     30  F   UNL d   1      28.275 -13.956   6.459  0.00  0.00    -0.166 F 
ATOM     31  F   UNL d   1      27.833 -15.656   5.177  0.00  0.00    -0.166 F 
ENDBRANCH  26  28
ENDBRANCH  21  22
ENDBRANCH  20  21
ENDBRANCH   2  20
TORSDOF 7
ENDMDL
MODEL 3
REMARK VINA RESULT:   -30.713      1.727      2.024
REMARK INTER + INTRA:         -34.528
REMARK INTER:                 -32.801
REMARK INTRA:                  -1.727
REMARK CONF_INDEPENDENT:        2.088
REMARK UNBOUND:                -1.727
REMARK  7 active torsions:
REMARK  status: ('A' for Active; 'I' for Inactive)
REMARK    1  A    between atoms: C_2  and  C_3 
REMARK       I    between atoms: C_2  and  N_15 
REMARK    2  A    between atoms: C_3  and  O_4 
REMARK    3  A    between atoms: O_4  and  C_5 
REMARK    4  A    between atoms: C_9  and  C_10 
REMARK    5  A    between atoms: N_15  and  N_16 
REMARK       I    between atoms: N_16  and  C_17 
REMARK    6  A    between atoms: C_17  and  C_19 
REMARK    7  A    between atoms: C_19  and  C_20 
ROOT
ATOM      1  O   UNL d   1      29.254 -15.845   0.424  0.00  0.00    -0.269 OA
ATOM      2  C   UNL d   1      28.056 -15.571   0.254  0.00  0.00     0.260 C 
ATOM      3  N   UNL d   1      27.113 -16.624   0.127  0.00  0.00    -0.266 N 
ATOM      4  H   UNL d   1      27.532 -17.557   0.161  0.00  0.00     0.190 HD
ENDROOT
BRANCH   3   5
ATOM      5  N   UNL d   1      25.609 -16.561  -0.209  0.00  0.00    -0.267 N 
ATOM      6  C   UNL d   1      24.753 -17.782  -0.405  0.00  0.00     0.237 C 
ATOM      7  O   UNL d   1      25.265 -18.887  -0.208  0.00  0.00    -0.272 OA
ATOM      8  H   UNL d   1      25.231 -15.625  -0.159  0.00  0.00     0.190 HD
BRANCH   6   9
ATOM      9  C   UNL d   1      23.057 -17.520  -0.898  0.00  0.00     0.121 C 
BRANCH   9  10
ATOM     10  C   UNL d   1      21.498 -18.295  -0.309  0.00  0.00     0.028 C 
ATOM     11  C   UNL d   1      21.219 -19.191  -1.289  0.00  0.00     0.094 C 
ATOM     12  N   UNL d   1      19.905 -18.863  -1.207  0.00  0.00    -0.285 NA
ATOM     13  C   UNL d   1      19.550 -19.555  -0.088  0.00  0.00     0.015 A 
ATOM     14  H   UNL d   1      19.490 -17.949  -1.312  0.00  0.00     0.128 HD
ATOM     15  C   UNL d   1      18.327 -20.346  -0.137  0.00  0.00     0.024 A 
ATOM     16  C   UNL d   1      20.719 -19.304   0.919  0.00  0.00    -0.025 A 
ATOM     17  C   UNL d   1      17.883 -21.194   0.827  0.00  0.00     0.002 A 
ATOM     18  C   UNL d   1      18.735 -21.203   1.879  0.00  0.00     0.001 A 
ATOM     19  C   UNL d   1      19.953 -20.292   1.864  0.00  0.00     0.010 A 
ENDBRANCH   9  10
ENDBRANCH   6   9
ENDBRANCH   3   5
BRANCH   2  20
ATOM     20  C   UNL d   1      27.609 -14.088   0.219  0.00  0.00     0.280 C 
BRANCH  20  21
ATOM     21  O   UNL d   1      26.405 -13.852  -0.543  0.00  0.00    -0.342 OA
BRANCH  21  22
ATOM     22  C   UNL d   1      26.444 -14.102  -1.895  0.00  0.00     0.070 A 
ATOM     23  C   UNL d   1      25.227 -14.077  -2.592  0.00  0.00     0.037 A 
ATOM     24  C   UNL d   1      25.160 -14.436  -3.947  0.00  0.00     0.004 A 
ATOM     25  C   UNL d   1      26.323 -14.772  -4.635  0.00  0.00     0.016 A 
ATOM     26  C   UNL d   1      27.545 -14.819  -3.953  0.00  0.00     0.050 A 
ATOM     27  C   UNL d   1      27.593 -14.486  -2.583  0.00  0.00     0.052 A 
BRANCH  26  28
ATOM     28  C   UNL d   1      28.790 -15.275  -4.669  0.00  0.00     0.417 C 
ATOM     29  F   UNL d   1      29.902 -14.612  -4.253  0.00  0.00    -0.166 F 
ATOM     30  F   UNL d   1      29.045 -16.599  -4.486  0.00  0.00    -0.166 F 
ATOM     31  F   UNL d   1      28.728 -15.091  -6.019  0.00  0.00    -0.166 F 
ENDBRANCH  26  28
ENDBRANCH  21  22
ENDBRANCH  20  21
ENDBRANCH   2  20
TORSDOF 7
ENDMDL
MODEL 4
REMARK VINA RESULT:   -30.207      3.185      3.594
REMARK INTER + INTRA:         -32.917
REMARK INTER:                 -32.295
REMARK INTRA:                  -0.622
REMARK CONF_INDEPENDENT:        2.088
REMARK UNBOUND:                -0.622
REMARK  7 active torsions:
REMARK  status: ('A' for Active; 'I' for Inactive)
REMARK    1  A    between atoms: C_2  and  C_3 
REMARK       I    between atoms: C_2  and  N_15 
REMARK    2  A    between atoms: C_3  and  O_4 
REMARK    3  A    between atoms: O_4  and  C_5 
REMARK    4  A    between atoms: C_9  and  C_10 
REMARK    5  A    between atoms: N_15  and  N_16 
REMARK       I    between atoms: N_16  and  C_17 
REMARK    6  A    between atoms: C_17  and  C_19 
REMARK    7  A    between atoms: C_19  and  C_20 
ROOT
ATOM      1  O   UNL d   1      29.009 -15.831  -0.001  0.00  0.00    -0.269 OA
ATOM      2  C   UNL d   1      27.957 -15.968  -0.644  0.00  0.00     0.260 C 
ATOM      3  N   UNL d   1      26.714 -15.939   0.041  0.00  0.00    -0.266 N 
ATOM      4  H   UNL d   1      26.806 -15.830   1.054  0.00  0.00     0.190 HD
ENDROOT
BRANCH   3   5
ATOM      5  N   UNL d   1      25.292 -16.203  -0.493  0.00  0.00    -0.267 N 
ATOM      6  C   UNL d   1      24.494 -17.430  -0.150  0.00  0.00     0.237 C 
ATOM      7  O   UNL d   1      24.972 -18.224   0.664  0.00  0.00    -0.272 OA
ATOM      8  H   UNL d   1      24.903 -15.413  -0.992  0.00  0.00     0.190 HD
BRANCH   6   9
ATOM      9  C   UNL d   1      22.908 -17.624  -0.948  0.00  0.00     0.121 C 
BRANCH   9  10
ATOM     10  C   UNL d   1      21.350 -18.401  -0.359  0.00  0.00     0.028 C 
ATOM     11  C   UNL d   1      21.153 -19.398  -1.257  0.00  0.00     0.094 C 
ATOM     12  N   UNL d   1      19.826 -19.118  -1.270  0.00  0.00    -0.285 NA
ATOM     13  C   UNL d   1      19.440 -19.712  -0.106  0.00  0.00     0.015 A 
ATOM     14  H   UNL d   1      19.385 -18.236  -1.485  0.00  0.00     0.128 HD
ATOM     15  C   UNL d   1      18.250 -20.553  -0.134  0.00  0.00     0.024 A 
ATOM     16  C   UNL d   1      20.547 -19.317   0.925  0.00  0.00    -0.025 A 
ATOM     17  C   UNL d   1      17.789 -21.321   0.887  0.00  0.00     0.002 A 
ATOM     18  C   UNL d   1      18.587 -21.193   1.973  0.00  0.00     0.001 A 
ATOM     19  C   UNL d   1      19.770 -20.239   1.926  0.00  0.00     0.010 A 
ENDBRANCH   9  10
ENDBRANCH   6   9
ENDBRANCH   3   5
BRANCH   2  20
ATOM     20  C   UNL d   1      28.020 -16.133  -2.184  0.00  0.00     0.280 C 
BRANCH  20  21
ATOM     21  O   UNL d   1      28.036 -14.884  -2.910  0.00  0.00    -0.342 OA
BRANCH  21  22
ATOM     22  C   UNL d   1      28.597 -14.880  -4.166  0.00  0.00     0.070 A 
ATOM     23  C   UNL d   1      28.129 -13.926  -5.080  0.00  0.00     0.037 A 
ATOM     24  C   UNL d   1      28.561 -13.927  -6.415  0.00  0.00     0.004 A 
ATOM     25  C   UNL d   1      29.509 -14.854  -6.837  0.00  0.00     0.016 A 
ATOM     26  C   UNL d   1      29.977 -15.826  -5.944  0.00  0.00     0.050 A 
ATOM     27  C   UNL d   1      29.511 -15.832  -4.613  0.00  0.00     0.052 A 
BRANCH  26  28
ATOM     28  C   UNL d   1      30.930 -16.891  -6.421  0.00  0.00     0.417 C 
ATOM     29  F   UNL d   1      32.201 -16.687  -5.980  0.00  0.00    -0.166 F 
ATOM     30  F   UNL d   1      30.578 -18.137  -6.003  0.00  0.00    -0.166 F 
ATOM     31  F   UNL d   1      31.014 -16.963  -7.781  0.00  0.00    -0.166 F 
ENDBRANCH  26  28
ENDBRANCH  21  22
ENDBRANCH  20  21
ENDBRANCH   2  20
TORSDOF 7
ENDMDL
MODEL 5
REMARK VINA RESULT:   -29.624      3.627      5.117
REMARK INTER + INTRA:         -32.491
REMARK INTER:                 -31.712
REMARK INTRA:                  -0.779
REMARK CONF_INDEPENDENT:        2.088
REMARK UNBOUND:                -0.779
REMARK  7 active torsions:
REMARK  status: ('A' for Active; 'I' for Inactive)
REMARK    1  A    between atoms: C_2  and  C_3 
REMARK       I    between atoms: C_2  and  N_15 
REMARK    2  A    between atoms: C_3  and  O_4 
REMARK    3  A    between atoms: O_4  and  C_5 
REMARK    4  A    between atoms: C_9  and  C_10 
REMARK    5  A    between atoms: N_15  and  N_16 
REMARK       I    between atoms: N_16  and  C_17 
REMARK    6  A    between atoms: C_17  and  C_19 
REMARK    7  A    between atoms: C_19  and  C_20 
ROOT
ATOM      1  O   UNL d   1      29.127 -15.651   0.155  0.00  0.00    -0.269 OA
ATOM      2  C   UNL d   1      27.939 -15.449  -0.140  0.00  0.00     0.260 C 
ATOM      3  N   UNL d   1      27.029 -16.539  -0.147  0.00  0.00    -0.266 N 
ATOM      4  H   UNL d   1      27.464 -17.438   0.076  0.00  0.00     0.190 HD
ENDROOT
BRANCH   3   5
ATOM      5  N   UNL d   1      25.553 -16.583  -0.589  0.00  0.00    -0.267 N 
ATOM      6  C   UNL d   1      24.612 -17.698  -0.223  0.00  0.00     0.237 C 
ATOM      7  O   UNL d   1      25.024 -18.578   0.537  0.00  0.00    -0.272 OA
ATOM      8  H   UNL d   1      25.249 -15.731  -1.040  0.00  0.00     0.190 HD
BRANCH   6   9
ATOM      9  C   UNL d   1      22.967 -17.640  -0.915  0.00  0.00     0.121 C 
BRANCH   9  10
ATOM     10  C   UNL d   1      21.393 -18.400  -0.345  0.00  0.00     0.028 C 
ATOM     11  C   UNL d   1      21.139 -19.321  -1.307  0.00  0.00     0.094 C 
ATOM     12  N   UNL d   1      19.823 -18.993  -1.268  0.00  0.00    -0.285 NA
ATOM     13  C   UNL d   1      19.440 -19.654  -0.140  0.00  0.00     0.015 A 
ATOM     14  H   UNL d   1      19.412 -18.081  -1.408  0.00  0.00     0.128 HD
ATOM     15  C   UNL d   1      18.218 -20.446  -0.199  0.00  0.00     0.024 A 
ATOM     16  C   UNL d   1      20.583 -19.376   0.890  0.00  0.00    -0.025 A 
ATOM     17  C   UNL d   1      17.750 -21.269   0.776  0.00  0.00     0.002 A 
ATOM     18  C   UNL d   1      18.575 -21.249   1.848  0.00  0.00     0.001 A 
ATOM     19  C   UNL d   1      19.793 -20.339   1.840  0.00  0.00     0.010 A 
ENDBRANCH   9  10
ENDBRANCH   6   9
ENDBRANCH   3   5
BRANCH   2  20
ATOM     20  C   UNL d   1      27.465 -14.009  -0.460  0.00  0.00     0.280 C 
BRANCH  20  21
ATOM     21  O   UNL d   1      27.553 -13.098   0.659  0.00  0.00    -0.342 OA
BRANCH  21  22
ATOM     22  C   UNL d   1      28.433 -13.408   1.670  0.00  0.00     0.070 A 
ATOM     23  C   UNL d   1      27.939 -14.155   2.749  0.00  0.00     0.037 A 
ATOM     24  C   UNL d   1      28.735 -14.414   3.876  0.00  0.00     0.004 A 
ATOM     25  C   UNL d   1      30.054 -13.972   3.911  0.00  0.00     0.016 A 
ATOM     26  C   UNL d   1      30.560 -13.210   2.850  0.00  0.00     0.050 A 
ATOM     27  C   UNL d   1      29.740 -12.931   1.738  0.00  0.00     0.052 A 
BRANCH  26  28
ATOM     28  C   UNL d   1      31.956 -12.648   2.927  0.00  0.00     0.417 C 
ATOM     29  F   UNL d   1      32.010 -11.482   3.626  0.00  0.00    -0.166 F 
ATOM     30  F   UNL d   1      32.830 -13.496   3.535  0.00  0.00    -0.166 F 
ATOM     31  F   UNL d   1      32.491 -12.374   1.703  0.00  0.00    -0.166 F 
ENDBRANCH  26  28
ENDBRANCH  21  22
ENDBRANCH  20  21
ENDBRANCH   2  20
TORSDOF 7
ENDMDL
MODEL 6
REMARK VINA RESULT:   -29.537      3.212      4.459
REMARK INTER + INTRA:         -32.766
REMARK INTER:                 -31.626
REMARK INTRA:                  -1.140
REMARK CONF_INDEPENDENT:        2.088
REMARK UNBOUND:                -1.140
REMARK  7 active torsions:
REMARK  status: ('A' for Active; 'I' for Inactive)
REMARK    1  A    between atoms: C_2  and  C_3 
REMARK       I    between atoms: C_2  and  N_15 
REMARK    2  A    between atoms: C_3  and  O_4 
REMARK    3  A    between atoms: O_4  and  C_5 
REMARK    4  A    between atoms: C_9  and  C_10 
REMARK    5  A    between atoms: N_15  and  N_16 
REMARK       I    between atoms: N_16  and  C_17 
REMARK    6  A    between atoms: C_17  and  C_19 
REMARK    7  A    between atoms: C_19  and  C_20 
ROOT
ATOM      1  O   UNL d   1      27.882 -15.334  -3.519  0.00  0.00    -0.269 OA
ATOM      2  C   UNL d   1      27.294 -15.516  -2.442  0.00  0.00     0.260 C 
ATOM      3  N   UNL d   1      26.174 -16.389  -2.401  0.00  0.00    -0.266 N 
ATOM      4  H   UNL d   1      25.928 -16.783  -3.313  0.00  0.00     0.190 HD
ENDROOT
BRANCH   3   5
ATOM      5  N   UNL d   1      25.206 -16.691  -1.240  0.00  0.00    -0.267 N 
ATOM      6  C   UNL d   1      24.065 -17.664  -1.345  0.00  0.00     0.237 C 
ATOM      7  O   UNL d   1      23.951 -18.313  -2.388  0.00  0.00    -0.272 OA
ATOM      8  H   UNL d   1      25.490 -16.265  -0.367  0.00  0.00     0.190 HD
BRANCH   6   9
ATOM      9  C   UNL d   1      22.979 -17.806   0.065  0.00  0.00     0.121 C 
BRANCH   9  10
ATOM     10  C   UNL d   1      21.317 -18.575   0.234  0.00  0.00     0.028 C 
ATOM     11  C   UNL d   1      21.203 -19.295  -0.910  0.00  0.00     0.094 C 
ATOM     12  N   UNL d   1      19.905 -18.913  -1.014  0.00  0.00    -0.285 NA
ATOM     13  C   UNL d   1      19.331 -19.746  -0.101  0.00  0.00     0.015 A 
ATOM     14  H   UNL d   1      19.541 -17.972  -1.046  0.00  0.00     0.128 HD
ATOM     15  C   UNL d   1      18.118 -20.452  -0.494  0.00  0.00     0.024 A 
ATOM     16  C   UNL d   1      20.299 -19.714   1.126  0.00  0.00    -0.025 A 
ATOM     17  C   UNL d   1      17.481 -21.411   0.227  0.00  0.00     0.002 A 
ATOM     18  C   UNL d   1      18.123 -21.625   1.400  0.00  0.00     0.001 A 
ATOM     19  C   UNL d   1      19.344 -20.791   1.749  0.00  0.00     0.010 A 
ENDBRANCH   9  10
ENDBRANCH   6   9
ENDBRANCH   3   5
BRANCH   2  20
ATOM     20  C   UNL d   1      27.813 -14.818  -1.160  0.00  0.00     0.280 C 
BRANCH  20  21
ATOM     21  O   UNL d   1      26.774 -14.218  -0.355  0.00  0.00    -0.342 OA
BRANCH  21  22
ATOM     22  C   UNL d   1      27.146 -13.623   0.829  0.00  0.00     0.070 A 
ATOM     23  C   UNL d   1      27.685 -14.448   1.826  0.00  0.00     0.037 A 
ATOM     24  C   UNL d   1      27.980 -13.945   3.103  0.00  0.00     0.004 A 
ATOM     25  C   UNL d   1      27.787 -12.594   3.378  0.00  0.00     0.016 A 
ATOM     26  C   UNL d   1      27.234 -11.757   2.401  0.00  0.00     0.050 A 
ATOM     27  C   UNL d   1      26.914 -12.283   1.132  0.00  0.00     0.052 A 
BRANCH  26  28
ATOM     28  C   UNL d   1      26.934 -10.317   2.726  0.00  0.00     0.417 C 
ATOM     29  F   UNL d   1      27.307  -9.470   1.728  0.00  0.00    -0.166 F 
ATOM     30  F   UNL d   1      25.609 -10.092   2.940  0.00  0.00    -0.166 F 
ATOM     31  F   UNL d   1      27.573  -9.877   3.847  0.00  0.00    -0.166 F 
ENDBRANCH  26  28
ENDBRANCH  21  22
ENDBRANCH  20  21
ENDBRANCH   2  20
TORSDOF 7
ENDMDL
MODEL 7
REMARK VINA RESULT:   -28.922      1.946      2.409
REMARK INTER + INTRA:         -31.802
REMARK INTER:                 -31.010
REMARK INTRA:                  -0.792
REMARK CONF_INDEPENDENT:        2.088
REMARK UNBOUND:                -0.792
REMARK  7 active torsions:
REMARK  status: ('A' for Active; 'I' for Inactive)
REMARK    1  A    between atoms: C_2  and  C_3 
REMARK       I    between atoms: C_2  and  N_15 
REMARK    2  A    between atoms: C_3  and  O_4 
REMARK    3  A    between atoms: O_4  and  C_5 
REMARK    4  A    between atoms: C_9  and  C_10 
REMARK    5  A    between atoms: N_15  and  N_16 
REMARK       I    between atoms: N_16  and  C_17 
REMARK    6  A    between atoms: C_17  and  C_19 
REMARK    7  A    between atoms: C_19  and  C_20 
ROOT
ATOM      1  O   UNL d   1      27.751 -13.710   0.050  0.00  0.00    -0.269 OA
ATOM      2  C   UNL d   1      27.037 -14.671  -0.274  0.00  0.00     0.260 C 
ATOM      3  N   UNL d   1      25.817 -14.430  -0.960  0.00  0.00    -0.266 N 
ATOM      4  H   UNL d   1      25.618 -13.437  -1.106  0.00  0.00     0.190 HD
ENDROOT
BRANCH   3   5
ATOM      5  N   UNL d   1      24.704 -15.419  -1.361  0.00  0.00    -0.267 N 
ATOM      6  C   UNL d   1      24.388 -16.668  -0.586  0.00  0.00     0.237 C 
ATOM      7  O   UNL d   1      24.997 -16.866   0.468  0.00  0.00    -0.272 OA
ATOM      8  H   UNL d   1      24.129 -15.081  -2.121  0.00  0.00     0.190 HD
BRANCH   6   9
ATOM      9  C   UNL d   1      23.140 -17.754  -1.258  0.00  0.00     0.121 C 
BRANCH   9  10
ATOM     10  C   UNL d   1      21.591 -18.412  -0.521  0.00  0.00     0.028 C 
ATOM     11  C   UNL d   1      21.186 -19.325  -1.437  0.00  0.00     0.094 C 
ATOM     12  N   UNL d   1      19.903 -18.918  -1.270  0.00  0.00    -0.285 NA
ATOM     13  C   UNL d   1      19.598 -19.545  -0.099  0.00  0.00     0.015 A 
ATOM     14  H   UNL d   1      19.534 -17.985  -1.382  0.00  0.00     0.128 HD
ATOM     15  C   UNL d   1      18.333 -20.262  -0.021  0.00  0.00     0.024 A 
ATOM     16  C   UNL d   1      20.855 -19.326   0.805  0.00  0.00    -0.025 A 
ATOM     17  C   UNL d   1      17.919 -21.046   1.008  0.00  0.00     0.002 A 
ATOM     18  C   UNL d   1      18.849 -21.066   1.991  0.00  0.00     0.001 A 
ATOM     19  C   UNL d   1      20.111 -20.231   1.846  0.00  0.00     0.010 A 
ENDBRANCH   9  10
ENDBRANCH   6   9
ENDBRANCH   3   5
BRANCH   2  20
ATOM     20  C   UNL d   1      27.506 -16.113   0.044  0.00  0.00     0.280 C 
BRANCH  20  21
ATOM     21  O   UNL d   1      27.994 -16.841  -1.104  0.00  0.00    -0.342 OA
BRANCH  21  22
ATOM     22  C   UNL d   1      28.546 -16.116  -2.135  0.00  0.00     0.070 A 
ATOM     23  C   UNL d   1      29.913 -15.813  -2.052  0.00  0.00     0.037 A 
ATOM     24  C   UNL d   1      30.530 -14.980  -2.997  0.00  0.00     0.004 A 
ATOM     25  C   UNL d   1      29.795 -14.482  -4.069  0.00  0.00     0.016 A 
ATOM     26  C   UNL d   1      28.425 -14.759  -4.160  0.00  0.00     0.050 A 
ATOM     27  C   UNL d   1      27.811 -15.573  -3.186  0.00  0.00     0.052 A 
BRANCH  26  28
ATOM     28  C   UNL d   1      27.605 -14.144  -5.265  0.00  0.00     0.417 C 
ATOM     29  F   UNL d   1      26.681 -13.261  -4.797  0.00  0.00    -0.166 F 
ATOM     30  F   UNL d   1      28.365 -13.459  -6.163  0.00  0.00    -0.166 F 
ATOM     31  F   UNL d   1      26.909 -15.064  -5.991  0.00  0.00    -0.166 F 
ENDBRANCH  26  28
ENDBRANCH  21  22
ENDBRANCH  20  21
ENDBRANCH   2  20
TORSDOF 7
ENDMDL
MODEL 8
REMARK VINA RESULT:   -28.189      3.543      4.990
REMARK INTER + INTRA:         -31.533
REMARK INTER:                 -30.277
REMARK INTRA:                  -1.256
REMARK CONF_INDEPENDENT:        2.088
REMARK UNBOUND:                -1.256
REMARK  7 active torsions:
REMARK  status: ('A' for Active; 'I' for Inactive)
REMARK    1  A    between atoms: C_2  and  C_3 
REMARK       I    between atoms: C_2  and  N_15 
REMARK    2  A    between atoms: C_3  and  O_4 
REMARK    3  A    between atoms: O_4  and  C_5 
REMARK    4  A    between atoms: C_9  and  C_10 
REMARK    5  A    between atoms: N_15  and  N_16 
REMARK       I    between atoms: N_16  and  C_17 
REMARK    6  A    between atoms: C_17  and  C_19 
REMARK    7  A    between atoms: C_19  and  C_20 
ROOT
ATOM      1  O   UNL d   1      27.273 -15.007  -4.251  0.00  0.00    -0.269 OA
ATOM      2  C   UNL d   1      26.797 -15.174  -3.118  0.00  0.00     0.260 C 
ATOM      3  N   UNL d   1      25.841 -16.203  -2.911  0.00  0.00    -0.266 N 
ATOM      4  H   UNL d   1      25.602 -16.718  -3.762  0.00  0.00     0.190 HD
ENDROOT
BRANCH   3   5
ATOM      5  N   UNL d   1      25.015 -16.538  -1.653  0.00  0.00    -0.267 N 
ATOM      6  C   UNL d   1      23.990 -17.636  -1.604  0.00  0.00     0.237 C 
ATOM      7  O   UNL d   1      23.863 -18.356  -2.597  0.00  0.00    -0.272 OA
ATOM      8  H   UNL d   1      25.321 -16.031  -0.832  0.00  0.00     0.190 HD
BRANCH   6   9
ATOM      9  C   UNL d   1      23.049 -17.810  -0.096  0.00  0.00     0.121 C 
BRANCH   9  10
ATOM     10  C   UNL d   1      21.405 -18.570   0.218  0.00  0.00     0.028 C 
ATOM     11  C   UNL d   1      21.207 -19.326  -0.890  0.00  0.00     0.094 C 
ATOM     12  N   UNL d   1      19.905 -18.944  -0.912  0.00  0.00    -0.285 NA
ATOM     13  C   UNL d   1      19.399 -19.747   0.067  0.00  0.00     0.015 A 
ATOM     14  H   UNL d   1      19.540 -18.004  -0.946  0.00  0.00     0.128 HD
ATOM     15  C   UNL d   1      18.162 -20.463  -0.214  0.00  0.00     0.024 A 
ATOM     16  C   UNL d   1      20.455 -19.679   1.218  0.00  0.00    -0.025 A 
ATOM     17  C   UNL d   1      17.580 -21.398   0.582  0.00  0.00     0.002 A 
ATOM     18  C   UNL d   1      18.306 -21.577   1.710  0.00  0.00     0.001 A 
ATOM     19  C   UNL d   1      19.549 -20.734   1.942  0.00  0.00     0.010 A 
ENDBRANCH   9  10
ENDBRANCH   6   9
ENDBRANCH   3   5
BRANCH   2  20
ATOM     20  C   UNL d   1      27.279 -14.281  -1.947  0.00  0.00     0.280 C 
BRANCH  20  21
ATOM     21  O   UNL d   1      27.379 -14.972  -0.682  0.00  0.00    -0.342 OA
BRANCH  21  22
ATOM     22  C   UNL d   1      28.453 -14.677   0.125  0.00  0.00     0.070 A 
ATOM     23  C   UNL d   1      28.503 -13.394   0.690  0.00  0.00     0.037 A 
ATOM     24  C   UNL d   1      29.619 -12.970   1.429  0.00  0.00     0.004 A 
ATOM     25  C   UNL d   1      30.676 -13.847   1.655  0.00  0.00     0.016 A 
ATOM     26  C   UNL d   1      30.651 -15.127   1.085  0.00  0.00     0.050 A 
ATOM     27  C   UNL d   1      29.538 -15.529   0.320  0.00  0.00     0.052 A 
BRANCH  26  28
ATOM     28  C   UNL d   1      31.835 -16.045   1.247  0.00  0.00     0.417 C 
ATOM     29  F   UNL d   1      32.910 -15.641   0.518  0.00  0.00    -0.166 F 
ATOM     30  F   UNL d   1      32.261 -16.129   2.537  0.00  0.00    -0.166 F 
ATOM     31  F   UNL d   1      31.577 -17.325   0.855  0.00  0.00    -0.166 F 
ENDBRANCH  26  28
ENDBRANCH  21  22
ENDBRANCH  20  21
ENDBRANCH   2  20
TORSDOF 7
ENDMDL
