MODEL 1
REMARK VINA RESULT:   -31.121      0.000      0.000
REMARK INTER + INTRA:         -34.862
REMARK INTER:                 -33.806
REMARK INTRA:                  -1.056
REMARK CONF_INDEPENDENT:        2.685
REMARK UNBOUND:                -1.056
REMARK  9 active torsions:
REMARK  status: ('A' for Active; 'I' for Inactive)
REMARK    1  A    between atoms: C_2  and  C_3 
REMARK    2  A    between atoms: C_3  and  S_4 
REMARK    3  A    between atoms: S_4  and  C_5 
REMARK    4  A    between atoms: C_10  and  N_11 
REMARK       I    between atoms: N_11  and  C_12 
REMARK    5  A    between atoms: C_12  and  C_14 
REMARK    6  A    between atoms: C_14  and  S_15 
REMARK    7  A    between atoms: S_15  and  C_16 
REMARK    8  A    between atoms: C_19  and  C_20 
REMARK    9  A    between atoms: N_26  and  N_27 
ROOT
ATOM      1  N   UNL d   1      25.250 -17.174   0.011  0.00  0.00    -0.326 N 
ATOM      2  C   UNL d   1      26.089 -16.644  -0.979  0.00  0.00     0.231 C 
ATOM      3  O   UNL d   1      25.737 -16.445  -2.148  0.00  0.00    -0.272 OA
ATOM      4  H   UNL d   1      25.610 -17.306   0.951  0.00  0.00     0.169 HD
ENDROOT
BRANCH   2   5
ATOM      5  C   UNL d   1      27.522 -16.313  -0.580  0.00  0.00     0.185 C 
BRANCH   5   6
ATOM      6  S   UNL d   1      27.711 -14.496  -0.485  0.00  0.00    -0.080 SA
BRANCH   6   7
ATOM      7  C   UNL d   1      27.511 -13.951   1.133  0.00  0.00     0.206 A 
ATOM      8  N   UNL d   1      26.419 -13.333   1.536  0.00  0.00    -0.121 NA
ATOM      9  N   UNL d   1      26.551 -13.060   2.876  0.00  0.00    -0.127 NA
ATOM     10  C   UNL d   1      27.736 -13.489   3.266  0.00  0.00     0.179 A 
ATOM     11  N   UNL d   1      28.371 -14.090   2.193  0.00  0.00    -0.235 N 
BRANCH  10  12
ATOM     12  C   UNL d   1      28.299 -13.335   4.600  0.00  0.00     0.013 A 
ATOM     13  C   UNL d   1      29.079 -14.350   5.165  0.00  0.00     0.015 A 
ATOM     14  C   UNL d   1      29.507 -14.248   6.490  0.00  0.00     0.001 A 
ATOM     15  C   UNL d   1      29.217 -13.104   7.234  0.00  0.00     0.000 A 
ATOM     16  C   UNL d   1      28.467 -12.075   6.668  0.00  0.00     0.001 A 
ATOM     17  C   UNL d   1      27.997 -12.197   5.361  0.00  0.00     0.015 A 
ENDBRANCH  10  12
BRANCH  11  18
ATOM     18  N   UNL d   1      29.618 -14.817   2.250  0.00  0.00    -0.239 NA
ATOM     19  H   UNL d   1      29.659 -15.551   1.546  0.00  0.00     0.143 HD
ATOM     20  H   UNL d   1      29.745 -15.291   3.133  0.00  0.00     0.143 HD
ENDBRANCH  11  18
ENDBRANCH   6   7
ENDBRANCH   5   6
ENDBRANCH   2   5
BRANCH   1  21
ATOM     21  C   UNL d   1      23.878 -17.540  -0.220  0.00  0.00     0.036 A 
ATOM     22  C   UNL d   1      23.014 -16.681  -0.901  0.00  0.00     0.032 A 
ATOM     23  C   UNL d   1      21.677 -16.973  -1.152  0.00  0.00     0.035 A 
ATOM     24  C   UNL d   1      21.140 -18.182  -0.714  0.00  0.00     0.076 A 
ATOM     25  N   UNL d   1      19.825 -18.576  -0.907  0.00  0.00    -0.233 NA
ATOM     26  C   UNL d   1      21.980 -19.066  -0.028  0.00  0.00     0.038 A 
ATOM     27  C   UNL d   1      19.639 -19.751  -0.364  0.00  0.00     0.135 A 
ATOM     28  S   UNL d   1      21.028 -20.451   0.383  0.00  0.00    -0.061 SA
ATOM     29  C   UNL d   1      23.356 -18.769   0.231  0.00  0.00     0.051 A 
BRANCH  27  30
ATOM     30  S   UNL d   1      18.075 -20.552  -0.351  0.00  0.00    -0.103 SA
BRANCH  30  31
ATOM     31  C   UNL d   1      17.918 -21.227   1.340  0.00  0.00     0.081 C 
BRANCH  31  32
ATOM     32  C   UNL d   1      18.291 -20.131   2.350  0.00  0.00     0.006 C 
ATOM     33  C   UNL d   1      19.567 -20.463   3.116  0.00  0.00     0.006 C 
ENDBRANCH  31  32
ENDBRANCH  30  31
ENDBRANCH  27  30
ENDBRANCH   1  21
TORSDOF 9
ENDMDL
MODEL 2
REMARK VINA RESULT:   -29.648      3.881      6.157
REMARK INTER + INTRA:         -33.961
REMARK INTER:                 -32.333
REMARK INTRA:                  -1.628
REMARK CONF_INDEPENDENT:        2.685
REMARK UNBOUND:                -1.628
REMARK  9 active torsions:
REMARK  status: ('A' for Active; 'I' for Inactive)
REMARK    1  A    between atoms: C_2  and  C_3 
REMARK    2  A    between atoms: C_3  and  S_4 
REMARK    3  A    between atoms: S_4  and  C_5 
REMARK    4  A    between atoms: C_10  and  N_11 
REMARK       I    between atoms: N_11  and  C_12 
REMARK    5  A    between atoms: C_12  and  C_14 
REMARK    6  A    between atoms: C_14  and  S_15 
REMARK    7  A    between atoms: S_15  and  C_16 
REMARK    8  A    between atoms: C_19  and  C_20 
REMARK    9  A    between atoms: N_26  and  N_27 
ROOT
ATOM      1  N   UNL d   1      25.245 -17.186  -0.016  0.00  0.00    -0.326 N 
ATOM      2  C   UNL d   1      25.960 -16.308  -0.843  0.00  0.00     0.231 C 
ATOM      3  O   UNL d   1      25.484 -15.765  -1.847  0.00  0.00    -0.272 OA
ATOM      4  H   UNL d   1      25.704 -17.591   0.794  0.00  0.00     0.169 HD
ENDROOT
BRANCH   2   5
ATOM      5  C   UNL d   1      27.413 -16.029  -0.480  0.00  0.00     0.185 C 
BRANCH   5   6
ATOM      6  S   UNL d   1      28.471 -16.398  -1.925  0.00  0.00    -0.080 SA
BRANCH   6   7
ATOM      7  C   UNL d   1      28.011 -15.436  -3.274  0.00  0.00     0.206 A 
ATOM      8  N   UNL d   1      28.116 -15.868  -4.514  0.00  0.00    -0.121 NA
ATOM      9  N   UNL d   1      27.638 -14.889  -5.351  0.00  0.00    -0.127 NA
ATOM     10  C   UNL d   1      27.275 -13.859  -4.610  0.00  0.00     0.179 A 
ATOM     11  N   UNL d   1      27.468 -14.175  -3.277  0.00  0.00    -0.235 N 
BRANCH  10  12
ATOM     12  C   UNL d   1      26.775 -12.587  -5.111  0.00  0.00     0.013 A 
ATOM     13  C   UNL d   1      27.035 -12.189  -6.428  0.00  0.00     0.015 A 
ATOM     14  C   UNL d   1      26.664 -10.914  -6.860  0.00  0.00     0.001 A 
ATOM     15  C   UNL d   1      25.969 -10.059  -6.004  0.00  0.00     0.000 A 
ATOM     16  C   UNL d   1      25.679 -10.460  -4.702  0.00  0.00     0.001 A 
ATOM     17  C   UNL d   1      26.092 -11.713  -4.253  0.00  0.00     0.015 A 
ENDBRANCH  10  12
BRANCH  11  18
ATOM     18  N   UNL d   1      27.049 -13.374  -2.150  0.00  0.00    -0.239 NA
ATOM     19  H   UNL d   1      27.845 -13.016  -1.627  0.00  0.00     0.143 HD
ATOM     20  H   UNL d   1      26.511 -13.906  -1.481  0.00  0.00     0.143 HD
ENDBRANCH  11  18
ENDBRANCH   6   7
ENDBRANCH   5   6
ENDBRANCH   2   5
BRANCH   1  21
ATOM     21  C   UNL d   1      23.871 -17.548  -0.238  0.00  0.00     0.036 A 
ATOM     22  C   UNL d   1      23.004 -16.687  -0.911  0.00  0.00     0.032 A 
ATOM     23  C   UNL d   1      21.664 -16.975  -1.153  0.00  0.00     0.035 A 
ATOM     24  C   UNL d   1      21.128 -18.184  -0.714  0.00  0.00     0.076 A 
ATOM     25  N   UNL d   1      19.811 -18.575  -0.897  0.00  0.00    -0.233 NA
ATOM     26  C   UNL d   1      21.971 -19.071  -0.036  0.00  0.00     0.038 A 
ATOM     27  C   UNL d   1      19.626 -19.751  -0.356  0.00  0.00     0.135 A 
ATOM     28  S   UNL d   1      21.019 -20.455   0.379  0.00  0.00    -0.061 SA
ATOM     29  C   UNL d   1      23.349 -18.778   0.215  0.00  0.00     0.051 A 
BRANCH  27  30
ATOM     30  S   UNL d   1      18.061 -20.549  -0.334  0.00  0.00    -0.103 SA
BRANCH  30  31
ATOM     31  C   UNL d   1      17.921 -21.240   1.353  0.00  0.00     0.081 C 
BRANCH  31  32
ATOM     32  C   UNL d   1      18.289 -20.148   2.370  0.00  0.00     0.006 C 
ATOM     33  C   UNL d   1      19.599 -20.448   3.089  0.00  0.00     0.006 C 
ENDBRANCH  31  32
ENDBRANCH  30  31
ENDBRANCH  27  30
ENDBRANCH   1  21
TORSDOF 9
ENDMDL
MODEL 3
REMARK VINA RESULT:   -28.559      3.663      6.418
REMARK INTER + INTRA:         -32.048
REMARK INTER:                 -31.244
REMARK INTRA:                  -0.804
REMARK CONF_INDEPENDENT:        2.685
REMARK UNBOUND:                -0.804
REMARK  9 active torsions:
REMARK  status: ('A' for Active; 'I' for Inactive)
REMARK    1  A    between atoms: C_2  and  C_3 
REMARK    2  A    between atoms: C_3  and  S_4 
REMARK    3  A    between atoms: S_4  and  C_5 
REMARK    4  A    between atoms: C_10  and  N_11 
REMARK       I    between atoms: N_11  and  C_12 
REMARK    5  A    between atoms: C_12  and  C_14 
REMARK    6  A    between atoms: C_14  and  S_15 
REMARK    7  A    between atoms: S_15  and  C_16 
REMARK    8  A    between atoms: C_19  and  C_20 
REMARK    9  A    between atoms: N_26  and  N_27 
ROOT
ATOM      1  N   UNL d   1      25.383 -17.399  -0.060  0.00  0.00    -0.326 N 
ATOM      2  C   UNL d   1      25.926 -16.116  -0.218  0.00  0.00     0.231 C 
ATOM      3  O   UNL d   1      25.268 -15.126  -0.559  0.00  0.00    -0.272 OA
ATOM      4  H   UNL d   1      25.986 -18.164   0.226  0.00  0.00     0.169 HD
ENDROOT
BRANCH   2   5
ATOM      5  C   UNL d   1      27.420 -15.951   0.034  0.00  0.00     0.185 C 
BRANCH   5   6
ATOM      6  S   UNL d   1      28.000 -14.429  -0.797  0.00  0.00    -0.080 SA
BRANCH   6   7
ATOM      7  C   UNL d   1      28.761 -14.807  -2.291  0.00  0.00     0.206 A 
ATOM      8  N   UNL d   1      29.075 -13.882  -3.175  0.00  0.00    -0.121 NA
ATOM      9  N   UNL d   1      29.697 -14.495  -4.235  0.00  0.00    -0.127 NA
ATOM     10  C   UNL d   1      29.726 -15.792  -3.998  0.00  0.00     0.179 A 
ATOM     11  N   UNL d   1      29.167 -16.034  -2.755  0.00  0.00    -0.235 N 
BRANCH  10  12
ATOM     12  C   UNL d   1      30.241 -16.810  -4.903  0.00  0.00     0.013 A 
ATOM     13  C   UNL d   1      30.448 -16.519  -6.256  0.00  0.00     0.015 A 
ATOM     14  C   UNL d   1      30.818 -17.533  -7.142  0.00  0.00     0.001 A 
ATOM     15  C   UNL d   1      31.052 -18.824  -6.669  0.00  0.00     0.000 A 
ATOM     16  C   UNL d   1      30.878 -19.115  -5.318  0.00  0.00     0.001 A 
ATOM     17  C   UNL d   1      30.460 -18.115  -4.441  0.00  0.00     0.015 A 
ENDBRANCH  10  12
BRANCH  11  18
ATOM     18  N   UNL d   1      29.152 -17.305  -2.069  0.00  0.00    -0.239 NA
ATOM     19  H   UNL d   1      28.308 -17.422  -1.512  0.00  0.00     0.143 HD
ATOM     20  H   UNL d   1      29.916 -17.395  -1.414  0.00  0.00     0.143 HD
ENDBRANCH  11  18
ENDBRANCH   6   7
ENDBRANCH   5   6
ENDBRANCH   2   5
BRANCH   1  21
ATOM     21  C   UNL d   1      23.994 -17.708  -0.270  0.00  0.00     0.036 A 
ATOM     22  C   UNL d   1      23.165 -16.831  -0.972  0.00  0.00     0.032 A 
ATOM     23  C   UNL d   1      21.813 -17.067  -1.204  0.00  0.00     0.035 A 
ATOM     24  C   UNL d   1      21.225 -18.236  -0.725  0.00  0.00     0.076 A 
ATOM     25  N   UNL d   1      19.892 -18.575  -0.896  0.00  0.00    -0.233 NA
ATOM     26  C   UNL d   1      22.029 -19.137  -0.019  0.00  0.00     0.038 A 
ATOM     27  C   UNL d   1      19.656 -19.723  -0.317  0.00  0.00     0.135 A 
ATOM     28  S   UNL d   1      21.018 -20.464   0.441  0.00  0.00    -0.061 SA
ATOM     29  C   UNL d   1      23.419 -18.897   0.222  0.00  0.00     0.051 A 
BRANCH  27  30
ATOM     30  S   UNL d   1      18.057 -20.450  -0.268  0.00  0.00    -0.103 SA
BRANCH  30  31
ATOM     31  C   UNL d   1      17.899 -21.101   1.432  0.00  0.00     0.081 C 
BRANCH  31  32
ATOM     32  C   UNL d   1      18.545 -20.104   2.408  0.00  0.00     0.006 C 
ATOM     33  C   UNL d   1      19.536 -20.780   3.348  0.00  0.00     0.006 C 
ENDBRANCH  31  32
ENDBRANCH  30  31
ENDBRANCH  27  30
ENDBRANCH   1  21
TORSDOF 9
ENDMDL
MODEL 4
REMARK VINA RESULT:   -28.352      3.550      5.541
REMARK INTER + INTRA:         -32.452
REMARK INTER:                 -31.037
REMARK INTRA:                  -1.415
REMARK CONF_INDEPENDENT:        2.685
REMARK UNBOUND:                -1.415
REMARK  9 active torsions:
REMARK  status: ('A' for Active; 'I' for Inactive)
REMARK    1  A    between atoms: C_2  and  C_3 
REMARK    2  A    between atoms: C_3  and  S_4 
REMARK    3  A    between atoms: S_4  and  C_5 
REMARK    4  A    between atoms: C_10  and  N_11 
REMARK       I    between atoms: N_11  and  C_12 
REMARK    5  A    between atoms: C_12  and  C_14 
REMARK    6  A    between atoms: C_14  and  S_15 
REMARK    7  A    between atoms: S_15  and  C_16 
REMARK    8  A    between atoms: C_19  and  C_20 
REMARK    9  A    between atoms: N_26  and  N_27 
ROOT
ATOM      1  N   UNL d   1      25.356 -17.388   0.003  0.00  0.00    -0.326 N 
ATOM      2  C   UNL d   1      26.157 -16.645  -0.876  0.00  0.00     0.231 C 
ATOM      3  O   UNL d   1      25.759 -16.190  -1.955  0.00  0.00    -0.272 OA
ATOM      4  H   UNL d   1      25.753 -17.725   0.874  0.00  0.00     0.169 HD
ENDROOT
BRANCH   2   5
ATOM      5  C   UNL d   1      27.606 -16.404  -0.470  0.00  0.00     0.185 C 
BRANCH   5   6
ATOM      6  S   UNL d   1      27.740 -14.761   0.321  0.00  0.00    -0.080 SA
BRANCH   6   7
ATOM      7  C   UNL d   1      27.876 -13.526  -0.868  0.00  0.00     0.206 A 
ATOM      8  N   UNL d   1      28.991 -12.849  -1.054  0.00  0.00    -0.121 NA
ATOM      9  N   UNL d   1      28.791 -11.969  -2.089  0.00  0.00    -0.127 NA
ATOM     10  C   UNL d   1      27.544 -12.100  -2.502  0.00  0.00     0.179 A 
ATOM     11  N   UNL d   1      26.933 -13.103  -1.770  0.00  0.00    -0.235 N 
BRANCH  10  12
ATOM     12  C   UNL d   1      26.906 -11.304  -3.540  0.00  0.00     0.013 A 
ATOM     13  C   UNL d   1      26.280 -10.093  -3.224  0.00  0.00     0.015 A 
ATOM     14  C   UNL d   1      25.561  -9.401  -4.201  0.00  0.00     0.001 A 
ATOM     15  C   UNL d   1      25.523  -9.877  -5.511  0.00  0.00     0.000 A 
ATOM     16  C   UNL d   1      26.170 -11.066  -5.841  0.00  0.00     0.001 A 
ATOM     17  C   UNL d   1      26.847 -11.784  -4.856  0.00  0.00     0.015 A 
ENDBRANCH  10  12
BRANCH  11  18
ATOM     18  N   UNL d   1      25.619 -13.650  -2.022  0.00  0.00    -0.239 NA
ATOM     19  H   UNL d   1      25.669 -14.614  -2.344  0.00  0.00     0.143 HD
ATOM     20  H   UNL d   1      25.131 -13.152  -2.753  0.00  0.00     0.143 HD
ENDBRANCH  11  18
ENDBRANCH   6   7
ENDBRANCH   5   6
ENDBRANCH   2   5
BRANCH   1  21
ATOM     21  C   UNL d   1      23.974 -17.699  -0.249  0.00  0.00     0.036 A 
ATOM     22  C   UNL d   1      23.157 -16.810  -0.947  0.00  0.00     0.032 A 
ATOM     23  C   UNL d   1      21.813 -17.048  -1.219  0.00  0.00     0.035 A 
ATOM     24  C   UNL d   1      21.221 -18.233  -0.786  0.00  0.00     0.076 A 
ATOM     25  N   UNL d   1      19.895 -18.575  -0.998  0.00  0.00    -0.233 NA
ATOM     26  C   UNL d   1      22.014 -19.147  -0.083  0.00  0.00     0.038 A 
ATOM     27  C   UNL d   1      19.653 -19.740  -0.455  0.00  0.00     0.135 A 
ATOM     28  S   UNL d   1      21.000 -20.492   0.318  0.00  0.00    -0.061 SA
ATOM     29  C   UNL d   1      23.395 -18.905   0.198  0.00  0.00     0.051 A 
BRANCH  27  30
ATOM     30  S   UNL d   1      18.058 -20.478  -0.464  0.00  0.00    -0.103 SA
BRANCH  30  31
ATOM     31  C   UNL d   1      18.053 -21.581   0.992  0.00  0.00     0.081 C 
BRANCH  31  32
ATOM     32  C   UNL d   1      18.658 -20.829   2.189  0.00  0.00     0.006 C 
ATOM     33  C   UNL d   1      18.418 -19.326   2.105  0.00  0.00     0.006 C 
ENDBRANCH  31  32
ENDBRANCH  30  31
ENDBRANCH  27  30
ENDBRANCH   1  21
TORSDOF 9
ENDMDL
MODEL 5
REMARK VINA RESULT:   -28.188      3.691      6.350
REMARK INTER + INTRA:         -33.105
REMARK INTER:                 -30.873
REMARK INTRA:                  -2.232
REMARK CONF_INDEPENDENT:        2.685
REMARK UNBOUND:                -2.232
REMARK  9 active torsions:
REMARK  status: ('A' for Active; 'I' for Inactive)
REMARK    1  A    between atoms: C_2  and  C_3 
REMARK    2  A    between atoms: C_3  and  S_4 
REMARK    3  A    between atoms: S_4  and  C_5 
REMARK    4  A    between atoms: C_10  and  N_11 
REMARK       I    between atoms: N_11  and  C_12 
REMARK    5  A    between atoms: C_12  and  C_14 
REMARK    6  A    between atoms: C_14  and  S_15 
REMARK    7  A    between atoms: S_15  and  C_16 
REMARK    8  A    between atoms: C_19  and  C_20 
REMARK    9  A    between atoms: N_26  and  N_27 
ROOT
ATOM      1  N   UNL d   1      25.281 -17.207   0.294  0.00  0.00    -0.326 N 
ATOM      2  C   UNL d   1      25.967 -16.163  -0.342  0.00  0.00     0.231 C 
ATOM      3  O   UNL d   1      25.476 -15.452  -1.227  0.00  0.00    -0.272 OA
ATOM      4  H   UNL d   1      25.750 -17.746   1.015  0.00  0.00     0.169 HD
ENDROOT
BRANCH   2   5
ATOM      5  C   UNL d   1      27.410 -15.913   0.081  0.00  0.00     0.185 C 
BRANCH   5   6
ATOM      6  S   UNL d   1      28.505 -17.067  -0.820  0.00  0.00    -0.080 SA
BRANCH   6   7
ATOM      7  C   UNL d   1      29.161 -16.311  -2.218  0.00  0.00     0.206 A 
ATOM      8  N   UNL d   1      30.434 -16.416  -2.543  0.00  0.00    -0.121 NA
ATOM      9  N   UNL d   1      30.634 -15.736  -3.719  0.00  0.00    -0.127 NA
ATOM     10  C   UNL d   1      29.484 -15.200  -4.082  0.00  0.00     0.179 A 
ATOM     11  N   UNL d   1      28.511 -15.565  -3.169  0.00  0.00    -0.235 N 
BRANCH  10  12
ATOM     12  C   UNL d   1      29.275 -14.342  -5.240  0.00  0.00     0.013 A 
ATOM     13  C   UNL d   1      29.463 -12.958  -5.143  0.00  0.00     0.015 A 
ATOM     14  C   UNL d   1      29.138 -12.131  -6.220  0.00  0.00     0.001 A 
ATOM     15  C   UNL d   1      28.692 -12.686  -7.419  0.00  0.00     0.000 A 
ATOM     16  C   UNL d   1      28.532 -14.065  -7.534  0.00  0.00     0.001 A 
ATOM     17  C   UNL d   1      28.809 -14.889  -6.444  0.00  0.00     0.015 A 
ENDBRANCH  10  12
BRANCH  11  18
ATOM     18  N   UNL d   1      27.095 -15.306  -3.296  0.00  0.00    -0.239 NA
ATOM     19  H   UNL d   1      26.800 -14.527  -2.711  0.00  0.00     0.143 HD
ATOM     20  H   UNL d   1      26.534 -16.091  -2.994  0.00  0.00     0.143 HD
ENDBRANCH  11  18
ENDBRANCH   6   7
ENDBRANCH   5   6
ENDBRANCH   2   5
BRANCH   1  21
ATOM     21  C   UNL d   1      23.920 -17.564  -0.005  0.00  0.00     0.036 A 
ATOM     22  C   UNL d   1      23.097 -16.702  -0.732  0.00  0.00     0.032 A 
ATOM     23  C   UNL d   1      21.772 -16.985  -1.050  0.00  0.00     0.035 A 
ATOM     24  C   UNL d   1      21.206 -18.189  -0.637  0.00  0.00     0.076 A 
ATOM     25  N   UNL d   1      19.900 -18.575  -0.895  0.00  0.00    -0.233 NA
ATOM     26  C   UNL d   1      22.004 -19.077   0.093  0.00  0.00     0.038 A 
ATOM     27  C   UNL d   1      19.678 -19.747  -0.360  0.00  0.00     0.135 A 
ATOM     28  S   UNL d   1      21.023 -20.455   0.458  0.00  0.00    -0.061 SA
ATOM     29  C   UNL d   1      23.366 -18.789   0.421  0.00  0.00     0.051 A 
BRANCH  27  30
ATOM     30  S   UNL d   1      18.110 -20.538  -0.425  0.00  0.00    -0.103 SA
BRANCH  30  31
ATOM     31  C   UNL d   1      17.837 -21.159   1.272  0.00  0.00     0.081 C 
BRANCH  31  32
ATOM     32  C   UNL d   1      18.261 -20.073   2.273  0.00  0.00     0.006 C 
ATOM     33  C   UNL d   1      19.473 -20.491   3.098  0.00  0.00     0.006 C 
ENDBRANCH  31  32
ENDBRANCH  30  31
ENDBRANCH  27  30
ENDBRANCH   1  21
TORSDOF 9
ENDMDL
MODEL 6
REMARK VINA RESULT:   -28.131      3.304      4.065
REMARK INTER + INTRA:         -31.701
REMARK INTER:                 -30.816
REMARK INTRA:                  -0.885
REMARK CONF_INDEPENDENT:        2.685
REMARK UNBOUND:                -0.885
REMARK  9 active torsions:
REMARK  status: ('A' for Active; 'I' for Inactive)
REMARK    1  A    between atoms: C_2  and  C_3 
REMARK    2  A    between atoms: C_3  and  S_4 
REMARK    3  A    between atoms: S_4  and  C_5 
REMARK    4  A    between atoms: C_10  and  N_11 
REMARK       I    between atoms: N_11  and  C_12 
REMARK    5  A    between atoms: C_12  and  C_14 
REMARK    6  A    between atoms: C_14  and  S_15 
REMARK    7  A    between atoms: S_15  and  C_16 
REMARK    8  A    between atoms: C_19  and  C_20 
REMARK    9  A    between atoms: N_26  and  N_27 
ROOT
ATOM      1  N   UNL d   1      25.172 -17.082  -0.023  0.00  0.00    -0.326 N 
ATOM      2  C   UNL d   1      25.751 -15.948  -0.609  0.00  0.00     0.231 C 
ATOM      3  O   UNL d   1      25.152 -15.185  -1.377  0.00  0.00    -0.272 OA
ATOM      4  H   UNL d   1      25.727 -17.659   0.601  0.00  0.00     0.169 HD
ENDROOT
BRANCH   2   5
ATOM      5  C   UNL d   1      27.212 -15.660  -0.284  0.00  0.00     0.185 C 
BRANCH   5   6
ATOM      6  S   UNL d   1      28.238 -17.060  -0.859  0.00  0.00    -0.080 SA
BRANCH   6   7
ATOM      7  C   UNL d   1      29.907 -16.654  -0.794  0.00  0.00     0.206 A 
ATOM      8  N   UNL d   1      30.748 -16.979  -1.756  0.00  0.00    -0.121 NA
ATOM      9  N   UNL d   1      31.987 -16.485  -1.427  0.00  0.00    -0.127 NA
ATOM     10  C   UNL d   1      31.892 -15.891  -0.253  0.00  0.00     0.179 A 
ATOM     11  N   UNL d   1      30.577 -15.949   0.175  0.00  0.00    -0.235 N 
BRANCH  10  12
ATOM     12  C   UNL d   1      32.994 -15.293   0.487  0.00  0.00     0.013 A 
ATOM     13  C   UNL d   1      34.313 -15.694   0.248  0.00  0.00     0.015 A 
ATOM     14  C   UNL d   1      35.349 -15.210   1.049  0.00  0.00     0.001 A 
ATOM     15  C   UNL d   1      35.082 -14.271   2.046  0.00  0.00     0.000 A 
ATOM     16  C   UNL d   1      33.776 -13.842   2.270  0.00  0.00     0.001 A 
ATOM     17  C   UNL d   1      32.734 -14.362   1.503  0.00  0.00     0.015 A 
ENDBRANCH  10  12
BRANCH  11  18
ATOM     18  N   UNL d   1      30.037 -15.282   1.337  0.00  0.00    -0.239 NA
ATOM     19  H   UNL d   1      30.468 -15.615   2.196  0.00  0.00     0.143 HD
ATOM     20  H   UNL d   1      29.049 -15.455   1.452  0.00  0.00     0.143 HD
ENDBRANCH  11  18
ENDBRANCH   6   7
ENDBRANCH   5   6
ENDBRANCH   2   5
BRANCH   1  21
ATOM     21  C   UNL d   1      23.808 -17.483  -0.242  0.00  0.00     0.036 A 
ATOM     22  C   UNL d   1      22.921 -16.655  -0.933  0.00  0.00     0.032 A 
ATOM     23  C   UNL d   1      21.590 -16.982  -1.174  0.00  0.00     0.035 A 
ATOM     24  C   UNL d   1      21.083 -18.196  -0.714  0.00  0.00     0.076 A 
ATOM     25  N   UNL d   1      19.777 -18.624  -0.895  0.00  0.00    -0.233 NA
ATOM     26  C   UNL d   1      21.946 -19.049  -0.018  0.00  0.00     0.038 A 
ATOM     27  C   UNL d   1      19.621 -19.794  -0.334  0.00  0.00     0.135 A 
ATOM     28  S   UNL d   1      21.029 -20.450   0.418  0.00  0.00    -0.061 SA
ATOM     29  C   UNL d   1      23.315 -18.717   0.230  0.00  0.00     0.051 A 
BRANCH  27  30
ATOM     30  S   UNL d   1      18.076 -20.631  -0.302  0.00  0.00    -0.103 SA
BRANCH  30  31
ATOM     31  C   UNL d   1      17.876 -21.162   1.436  0.00  0.00     0.081 C 
BRANCH  31  32
ATOM     32  C   UNL d   1      18.452 -20.075   2.357  0.00  0.00     0.006 C 
ATOM     33  C   UNL d   1      19.530 -20.621   3.287  0.00  0.00     0.006 C 
ENDBRANCH  31  32
ENDBRANCH  30  31
ENDBRANCH  27  30
ENDBRANCH   1  21
TORSDOF 9
ENDMDL
