MODEL 1
REMARK VINA RESULT:    -8.561      0.000      0.000
REMARK INTER + INTRA:         -13.747
REMARK INTER:                 -11.842
REMARK INTRA:                  -1.905
REMARK CONF_INDEPENDENT:        3.281
REMARK UNBOUND:                -1.905
REMARK  11 active torsions:
REMARK  status: ('A' for Active; 'I' for Inactive)
REMARK    1  A    between atoms: C_2  and  C_3 
REMARK    2  A    between atoms: C_3  and  C_5 
REMARK    3  A    between atoms: C_10  and  O_11 
REMARK    4  A    between atoms: O_11  and  C_12 
REMARK    5  A    between atoms: C_12  and  C_13 
REMARK       I    between atoms: C_13  and  N_15 
REMARK    6  A    between atoms: N_15  and  N_16 
REMARK    7  A    between atoms: N_16  and  C_17 
REMARK    8  A    between atoms: C_17  and  N_19 
REMARK       I    between atoms: N_19  and  C_20 
REMARK    9  A    between atoms: C_20  and  C_22 
REMARK   10  A    between atoms: C_23  and  C_24 
REMARK   11  A    between atoms: C_27  and  N_28 
ROOT
ATOM      1  N   UNL d   1      31.148 -14.324   2.079  0.00  0.00    -0.273 N 
ATOM      2  H   UNL d   1      31.610 -13.445   1.858  0.00  0.00     0.189 HD
ENDROOT
BRANCH   1   3
ATOM      3  N   UNL d   1      30.777 -14.423   3.428  0.00  0.00    -0.266 N 
ATOM      4  C   UNL d   1      29.419 -14.450   3.784  0.00  0.00     0.260 C 
ATOM      5  O   UNL d   1      28.505 -14.371   2.950  0.00  0.00    -0.269 OA
ATOM      6  H   UNL d   1      31.574 -14.436   4.071  0.00  0.00     0.190 HD
BRANCH   4   7
ATOM      7  C   UNL d   1      29.183 -14.669   5.278  0.00  0.00     0.280 C 
BRANCH   7   8
ATOM      8  O   UNL d   1      28.360 -14.048   6.283  0.00  0.00    -0.341 OA
BRANCH   8   9
ATOM      9  C   UNL d   1      28.634 -13.048   7.248  0.00  0.00     0.076 A 
ATOM     10  C   UNL d   1      28.777 -11.783   6.626  0.00  0.00     0.037 A 
ATOM     11  C   UNL d   1      29.086 -10.602   7.343  0.00  0.00     0.003 A 
ATOM     12  C   UNL d   1      29.262 -10.626   8.718  0.00  0.00     0.001 A 
ATOM     13  C   UNL d   1      29.161 -11.835   9.372  0.00  0.00     0.010 A 
ATOM     14  C   UNL d   1      28.791 -13.028   8.693  0.00  0.00    -0.021 A 
BRANCH  14  15
ATOM     15  C   UNL d   1      28.521 -14.137   9.733  0.00  0.00     0.017 C 
ATOM     16  C   UNL d   1      28.209 -13.600  11.122  0.00  0.00     0.015 C 
BRANCH  15  17
ATOM     17  C   UNL d   1      29.803 -14.812   9.839  0.00  0.00     0.004 C 
ATOM     18  C   UNL d   1      31.063 -14.472   9.134  0.00  0.00     0.006 C 
ENDBRANCH  15  17
ENDBRANCH  14  15
ENDBRANCH   8   9
ENDBRANCH   7   8
ENDBRANCH   4   7
ENDBRANCH   1   3
BRANCH   1  19
ATOM     19  C   UNL d   1      30.905 -15.392   1.208  0.00  0.00     0.193 C 
ATOM     20  S   UNL d   1      32.170 -16.372   0.670  0.00  0.00    -0.039 SA
BRANCH  19  21
ATOM     21  N   UNL d   1      29.555 -15.521   0.852  0.00  0.00    -0.299 N 
ATOM     22  C   UNL d   1      29.000 -15.170  -0.381  0.00  0.00     0.247 C 
ATOM     23  O   UNL d   1      29.618 -14.677  -1.318  0.00  0.00    -0.268 OA
ATOM     24  H   UNL d   1      28.948 -15.905   1.560  0.00  0.00     0.171 HD
BRANCH  22  25
ATOM     25  C   UNL d   1      27.536 -15.409  -0.552  0.00  0.00     0.075 C 
ATOM     26  C   UNL d   1      27.036 -16.611  -0.188  0.00  0.00     0.017 C 
BRANCH  26  27
ATOM     27  C   UNL d   1      25.627 -16.989  -0.369  0.00  0.00    -0.036 A 
ATOM     28  C   UNL d   1      24.645 -16.068  -0.769  0.00  0.00     0.014 A 
ATOM     29  C   UNL d   1      23.302 -16.466  -0.896  0.00  0.00     0.037 A 
ATOM     30  C   UNL d   1      22.958 -17.809  -0.695  0.00  0.00     0.102 A 
ATOM     31  C   UNL d   1      23.920 -18.723  -0.256  0.00  0.00     0.037 A 
ATOM     32  C   UNL d   1      25.237 -18.302  -0.075  0.00  0.00     0.014 A 
BRANCH  30  33
ATOM     33  N   UNL d   1      21.605 -18.286  -1.017  0.00  0.00    -0.116 N 
ATOM     34  O   UNL d   1      20.691 -17.450  -1.057  0.00  0.00    -0.532 OA
ATOM     35  O   UNL d   1      21.465 -19.493  -1.265  0.00  0.00    -0.532 OA
ENDBRANCH  30  33
ENDBRANCH  26  27
ENDBRANCH  22  25
ENDBRANCH  19  21
ENDBRANCH   1  19
TORSDOF 11
ENDMDL
MODEL 2
REMARK VINA RESULT:    -8.308      7.229     10.075
REMARK INTER + INTRA:         -13.903
REMARK INTER:                 -11.589
REMARK INTRA:                  -2.314
REMARK CONF_INDEPENDENT:        3.281
REMARK UNBOUND:                -2.314
REMARK  11 active torsions:
REMARK  status: ('A' for Active; 'I' for Inactive)
REMARK    1  A    between atoms: C_2  and  C_3 
REMARK    2  A    between atoms: C_3  and  C_5 
REMARK    3  A    between atoms: C_10  and  O_11 
REMARK    4  A    between atoms: O_11  and  C_12 
REMARK    5  A    between atoms: C_12  and  C_13 
REMARK       I    between atoms: C_13  and  N_15 
REMARK    6  A    between atoms: N_15  and  N_16 
REMARK    7  A    between atoms: N_16  and  C_17 
REMARK    8  A    between atoms: C_17  and  N_19 
REMARK       I    between atoms: N_19  and  C_20 
REMARK    9  A    between atoms: C_20  and  C_22 
REMARK   10  A    between atoms: C_23  and  C_24 
REMARK   11  A    between atoms: C_27  and  N_28 
ROOT
ATOM      1  N   UNL d   1      26.647 -15.476  -1.873  0.00  0.00    -0.273 N 
ATOM      2  H   UNL d   1      26.038 -14.739  -1.528  0.00  0.00     0.189 HD
ENDROOT
BRANCH   1   3
ATOM      3  N   UNL d   1      27.094 -15.250  -3.183  0.00  0.00    -0.266 N 
ATOM      4  C   UNL d   1      26.222 -14.710  -4.142  0.00  0.00     0.260 C 
ATOM      5  O   UNL d   1      25.040 -14.430  -3.891  0.00  0.00    -0.269 OA
ATOM      6  H   UNL d   1      28.062 -15.545  -3.341  0.00  0.00     0.190 HD
BRANCH   4   7
ATOM      7  C   UNL d   1      26.890 -14.426  -5.486  0.00  0.00     0.280 C 
BRANCH   7   8
ATOM      8  O   UNL d   1      27.753 -15.161  -6.373  0.00  0.00    -0.341 OA
BRANCH   8   9
ATOM      9  C   UNL d   1      29.159 -15.315  -6.417  0.00  0.00     0.076 A 
ATOM     10  C   UNL d   1      29.755 -14.247  -7.133  0.00  0.00     0.037 A 
ATOM     11  C   UNL d   1      31.148 -14.156  -7.363  0.00  0.00     0.003 A 
ATOM     12  C   UNL d   1      32.017 -15.124  -6.886  0.00  0.00     0.001 A 
ATOM     13  C   UNL d   1      31.490 -16.201  -6.205  0.00  0.00     0.010 A 
ATOM     14  C   UNL d   1      30.104 -16.293  -5.902  0.00  0.00    -0.021 A 
BRANCH  14  15
ATOM     15  C   UNL d   1      29.878 -17.467  -4.926  0.00  0.00     0.017 C 
ATOM     16  C   UNL d   1      30.686 -17.350  -3.642  0.00  0.00     0.015 C 
BRANCH  15  17
ATOM     17  C   UNL d   1      30.426 -18.605  -5.645  0.00  0.00     0.004 C 
ATOM     18  C   UNL d   1      30.804 -19.927  -5.087  0.00  0.00     0.006 C 
ENDBRANCH  15  17
ENDBRANCH  14  15
ENDBRANCH   8   9
ENDBRANCH   7   8
ENDBRANCH   4   7
ENDBRANCH   1   3
BRANCH   1  19
ATOM     19  C   UNL d   1      27.019 -16.647  -1.202  0.00  0.00     0.193 C 
ATOM     20  S   UNL d   1      28.645 -16.992  -0.904  0.00  0.00    -0.039 SA
BRANCH  19  21
ATOM     21  N   UNL d   1      25.928 -17.455  -0.849  0.00  0.00    -0.299 N 
ATOM     22  C   UNL d   1      24.586 -17.072  -0.883  0.00  0.00     0.247 C 
ATOM     23  O   UNL d   1      24.176 -15.963  -1.209  0.00  0.00    -0.268 OA
ATOM     24  H   UNL d   1      26.153 -18.391  -0.548  0.00  0.00     0.171 HD
BRANCH  22  25
ATOM     25  C   UNL d   1      23.582 -18.101  -0.479  0.00  0.00     0.075 C 
ATOM     26  C   UNL d   1      22.277 -17.749  -0.458  0.00  0.00     0.017 C 
BRANCH  26  27
ATOM     27  C   UNL d   1      21.204 -18.652  -0.015  0.00  0.00    -0.036 A 
ATOM     28  C   UNL d   1      21.027 -19.009   1.332  0.00  0.00     0.014 A 
ATOM     29  C   UNL d   1      20.007 -19.902   1.705  0.00  0.00     0.037 A 
ATOM     30  C   UNL d   1      19.117 -20.380   0.735  0.00  0.00     0.102 A 
ATOM     31  C   UNL d   1      19.311 -20.063  -0.613  0.00  0.00     0.037 A 
ATOM     32  C   UNL d   1      20.363 -19.224  -0.978  0.00  0.00     0.014 A 
BRANCH  30  33
ATOM     33  N   UNL d   1      17.928 -21.149   1.130  0.00  0.00    -0.116 N 
ATOM     34  O   UNL d   1      17.665 -22.176   0.489  0.00  0.00    -0.532 OA
ATOM     35  O   UNL d   1      17.279 -20.743   2.105  0.00  0.00    -0.532 OA
ENDBRANCH  30  33
ENDBRANCH  26  27
ENDBRANCH  22  25
ENDBRANCH  19  21
ENDBRANCH   1  19
TORSDOF 11
ENDMDL
MODEL 3
REMARK VINA RESULT:    -8.160      0.833      2.311
REMARK INTER + INTRA:         -13.419
REMARK INTER:                 -11.441
REMARK INTRA:                  -1.978
REMARK CONF_INDEPENDENT:        3.281
REMARK UNBOUND:                -1.978
REMARK  11 active torsions:
REMARK  status: ('A' for Active; 'I' for Inactive)
REMARK    1  A    between atoms: C_2  and  C_3 
REMARK    2  A    between atoms: C_3  and  C_5 
REMARK    3  A    between atoms: C_10  and  O_11 
REMARK    4  A    between atoms: O_11  and  C_12 
REMARK    5  A    between atoms: C_12  and  C_13 
REMARK       I    between atoms: C_13  and  N_15 
REMARK    6  A    between atoms: N_15  and  N_16 
REMARK    7  A    between atoms: N_16  and  C_17 
REMARK    8  A    between atoms: C_17  and  N_19 
REMARK       I    between atoms: N_19  and  C_20 
REMARK    9  A    between atoms: C_20  and  C_22 
REMARK   10  A    between atoms: C_23  and  C_24 
REMARK   11  A    between atoms: C_27  and  N_28 
ROOT
ATOM      1  N   UNL d   1      30.973 -13.902   2.446  0.00  0.00    -0.273 N 
ATOM      2  H   UNL d   1      31.377 -12.974   2.351  0.00  0.00     0.189 HD
ENDROOT
BRANCH   1   3
ATOM      3  N   UNL d   1      30.716 -14.254   3.779  0.00  0.00    -0.266 N 
ATOM      4  C   UNL d   1      29.393 -14.344   4.241  0.00  0.00     0.260 C 
ATOM      5  O   UNL d   1      28.413 -14.106   3.519  0.00  0.00    -0.269 OA
ATOM      6  H   UNL d   1      31.565 -14.390   4.337  0.00  0.00     0.190 HD
BRANCH   4   7
ATOM      7  C   UNL d   1      29.281 -14.840   5.683  0.00  0.00     0.280 C 
BRANCH   7   8
ATOM      8  O   UNL d   1      28.541 -14.432   6.848  0.00  0.00    -0.341 OA
BRANCH   8   9
ATOM      9  C   UNL d   1      28.844 -13.528   7.895  0.00  0.00     0.076 A 
ATOM     10  C   UNL d   1      28.878 -14.204   9.141  0.00  0.00     0.037 A 
ATOM     11  C   UNL d   1      29.126 -13.543  10.368  0.00  0.00     0.003 A 
ATOM     12  C   UNL d   1      29.357 -12.178  10.411  0.00  0.00     0.001 A 
ATOM     13  C   UNL d   1      29.308 -11.465   9.232  0.00  0.00     0.010 A 
ATOM     14  C   UNL d   1      29.124 -12.104   7.976  0.00  0.00    -0.021 A 
BRANCH  14  15
ATOM     15  C   UNL d   1      29.370 -11.079   6.848  0.00  0.00     0.017 C 
ATOM     16  C   UNL d   1      29.253  -9.633   7.309  0.00  0.00     0.015 C 
BRANCH  15  17
ATOM     17  C   UNL d   1      28.256 -11.306   5.944  0.00  0.00     0.004 C 
ATOM     18  C   UNL d   1      27.866 -10.488   4.770  0.00  0.00     0.006 C 
ENDBRANCH  15  17
ENDBRANCH  14  15
ENDBRANCH   8   9
ENDBRANCH   7   8
ENDBRANCH   4   7
ENDBRANCH   1   3
BRANCH   1  19
ATOM     19  C   UNL d   1      30.706 -14.816   1.420  0.00  0.00     0.193 C 
ATOM     20  S   UNL d   1      31.940 -15.357   0.403  0.00  0.00    -0.039 SA
BRANCH  19  21
ATOM     21  N   UNL d   1      29.356 -15.187   1.345  0.00  0.00    -0.299 N 
ATOM     22  C   UNL d   1      28.584 -15.223   0.182  0.00  0.00     0.247 C 
ATOM     23  O   UNL d   1      28.978 -14.913  -0.937  0.00  0.00    -0.268 OA
ATOM     24  H   UNL d   1      28.922 -15.449   2.218  0.00  0.00     0.171 HD
BRANCH  22  25
ATOM     25  C   UNL d   1      27.166 -15.667   0.329  0.00  0.00     0.075 C 
ATOM     26  C   UNL d   1      26.675 -16.553  -0.566  0.00  0.00     0.017 C 
BRANCH  26  27
ATOM     27  C   UNL d   1      25.278 -17.014  -0.565  0.00  0.00    -0.036 A 
ATOM     28  C   UNL d   1      24.207 -16.173  -0.910  0.00  0.00     0.014 A 
ATOM     29  C   UNL d   1      22.884 -16.647  -0.863  0.00  0.00     0.037 A 
ATOM     30  C   UNL d   1      22.642 -17.989  -0.541  0.00  0.00     0.102 A 
ATOM     31  C   UNL d   1      23.697 -18.821  -0.156  0.00  0.00     0.037 A 
ATOM     32  C   UNL d   1      25.000 -18.322  -0.149  0.00  0.00     0.014 A 
BRANCH  30  33
ATOM     33  N   UNL d   1      21.292 -18.556  -0.682  0.00  0.00    -0.116 N 
ATOM     34  O   UNL d   1      20.407 -17.829  -1.153  0.00  0.00    -0.532 OA
ATOM     35  O   UNL d   1      21.129 -19.740  -0.351  0.00  0.00    -0.532 OA
ENDBRANCH  30  33
ENDBRANCH  26  27
ENDBRANCH  22  25
ENDBRANCH  19  21
ENDBRANCH   1  19
TORSDOF 11
ENDMDL
MODEL 4
REMARK VINA RESULT:    -7.923      7.337     10.375
REMARK INTER + INTRA:         -13.774
REMARK INTER:                 -11.204
REMARK INTRA:                  -2.570
REMARK CONF_INDEPENDENT:        3.281
REMARK UNBOUND:                -2.570
REMARK  11 active torsions:
REMARK  status: ('A' for Active; 'I' for Inactive)
REMARK    1  A    between atoms: C_2  and  C_3 
REMARK    2  A    between atoms: C_3  and  C_5 
REMARK    3  A    between atoms: C_10  and  O_11 
REMARK    4  A    between atoms: O_11  and  C_12 
REMARK    5  A    between atoms: C_12  and  C_13 
REMARK       I    between atoms: C_13  and  N_15 
REMARK    6  A    between atoms: N_15  and  N_16 
REMARK    7  A    between atoms: N_16  and  C_17 
REMARK    8  A    between atoms: C_17  and  N_19 
REMARK       I    between atoms: N_19  and  C_20 
REMARK    9  A    between atoms: C_20  and  C_22 
REMARK   10  A    between atoms: C_23  and  C_24 
REMARK   11  A    between atoms: C_27  and  N_28 
ROOT
ATOM      1  N   UNL d   1      27.151 -16.008  -2.608  0.00  0.00    -0.273 N 
ATOM      2  H   UNL d   1      26.283 -15.627  -2.977  0.00  0.00     0.189 HD
ENDROOT
BRANCH   1   3
ATOM      3  N   UNL d   1      28.237 -15.847  -3.481  0.00  0.00    -0.266 N 
ATOM      4  C   UNL d   1      28.013 -15.569  -4.839  0.00  0.00     0.260 C 
ATOM      5  O   UNL d   1      26.876 -15.473  -5.326  0.00  0.00    -0.269 OA
ATOM      6  H   UNL d   1      29.146 -15.986  -3.031  0.00  0.00     0.190 HD
BRANCH   4   7
ATOM      7  C   UNL d   1      29.295 -15.317  -5.632  0.00  0.00     0.280 C 
BRANCH   7   8
ATOM      8  O   UNL d   1      30.514 -16.047  -5.859  0.00  0.00    -0.341 OA
BRANCH   8   9
ATOM      9  C   UNL d   1      30.761 -17.359  -6.330  0.00  0.00     0.076 A 
ATOM     10  C   UNL d   1      31.212 -17.330  -7.673  0.00  0.00     0.037 A 
ATOM     11  C   UNL d   1      31.506 -18.500  -8.413  0.00  0.00     0.003 A 
ATOM     12  C   UNL d   1      31.369 -19.757  -7.847  0.00  0.00     0.001 A 
ATOM     13  C   UNL d   1      30.907 -19.848  -6.551  0.00  0.00     0.010 A 
ATOM     14  C   UNL d   1      30.662 -18.693  -5.759  0.00  0.00    -0.021 A 
BRANCH  14  15
ATOM     15  C   UNL d   1      30.405 -19.127  -4.300  0.00  0.00     0.017 C 
ATOM     16  C   UNL d   1      30.764 -18.057  -3.279  0.00  0.00     0.015 C 
BRANCH  15  17
ATOM     17  C   UNL d   1      31.356 -20.208  -4.104  0.00  0.00     0.004 C 
ATOM     18  C   UNL d   1      32.496 -20.245  -3.156  0.00  0.00     0.006 C 
ENDBRANCH  15  17
ENDBRANCH  14  15
ENDBRANCH   8   9
ENDBRANCH   7   8
ENDBRANCH   4   7
ENDBRANCH   1   3
BRANCH   1  19
ATOM     19  C   UNL d   1      27.329 -16.675  -1.390  0.00  0.00     0.193 C 
ATOM     20  S   UNL d   1      28.787 -16.556  -0.546  0.00  0.00    -0.039 SA
BRANCH  19  21
ATOM     21  N   UNL d   1      26.210 -17.423  -0.998  0.00  0.00    -0.299 N 
ATOM     22  C   UNL d   1      24.880 -17.110  -1.284  0.00  0.00     0.247 C 
ATOM     23  O   UNL d   1      24.504 -16.120  -1.902  0.00  0.00    -0.268 OA
ATOM     24  H   UNL d   1      26.404 -18.258  -0.466  0.00  0.00     0.171 HD
BRANCH  22  25
ATOM     25  C   UNL d   1      23.842 -18.060  -0.782  0.00  0.00     0.075 C 
ATOM     26  C   UNL d   1      22.542 -17.708  -0.897  0.00  0.00     0.017 C 
BRANCH  26  27
ATOM     27  C   UNL d   1      21.434 -18.527  -0.382  0.00  0.00    -0.036 A 
ATOM     28  C   UNL d   1      21.369 -18.950   0.956  0.00  0.00     0.014 A 
ATOM     29  C   UNL d   1      20.307 -19.760   1.397  0.00  0.00     0.037 A 
ATOM     30  C   UNL d   1      19.271 -20.084   0.512  0.00  0.00     0.102 A 
ATOM     31  C   UNL d   1      19.349 -19.703  -0.831  0.00  0.00     0.037 A 
ATOM     32  C   UNL d   1      20.438 -18.950  -1.270  0.00  0.00     0.014 A 
BRANCH  30  33
ATOM     33  N   UNL d   1      18.058 -20.756   1.001  0.00  0.00    -0.116 N 
ATOM     34  O   UNL d   1      17.531 -21.603   0.267  0.00  0.00    -0.532 OA
ATOM     35  O   UNL d   1      17.655 -20.460   2.135  0.00  0.00    -0.532 OA
ENDBRANCH  30  33
ENDBRANCH  26  27
ENDBRANCH  22  25
ENDBRANCH  19  21
ENDBRANCH   1  19
TORSDOF 11
ENDMDL
MODEL 5
REMARK VINA RESULT:    -7.654      6.258      9.021
REMARK INTER + INTRA:         -14.044
REMARK INTER:                 -10.935
REMARK INTRA:                  -3.109
REMARK CONF_INDEPENDENT:        3.281
REMARK UNBOUND:                -3.109
REMARK  11 active torsions:
REMARK  status: ('A' for Active; 'I' for Inactive)
REMARK    1  A    between atoms: C_2  and  C_3 
REMARK    2  A    between atoms: C_3  and  C_5 
REMARK    3  A    between atoms: C_10  and  O_11 
REMARK    4  A    between atoms: O_11  and  C_12 
REMARK    5  A    between atoms: C_12  and  C_13 
REMARK       I    between atoms: C_13  and  N_15 
REMARK    6  A    between atoms: N_15  and  N_16 
REMARK    7  A    between atoms: N_16  and  C_17 
REMARK    8  A    between atoms: C_17  and  N_19 
REMARK       I    between atoms: N_19  and  C_20 
REMARK    9  A    between atoms: C_20  and  C_22 
REMARK   10  A    between atoms: C_23  and  C_24 
REMARK   11  A    between atoms: C_27  and  N_28 
ROOT
ATOM      1  N   UNL d   1      31.321 -16.861  -1.488  0.00  0.00    -0.273 N 
ATOM      2  H   UNL d   1      32.291 -17.153  -1.584  0.00  0.00     0.189 HD
ENDROOT
BRANCH   1   3
ATOM      3  N   UNL d   1      30.688 -16.652  -2.722  0.00  0.00    -0.266 N 
ATOM      4  C   UNL d   1      31.174 -17.280  -3.879  0.00  0.00     0.260 C 
ATOM      5  O   UNL d   1      32.172 -18.018  -3.873  0.00  0.00    -0.269 OA
ATOM      6  H   UNL d   1      29.902 -15.997  -2.671  0.00  0.00     0.190 HD
BRANCH   4   7
ATOM      7  C   UNL d   1      30.312 -17.036  -5.117  0.00  0.00     0.280 C 
BRANCH   7   8
ATOM      8  O   UNL d   1      29.019 -16.454  -5.362  0.00  0.00    -0.341 OA
BRANCH   8   9
ATOM      9  C   UNL d   1      28.620 -15.142  -5.711  0.00  0.00     0.076 A 
ATOM     10  C   UNL d   1      29.277 -14.720  -6.894  0.00  0.00     0.037 A 
ATOM     11  C   UNL d   1      29.094 -13.436  -7.461  0.00  0.00     0.003 A 
ATOM     12  C   UNL d   1      28.243 -12.511  -6.877  0.00  0.00     0.001 A 
ATOM     13  C   UNL d   1      27.598 -12.857  -5.709  0.00  0.00     0.010 A 
ATOM     14  C   UNL d   1      27.710 -14.158  -5.147  0.00  0.00    -0.021 A 
BRANCH  14  15
ATOM     15  C   UNL d   1      26.682 -14.303  -4.004  0.00  0.00     0.017 C 
ATOM     16  C   UNL d   1      25.796 -15.533  -4.140  0.00  0.00     0.015 C 
BRANCH  15  17
ATOM     17  C   UNL d   1      25.812 -13.155  -4.192  0.00  0.00     0.004 C 
ATOM     18  C   UNL d   1      25.531 -12.068  -3.223  0.00  0.00     0.006 C 
ENDBRANCH  15  17
ENDBRANCH  14  15
ENDBRANCH   8   9
ENDBRANCH   7   8
ENDBRANCH   4   7
ENDBRANCH   1   3
BRANCH   1  19
ATOM     19  C   UNL d   1      30.624 -16.625  -0.298  0.00  0.00     0.193 C 
ATOM     20  S   UNL d   1      31.354 -15.801   0.982  0.00  0.00    -0.039 SA
BRANCH  19  21
ATOM     21  N   UNL d   1      29.323 -17.149  -0.305  0.00  0.00    -0.299 N 
ATOM     22  C   UNL d   1      28.212 -16.564  -0.916  0.00  0.00     0.247 C 
ATOM     23  O   UNL d   1      28.217 -15.494  -1.515  0.00  0.00    -0.268 OA
ATOM     24  H   UNL d   1      29.199 -18.026   0.178  0.00  0.00     0.171 HD
BRANCH  22  25
ATOM     25  C   UNL d   1      26.920 -17.305  -0.814  0.00  0.00     0.075 C 
ATOM     26  C   UNL d   1      25.772 -16.624  -1.029  0.00  0.00     0.017 C 
BRANCH  26  27
ATOM     27  C   UNL d   1      24.437 -17.227  -0.893  0.00  0.00    -0.036 A 
ATOM     28  C   UNL d   1      23.255 -16.487  -1.068  0.00  0.00     0.014 A 
ATOM     29  C   UNL d   1      22.000 -17.096  -0.895  0.00  0.00     0.037 A 
ATOM     30  C   UNL d   1      21.930 -18.468  -0.619  0.00  0.00     0.102 A 
ATOM     31  C   UNL d   1      23.099 -19.202  -0.402  0.00  0.00     0.037 A 
ATOM     32  C   UNL d   1      24.338 -18.572  -0.518  0.00  0.00     0.014 A 
BRANCH  30  33
ATOM     33  N   UNL d   1      20.635 -19.164  -0.634  0.00  0.00    -0.116 N 
ATOM     34  O   UNL d   1      19.955 -19.142   0.401  0.00  0.00    -0.532 OA
ATOM     35  O   UNL d   1      20.284 -19.703  -1.694  0.00  0.00    -0.532 OA
ENDBRANCH  30  33
ENDBRANCH  26  27
ENDBRANCH  22  25
ENDBRANCH  19  21
ENDBRANCH   1  19
TORSDOF 11
ENDMDL
MODEL 6
REMARK VINA RESULT:    -7.612      6.327      9.455
REMARK INTER + INTRA:         -13.521
REMARK INTER:                 -10.893
REMARK INTRA:                  -2.628
REMARK CONF_INDEPENDENT:        3.281
REMARK UNBOUND:                -2.628
REMARK  11 active torsions:
REMARK  status: ('A' for Active; 'I' for Inactive)
REMARK    1  A    between atoms: C_2  and  C_3 
REMARK    2  A    between atoms: C_3  and  C_5 
REMARK    3  A    between atoms: C_10  and  O_11 
REMARK    4  A    between atoms: O_11  and  C_12 
REMARK    5  A    between atoms: C_12  and  C_13 
REMARK       I    between atoms: C_13  and  N_15 
REMARK    6  A    between atoms: N_15  and  N_16 
REMARK    7  A    between atoms: N_16  and  C_17 
REMARK    8  A    between atoms: C_17  and  N_19 
REMARK       I    between atoms: N_19  and  C_20 
REMARK    9  A    between atoms: C_20  and  C_22 
REMARK   10  A    between atoms: C_23  and  C_24 
REMARK   11  A    between atoms: C_27  and  N_28 
ROOT
ATOM      1  N   UNL d   1      28.333 -16.744  -0.708  0.00  0.00    -0.273 N 
ATOM      2  H   UNL d   1      29.209 -17.211  -0.484  0.00  0.00     0.189 HD
ENDROOT
BRANCH   1   3
ATOM      3  N   UNL d   1      28.164 -16.525  -2.083  0.00  0.00    -0.266 N 
ATOM      4  C   UNL d   1      29.284 -16.426  -2.923  0.00  0.00     0.260 C 
ATOM      5  O   UNL d   1      30.448 -16.506  -2.502  0.00  0.00    -0.269 OA
ATOM      6  H   UNL d   1      27.184 -16.419  -2.362  0.00  0.00     0.190 HD
BRANCH   4   7
ATOM      7  C   UNL d   1      28.928 -16.295  -4.404  0.00  0.00     0.280 C 
BRANCH   7   8
ATOM      8  O   UNL d   1      27.924 -15.587  -5.154  0.00  0.00    -0.341 OA
BRANCH   8   9
ATOM      9  C   UNL d   1      27.302 -14.331  -4.956  0.00  0.00     0.076 A 
ATOM     10  C   UNL d   1      26.020 -14.498  -4.372  0.00  0.00     0.037 A 
ATOM     11  C   UNL d   1      25.156 -13.413  -4.090  0.00  0.00     0.003 A 
ATOM     12  C   UNL d   1      25.530 -12.109  -4.371  0.00  0.00     0.001 A 
ATOM     13  C   UNL d   1      26.755 -11.889  -4.964  0.00  0.00     0.010 A 
ATOM     14  C   UNL d   1      27.673 -12.948  -5.204  0.00  0.00    -0.021 A 
BRANCH  14  15
ATOM     15  C   UNL d   1      29.030 -12.350  -5.634  0.00  0.00     0.017 C 
ATOM     16  C   UNL d   1      28.905 -10.993  -6.312  0.00  0.00     0.015 C 
BRANCH  15  17
ATOM     17  C   UNL d   1      29.489 -13.272  -6.658  0.00  0.00     0.004 C 
ATOM     18  C   UNL d   1      29.872 -12.951  -8.055  0.00  0.00     0.006 C 
ENDBRANCH  15  17
ENDBRANCH  14  15
ENDBRANCH   8   9
ENDBRANCH   7   8
ENDBRANCH   4   7
ENDBRANCH   1   3
BRANCH   1  19
ATOM     19  C   UNL d   1      27.362 -16.293   0.194  0.00  0.00     0.193 C 
ATOM     20  S   UNL d   1      27.619 -14.901   1.115  0.00  0.00    -0.039 SA
BRANCH  19  21
ATOM     21  N   UNL d   1      26.225 -17.112   0.240  0.00  0.00    -0.299 N 
ATOM     22  C   UNL d   1      25.296 -17.274  -0.790  0.00  0.00     0.247 C 
ATOM     23  O   UNL d   1      25.335 -16.702  -1.874  0.00  0.00    -0.268 OA
ATOM     24  H   UNL d   1      26.084 -17.622   1.099  0.00  0.00     0.171 HD
BRANCH  22  25
ATOM     25  C   UNL d   1      24.163 -18.213  -0.533  0.00  0.00     0.075 C 
ATOM     26  C   UNL d   1      22.903 -17.726  -0.582  0.00  0.00     0.017 C 
BRANCH  26  27
ATOM     27  C   UNL d   1      21.712 -18.535  -0.283  0.00  0.00    -0.036 A 
ATOM     28  C   UNL d   1      21.391 -18.950   1.020  0.00  0.00     0.014 A 
ATOM     29  C   UNL d   1      20.259 -19.751   1.255  0.00  0.00     0.037 A 
ATOM     30  C   UNL d   1      19.407 -20.073   0.191  0.00  0.00     0.102 A 
ATOM     31  C   UNL d   1      19.741 -19.700  -1.114  0.00  0.00     0.037 A 
ATOM     32  C   UNL d   1      20.899 -18.956  -1.342  0.00  0.00     0.014 A 
BRANCH  30  33
ATOM     33  N   UNL d   1      18.119 -20.735   0.443  0.00  0.00    -0.116 N 
ATOM     34  O   UNL d   1      17.358 -20.906  -0.519  0.00  0.00    -0.532 OA
ATOM     35  O   UNL d   1      17.885 -21.114   1.600  0.00  0.00    -0.532 OA
ENDBRANCH  30  33
ENDBRANCH  26  27
ENDBRANCH  22  25
ENDBRANCH  19  21
ENDBRANCH   1  19
TORSDOF 11
ENDMDL
MODEL 7
REMARK VINA RESULT:    -7.548      2.757      4.193
REMARK INTER + INTRA:         -13.606
REMARK INTER:                 -10.829
REMARK INTRA:                  -2.776
REMARK CONF_INDEPENDENT:        3.281
REMARK UNBOUND:                -2.776
REMARK  11 active torsions:
REMARK  status: ('A' for Active; 'I' for Inactive)
REMARK    1  A    between atoms: C_2  and  C_3 
REMARK    2  A    between atoms: C_3  and  C_5 
REMARK    3  A    between atoms: C_10  and  O_11 
REMARK    4  A    between atoms: O_11  and  C_12 
REMARK    5  A    between atoms: C_12  and  C_13 
REMARK       I    between atoms: C_13  and  N_15 
REMARK    6  A    between atoms: N_15  and  N_16 
REMARK    7  A    between atoms: N_16  and  C_17 
REMARK    8  A    between atoms: C_17  and  N_19 
REMARK       I    between atoms: N_19  and  C_20 
REMARK    9  A    between atoms: C_20  and  C_22 
REMARK   10  A    between atoms: C_23  and  C_24 
REMARK   11  A    between atoms: C_27  and  N_28 
ROOT
ATOM      1  N   UNL d   1      30.680 -15.915  -0.420  0.00  0.00    -0.273 N 
ATOM      2  H   UNL d   1      30.835 -15.345  -1.248  0.00  0.00     0.189 HD
ENDROOT
BRANCH   1   3
ATOM      3  N   UNL d   1      30.850 -15.201   0.775  0.00  0.00    -0.266 N 
ATOM      4  C   UNL d   1      31.723 -14.103   0.822  0.00  0.00     0.260 C 
ATOM      5  O   UNL d   1      32.383 -13.728  -0.160  0.00  0.00    -0.269 OA
ATOM      6  H   UNL d   1      30.317 -15.587   1.560  0.00  0.00     0.190 HD
BRANCH   4   7
ATOM      7  C   UNL d   1      31.715 -13.371   2.164  0.00  0.00     0.280 C 
BRANCH   7   8
ATOM      8  O   UNL d   1      30.702 -12.783   3.000  0.00  0.00    -0.341 OA
BRANCH   8   9
ATOM      9  C   UNL d   1      29.598 -13.342   3.687  0.00  0.00     0.076 A 
ATOM     10  C   UNL d   1      30.034 -14.069   4.823  0.00  0.00     0.037 A 
ATOM     11  C   UNL d   1      29.147 -14.762   5.681  0.00  0.00     0.003 A 
ATOM     12  C   UNL d   1      27.780 -14.760   5.450  0.00  0.00     0.001 A 
ATOM     13  C   UNL d   1      27.302 -14.092   4.343  0.00  0.00     0.010 A 
ATOM     14  C   UNL d   1      28.156 -13.334   3.496  0.00  0.00    -0.021 A 
BRANCH  14  15
ATOM     15  C   UNL d   1      27.293 -12.512   2.515  0.00  0.00     0.017 C 
ATOM     16  C   UNL d   1      28.022 -12.145   1.230  0.00  0.00     0.015 C 
BRANCH  15  17
ATOM     17  C   UNL d   1      27.077 -11.265   3.227  0.00  0.00     0.004 C 
ATOM     18  C   UNL d   1      28.099 -10.269   3.632  0.00  0.00     0.006 C 
ENDBRANCH  15  17
ENDBRANCH  14  15
ENDBRANCH   8   9
ENDBRANCH   7   8
ENDBRANCH   4   7
ENDBRANCH   1   3
BRANCH   1  19
ATOM     19  C   UNL d   1      30.368 -17.279  -0.380  0.00  0.00     0.193 C 
ATOM     20  S   UNL d   1      31.574 -18.445  -0.567  0.00  0.00    -0.039 SA
BRANCH  19  21
ATOM     21  N   UNL d   1      29.002 -17.530  -0.191  0.00  0.00    -0.299 N 
ATOM     22  C   UNL d   1      28.072 -16.630   0.333  0.00  0.00     0.247 C 
ATOM     23  O   UNL d   1      28.329 -15.496   0.721  0.00  0.00    -0.268 OA
ATOM     24  H   UNL d   1      28.681 -18.447  -0.464  0.00  0.00     0.171 HD
BRANCH  22  25
ATOM     25  C   UNL d   1      26.659 -17.102   0.430  0.00  0.00     0.075 C 
ATOM     26  C   UNL d   1      25.926 -17.171  -0.704  0.00  0.00     0.017 C 
BRANCH  26  27
ATOM     27  C   UNL d   1      24.507 -17.557  -0.728  0.00  0.00    -0.036 A 
ATOM     28  C   UNL d   1      23.475 -16.623  -0.913  0.00  0.00     0.014 A 
ATOM     29  C   UNL d   1      22.130 -17.032  -0.895  0.00  0.00     0.037 A 
ATOM     30  C   UNL d   1      21.824 -18.393  -0.766  0.00  0.00     0.102 A 
ATOM     31  C   UNL d   1      22.842 -19.324  -0.540  0.00  0.00     0.037 A 
ATOM     32  C   UNL d   1      24.169 -18.897  -0.500  0.00  0.00     0.014 A 
BRANCH  30  33
ATOM     33  N   UNL d   1      20.443 -18.865  -0.947  0.00  0.00    -0.116 N 
ATOM     34  O   UNL d   1      20.267 -20.073  -1.155  0.00  0.00    -0.532 OA
ATOM     35  O   UNL d   1      19.533 -18.030  -0.844  0.00  0.00    -0.532 OA
ENDBRANCH  30  33
ENDBRANCH  26  27
ENDBRANCH  22  25
ENDBRANCH  19  21
ENDBRANCH   1  19
TORSDOF 11
ENDMDL
MODEL 8
REMARK VINA RESULT:    -7.488      6.898     10.007
REMARK INTER + INTRA:         -13.673
REMARK INTER:                 -10.769
REMARK INTRA:                  -2.904
REMARK CONF_INDEPENDENT:        3.281
REMARK UNBOUND:                -2.904
REMARK  11 active torsions:
REMARK  status: ('A' for Active; 'I' for Inactive)
REMARK    1  A    between atoms: C_2  and  C_3 
REMARK    2  A    between atoms: C_3  and  C_5 
REMARK    3  A    between atoms: C_10  and  O_11 
REMARK    4  A    between atoms: O_11  and  C_12 
REMARK    5  A    between atoms: C_12  and  C_13 
REMARK       I    between atoms: C_13  and  N_15 
REMARK    6  A    between atoms: N_15  and  N_16 
REMARK    7  A    between atoms: N_16  and  C_17 
REMARK    8  A    between atoms: C_17  and  N_19 
REMARK       I    between atoms: N_19  and  C_20 
REMARK    9  A    between atoms: C_20  and  C_22 
REMARK   10  A    between atoms: C_23  and  C_24 
REMARK   11  A    between atoms: C_27  and  N_28 
ROOT
ATOM      1  N   UNL d   1      28.295 -12.891  -6.651  0.00  0.00    -0.273 N 
ATOM      2  H   UNL d   1      29.010 -13.560  -6.924  0.00  0.00     0.189 HD
ENDROOT
BRANCH   1   3
ATOM      3  N   UNL d   1      27.157 -13.498  -6.099  0.00  0.00    -0.266 N 
ATOM      4  C   UNL d   1      27.184 -14.856  -5.747  0.00  0.00     0.260 C 
ATOM      5  O   UNL d   1      28.182 -15.574  -5.919  0.00  0.00    -0.269 OA
ATOM      6  H   UNL d   1      26.352 -12.868  -6.028  0.00  0.00     0.190 HD
BRANCH   4   7
ATOM      7  C   UNL d   1      25.905 -15.338  -5.063  0.00  0.00     0.280 C 
BRANCH   7   8
ATOM      8  O   UNL d   1      25.171 -14.954  -3.886  0.00  0.00    -0.341 OA
BRANCH   8   9
ATOM      9  C   UNL d   1      25.554 -14.827  -2.529  0.00  0.00     0.076 A 
ATOM     10  C   UNL d   1      26.182 -13.576  -2.304  0.00  0.00     0.037 A 
ATOM     11  C   UNL d   1      26.697 -13.188  -1.044  0.00  0.00     0.003 A 
ATOM     12  C   UNL d   1      26.606 -14.027   0.055  0.00  0.00     0.001 A 
ATOM     13  C   UNL d   1      26.029 -15.268  -0.112  0.00  0.00     0.010 A 
ATOM     14  C   UNL d   1      25.447 -15.666  -1.346  0.00  0.00    -0.021 A 
BRANCH  14  15
ATOM     15  C   UNL d   1      24.672 -16.984  -1.136  0.00  0.00     0.017 C 
ATOM     16  C   UNL d   1      23.218 -16.774  -0.737  0.00  0.00     0.015 C 
BRANCH  15  17
ATOM     17  C   UNL d   1      25.326 -17.573   0.019  0.00  0.00     0.004 C 
ATOM     18  C   UNL d   1      26.642 -18.257   0.059  0.00  0.00     0.006 C 
ENDBRANCH  15  17
ENDBRANCH  14  15
ENDBRANCH   8   9
ENDBRANCH   7   8
ENDBRANCH   4   7
ENDBRANCH   1   3
BRANCH   1  19
ATOM     19  C   UNL d   1      28.335 -11.500  -6.810  0.00  0.00     0.193 C 
ATOM     20  S   UNL d   1      28.989 -10.809  -8.205  0.00  0.00    -0.039 SA
BRANCH  19  21
ATOM     21  N   UNL d   1      27.806 -10.802  -5.715  0.00  0.00    -0.299 N 
ATOM     22  C   UNL d   1      26.449 -10.587  -5.463  0.00  0.00     0.247 C 
ATOM     23  O   UNL d   1      25.530 -10.964  -6.181  0.00  0.00    -0.268 OA
ATOM     24  H   UNL d   1      28.480 -10.431  -5.063  0.00  0.00     0.171 HD
BRANCH  22  25
ATOM     25  C   UNL d   1      26.107  -9.828  -4.224  0.00  0.00     0.075 C 
ATOM     26  C   UNL d   1      26.957  -9.898  -3.174  0.00  0.00     0.017 C 
BRANCH  26  27
ATOM     27  C   UNL d   1      26.698  -9.250  -1.880  0.00  0.00    -0.036 A 
ATOM     28  C   UNL d   1      25.893  -8.105  -1.758  0.00  0.00     0.014 A 
ATOM     29  C   UNL d   1      25.701  -7.499  -0.503  0.00  0.00     0.037 A 
ATOM     30  C   UNL d   1      26.257  -8.086   0.641  0.00  0.00     0.102 A 
ATOM     31  C   UNL d   1      27.093  -9.200   0.523  0.00  0.00     0.037 A 
ATOM     32  C   UNL d   1      27.324  -9.757  -0.735  0.00  0.00     0.014 A 
BRANCH  30  33
ATOM     33  N   UNL d   1      25.904  -7.588   1.978  0.00  0.00    -0.116 N 
ATOM     34  O   UNL d   1      25.214  -6.562   2.049  0.00  0.00    -0.532 OA
ATOM     35  O   UNL d   1      26.290  -8.245   2.956  0.00  0.00    -0.532 OA
ENDBRANCH  30  33
ENDBRANCH  26  27
ENDBRANCH  22  25
ENDBRANCH  19  21
ENDBRANCH   1  19
TORSDOF 11
ENDMDL
MODEL 9
REMARK VINA RESULT:    -7.450      6.423      8.830
REMARK INTER + INTRA:         -14.111
REMARK INTER:                 -10.732
REMARK INTRA:                  -3.380
REMARK CONF_INDEPENDENT:        3.281
REMARK UNBOUND:                -3.380
REMARK  11 active torsions:
REMARK  status: ('A' for Active; 'I' for Inactive)
REMARK    1  A    between atoms: C_2  and  C_3 
REMARK    2  A    between atoms: C_3  and  C_5 
REMARK    3  A    between atoms: C_10  and  O_11 
REMARK    4  A    between atoms: O_11  and  C_12 
REMARK    5  A    between atoms: C_12  and  C_13 
REMARK       I    between atoms: C_13  and  N_15 
REMARK    6  A    between atoms: N_15  and  N_16 
REMARK    7  A    between atoms: N_16  and  C_17 
REMARK    8  A    between atoms: C_17  and  N_19 
REMARK       I    between atoms: N_19  and  C_20 
REMARK    9  A    between atoms: C_20  and  C_22 
REMARK   10  A    between atoms: C_23  and  C_24 
REMARK   11  A    between atoms: C_27  and  N_28 
ROOT
ATOM      1  N   UNL d   1      30.916 -16.745  -2.014  0.00  0.00    -0.273 N 
ATOM      2  H   UNL d   1      31.859 -16.909  -2.358  0.00  0.00     0.189 HD
ENDROOT
BRANCH   1   3
ATOM      3  N   UNL d   1      30.004 -16.446  -3.038  0.00  0.00    -0.266 N 
ATOM      4  C   UNL d   1      30.438 -16.380  -4.371  0.00  0.00     0.260 C 
ATOM      5  O   UNL d   1      31.621 -16.559  -4.701  0.00  0.00    -0.269 OA
ATOM      6  H   UNL d   1      29.056 -16.261  -2.698  0.00  0.00     0.190 HD
BRANCH   4   7
ATOM      7  C   UNL d   1      29.307 -16.151  -5.373  0.00  0.00     0.280 C 
BRANCH   7   8
ATOM      8  O   UNL d   1      27.886 -15.941  -5.278  0.00  0.00    -0.341 OA
BRANCH   8   9
ATOM      9  C   UNL d   1      27.118 -14.835  -4.842  0.00  0.00     0.076 A 
ATOM     10  C   UNL d   1      26.046 -15.267  -4.021  0.00  0.00     0.037 A 
ATOM     11  C   UNL d   1      25.093 -14.378  -3.468  0.00  0.00     0.003 A 
ATOM     12  C   UNL d   1      25.166 -13.015  -3.703  0.00  0.00     0.001 A 
ATOM     13  C   UNL d   1      26.172 -12.541  -4.518  0.00  0.00     0.010 A 
ATOM     14  C   UNL d   1      27.181 -13.396  -5.039  0.00  0.00    -0.021 A 
BRANCH  14  15
ATOM     15  C   UNL d   1      28.286 -12.535  -5.688  0.00  0.00     0.017 C 
ATOM     16  C   UNL d   1      28.383 -12.714  -7.197  0.00  0.00     0.015 C 
BRANCH  15  17
ATOM     17  C   UNL d   1      29.508 -13.091  -5.136  0.00  0.00     0.004 C 
ATOM     18  C   UNL d   1      30.282 -12.592  -3.973  0.00  0.00     0.006 C 
ENDBRANCH  15  17
ENDBRANCH  14  15
ENDBRANCH   8   9
ENDBRANCH   7   8
ENDBRANCH   4   7
ENDBRANCH   1   3
BRANCH   1  19
ATOM     19  C   UNL d   1      30.489 -16.753  -0.681  0.00  0.00     0.193 C 
ATOM     20  S   UNL d   1      31.519 -16.249   0.558  0.00  0.00    -0.039 SA
BRANCH  19  21
ATOM     21  N   UNL d   1      29.177 -17.223  -0.522  0.00  0.00    -0.299 N 
ATOM     22  C   UNL d   1      28.014 -16.500  -0.793  0.00  0.00     0.247 C 
ATOM     23  O   UNL d   1      27.979 -15.340  -1.190  0.00  0.00    -0.268 OA
ATOM     24  H   UNL d   1      29.087 -18.169  -0.182  0.00  0.00     0.171 HD
BRANCH  22  25
ATOM     25  C   UNL d   1      26.716 -17.204  -0.568  0.00  0.00     0.075 C 
ATOM     26  C   UNL d   1      25.620 -16.750  -1.215  0.00  0.00     0.017 C 
BRANCH  26  27
ATOM     27  C   UNL d   1      24.276 -17.316  -1.026  0.00  0.00    -0.036 A 
ATOM     28  C   UNL d   1      23.110 -16.537  -1.117  0.00  0.00     0.014 A 
ATOM     29  C   UNL d   1      21.848 -17.114  -0.895  0.00  0.00     0.037 A 
ATOM     30  C   UNL d   1      21.750 -18.491  -0.654  0.00  0.00     0.102 A 
ATOM     31  C   UNL d   1      22.906 -19.265  -0.519  0.00  0.00     0.037 A 
ATOM     32  C   UNL d   1      24.156 -18.668  -0.683  0.00  0.00     0.014 A 
BRANCH  30  33
ATOM     33  N   UNL d   1      20.435 -19.148  -0.619  0.00  0.00    -0.116 N 
ATOM     34  O   UNL d   1      19.716 -18.950   0.370  0.00  0.00    -0.532 OA
ATOM     35  O   UNL d   1      20.109 -19.834  -1.599  0.00  0.00    -0.532 OA
ENDBRANCH  30  33
ENDBRANCH  26  27
ENDBRANCH  22  25
ENDBRANCH  19  21
ENDBRANCH   1  19
TORSDOF 11
ENDMDL
