MODEL 1
REMARK VINA RESULT:   -29.004      0.000      0.000
REMARK INTER + INTRA:         -32.697
REMARK INTER:                 -30.793
REMARK INTRA:                  -1.904
REMARK CONF_INDEPENDENT:        1.790
REMARK UNBOUND:                -1.904
REMARK  6 active torsions:
REMARK  status: ('A' for Active; 'I' for Inactive)
REMARK       I    between atoms: C_2  and  N_3 
REMARK    1  A    between atoms: C_9  and  C_2 
REMARK    2  A    between atoms: N_3  and  C_4 
REMARK    3  A    between atoms: C_11  and  O_12 
REMARK    4  A    between atoms: C_13  and  O_14 
REMARK    5  A    between atoms: C_17  and  N_18 
REMARK    6  A    between atoms: N_18  and  C_19 
ROOT
ATOM      1  C   UNL d   1      23.964 -16.486  -1.024  0.00  0.00     0.097 C 
ATOM      2  C   UNL d   1      24.848 -16.612   0.229  0.00  0.00     0.049 C 
ATOM      3  C   UNL d   1      25.983 -17.616   0.040  0.00  0.00     0.149 C 
ATOM      4  C   UNL d   1      26.925 -17.112  -1.060  0.00  0.00     0.172 C 
ATOM      5  C   UNL d   1      26.221 -16.689  -2.386  0.00  0.00     0.157 C 
ATOM      6  N   UNL d   1      27.059 -15.682  -3.108  0.00  0.00    -0.258 NA
ATOM      7  C   UNL d   1      26.472 -14.544  -3.283  0.00  0.00     0.163 C 
ATOM      8  S   UNL d   1      24.813 -14.472  -2.733  0.00  0.00    -0.084 SA
ATOM      9  C   UNL d   1      24.751 -16.232  -2.319  0.00  0.00     0.096 C 
ENDROOT
BRANCH   1  10
ATOM     10  C   UNL d   1      22.989 -17.681  -1.087  0.00  0.00     0.229 C 
ATOM     11  O   UNL d   1      23.132 -18.495  -2.011  0.00  0.00    -0.273 OA
ATOM     12  N   UNL d   1      21.890 -17.656  -0.243  0.00  0.00    -0.305 N 
ATOM     13  H   UNL d   1      21.718 -16.984   0.491  0.00  0.00     0.171 HD
BRANCH  12  14
ATOM     14  C   UNL d   1      20.906 -18.605  -0.393  0.00  0.00     0.172 A 
ATOM     15  N   UNL d   1      19.905 -18.575  -1.229  0.00  0.00    -0.236 NA
ATOM     16  C   UNL d   1      19.145 -19.713  -1.065  0.00  0.00     0.126 A 
ATOM     17  C   UNL d   1      19.548 -20.565  -0.057  0.00  0.00     0.072 A 
ATOM     18  S   UNL d   1      21.030 -19.989   0.605  0.00  0.00    -0.062 SA
ENDBRANCH  12  14
ENDBRANCH   1  10
BRANCH   3  19
ATOM     19  O   UNL d   1      25.528 -18.931  -0.220  0.00  0.00    -0.393 OA
ATOM     20  H   UNL d   1      25.009 -18.954  -1.028  0.00  0.00     0.210 HD
ENDBRANCH   3  19
BRANCH   4  21
ATOM     21  O   UNL d   1      27.688 -16.038  -0.501  0.00  0.00    -0.391 OA
ATOM     22  H   UNL d   1      28.066 -15.524  -1.232  0.00  0.00     0.210 HD
ENDBRANCH   4  21
BRANCH   7  23
ATOM     23  N   UNL d   1      27.070 -13.455  -3.876  0.00  0.00    -0.336 N 
ATOM     24  H   UNL d   1      28.048 -13.560  -4.117  0.00  0.00     0.168 HD
BRANCH  23  25
ATOM     25  C   UNL d   1      26.471 -12.243  -4.271  0.00  0.00     0.034 A 
ATOM     26  C   UNL d   1      26.340 -11.906  -5.626  0.00  0.00     0.031 A 
ATOM     27  C   UNL d   1      25.895 -10.640  -6.018  0.00  0.00     0.026 A 
ATOM     28  C   UNL d   1      25.550  -9.699  -5.054  0.00  0.00     0.034 A 
ATOM     29 CL   UNL d   1      25.076  -8.116  -5.536  0.00  0.00    -0.084 Cl
ATOM     30  C   UNL d   1      25.600 -10.035  -3.703  0.00  0.00     0.026 A 
ATOM     31  C   UNL d   1      26.044 -11.308  -3.314  0.00  0.00     0.031 A 
ENDBRANCH  23  25
ENDBRANCH   7  23
TORSDOF 6
ENDMDL
MODEL 2
REMARK VINA RESULT:   -28.911      4.111      5.713
REMARK INTER + INTRA:         -32.464
REMARK INTER:                 -30.701
REMARK INTRA:                  -1.763
REMARK CONF_INDEPENDENT:        1.790
REMARK UNBOUND:                -1.763
REMARK  6 active torsions:
REMARK  status: ('A' for Active; 'I' for Inactive)
REMARK       I    between atoms: C_2  and  N_3 
REMARK    1  A    between atoms: C_9  and  C_2 
REMARK    2  A    between atoms: N_3  and  C_4 
REMARK    3  A    between atoms: C_11  and  O_12 
REMARK    4  A    between atoms: C_13  and  O_14 
REMARK    5  A    between atoms: C_17  and  N_18 
REMARK    6  A    between atoms: N_18  and  C_19 
ROOT
ATOM      1  C   UNL d   1      24.562 -17.913  -1.090  0.00  0.00     0.097 C 
ATOM      2  C   UNL d   1      24.542 -17.201  -2.453  0.00  0.00     0.049 C 
ATOM      3  C   UNL d   1      24.404 -15.687  -2.315  0.00  0.00     0.149 C 
ATOM      4  C   UNL d   1      25.638 -15.131  -1.596  0.00  0.00     0.172 C 
ATOM      5  C   UNL d   1      26.010 -15.860  -0.268  0.00  0.00     0.157 C 
ATOM      6  N   UNL d   1      27.472 -15.701   0.007  0.00  0.00    -0.258 NA
ATOM      7  C   UNL d   1      28.118 -16.820   0.060  0.00  0.00     0.163 C 
ATOM      8  S   UNL d   1      27.130 -18.255  -0.098  0.00  0.00    -0.084 SA
ATOM      9  C   UNL d   1      25.576 -17.328  -0.095  0.00  0.00     0.096 C 
ENDROOT
BRANCH   1  10
ATOM     10  C   UNL d   1      23.120 -18.025  -0.547  0.00  0.00     0.229 C 
ATOM     11  O   UNL d   1      22.868 -17.482   0.538  0.00  0.00    -0.273 OA
ATOM     12  N   UNL d   1      22.259 -18.898  -1.193  0.00  0.00    -0.305 N 
ATOM     13  H   UNL d   1      22.447 -19.391  -2.054  0.00  0.00     0.171 HD
BRANCH  12  14
ATOM     14  C   UNL d   1      21.029 -19.161  -0.637  0.00  0.00     0.172 A 
ATOM     15  N   UNL d   1      19.899 -19.323  -1.270  0.00  0.00    -0.236 NA
ATOM     16  C   UNL d   1      18.899 -19.567  -0.353  0.00  0.00     0.126 A 
ATOM     17  C   UNL d   1      19.277 -19.525   0.973  0.00  0.00     0.072 A 
ATOM     18  S   UNL d   1      20.985 -19.324   1.064  0.00  0.00    -0.062 SA
ENDBRANCH  12  14
ENDBRANCH   1  10
BRANCH   3  19
ATOM     19  O   UNL d   1      23.203 -15.291  -1.679  0.00  0.00    -0.393 OA
ATOM     20  H   UNL d   1      23.027 -15.847  -0.917  0.00  0.00     0.210 HD
ENDBRANCH   3  19
BRANCH   4  21
ATOM     21  O   UNL d   1      26.720 -15.157  -2.534  0.00  0.00    -0.391 OA
ATOM     22  H   UNL d   1      27.432 -15.699  -2.159  0.00  0.00     0.210 HD
ENDBRANCH   4  21
BRANCH   7  23
ATOM     23  N   UNL d   1      29.478 -16.913   0.250  0.00  0.00    -0.336 N 
ATOM     24  H   UNL d   1      29.809 -16.741   1.192  0.00  0.00     0.168 HD
BRANCH  23  25
ATOM     25  C   UNL d   1      30.461 -17.302  -0.680  0.00  0.00     0.034 A 
ATOM     26  C   UNL d   1      30.753 -16.511  -1.800  0.00  0.00     0.031 A 
ATOM     27  C   UNL d   1      31.609 -16.968  -2.807  0.00  0.00     0.026 A 
ATOM     28  C   UNL d   1      32.206 -18.219  -2.692  0.00  0.00     0.034 A 
ATOM     29 CL   UNL d   1      33.198 -18.813  -3.967  0.00  0.00    -0.084 Cl
ATOM     30  C   UNL d   1      31.989 -18.992  -1.554  0.00  0.00     0.026 A 
ATOM     31  C   UNL d   1      31.132 -18.528  -0.544  0.00  0.00     0.031 A 
ENDBRANCH  23  25
ENDBRANCH   7  23
TORSDOF 6
ENDMDL
MODEL 3
REMARK VINA RESULT:   -28.638      1.738      2.156
REMARK INTER + INTRA:         -32.277
REMARK INTER:                 -30.427
REMARK INTRA:                  -1.850
REMARK CONF_INDEPENDENT:        1.790
REMARK UNBOUND:                -1.850
REMARK  6 active torsions:
REMARK  status: ('A' for Active; 'I' for Inactive)
REMARK       I    between atoms: C_2  and  N_3 
REMARK    1  A    between atoms: C_9  and  C_2 
REMARK    2  A    between atoms: N_3  and  C_4 
REMARK    3  A    between atoms: C_11  and  O_12 
REMARK    4  A    between atoms: C_13  and  O_14 
REMARK    5  A    between atoms: C_17  and  N_18 
REMARK    6  A    between atoms: N_18  and  C_19 
ROOT
ATOM      1  C   UNL d   1      23.938 -16.480  -1.040  0.00  0.00     0.097 C 
ATOM      2  C   UNL d   1      24.793 -16.622   0.230  0.00  0.00     0.049 C 
ATOM      3  C   UNL d   1      25.921 -17.636   0.060  0.00  0.00     0.149 C 
ATOM      4  C   UNL d   1      26.891 -17.136  -1.017  0.00  0.00     0.172 C 
ATOM      5  C   UNL d   1      26.220 -16.700  -2.356  0.00  0.00     0.157 C 
ATOM      6  N   UNL d   1      27.084 -15.697  -3.055  0.00  0.00    -0.258 NA
ATOM      7  C   UNL d   1      26.512 -14.552  -3.236  0.00  0.00     0.163 C 
ATOM      8  S   UNL d   1      24.842 -14.466  -2.721  0.00  0.00    -0.084 SA
ATOM      9  C   UNL d   1      24.754 -16.228  -2.317  0.00  0.00     0.096 C 
ENDROOT
BRANCH   1  10
ATOM     10  C   UNL d   1      22.951 -17.665  -1.131  0.00  0.00     0.229 C 
ATOM     11  O   UNL d   1      23.035 -18.412  -2.116  0.00  0.00    -0.273 OA
ATOM     12  N   UNL d   1      21.903 -17.696  -0.224  0.00  0.00    -0.305 N 
ATOM     13  H   UNL d   1      21.780 -17.077   0.564  0.00  0.00     0.171 HD
BRANCH  12  14
ATOM     14  C   UNL d   1      20.906 -18.630  -0.383  0.00  0.00     0.172 A 
ATOM     15  N   UNL d   1      19.905 -18.577  -1.218  0.00  0.00    -0.236 NA
ATOM     16  C   UNL d   1      19.129 -19.705  -1.064  0.00  0.00     0.126 A 
ATOM     17  C   UNL d   1      19.520 -20.572  -0.065  0.00  0.00     0.072 A 
ATOM     18  S   UNL d   1      21.011 -20.025   0.601  0.00  0.00    -0.062 SA
ENDBRANCH  12  14
ENDBRANCH   1  10
BRANCH   3  19
ATOM     19  O   UNL d   1      25.459 -18.945  -0.217  0.00  0.00    -0.393 OA
ATOM     20  H   UNL d   1      24.866 -18.939  -0.972  0.00  0.00     0.210 HD
ENDBRANCH   3  19
BRANCH   4  21
ATOM     21  O   UNL d   1      27.654 -16.072  -0.436  0.00  0.00    -0.391 OA
ATOM     22  H   UNL d   1      27.984 -15.510  -1.155  0.00  0.00     0.210 HD
ENDBRANCH   4  21
BRANCH   7  23
ATOM     23  N   UNL d   1      27.133 -13.467  -3.810  0.00  0.00    -0.336 N 
ATOM     24  H   UNL d   1      27.495 -12.770  -3.171  0.00  0.00     0.168 HD
BRANCH  23  25
ATOM     25  C   UNL d   1      27.406 -13.244  -5.174  0.00  0.00     0.034 A 
ATOM     26  C   UNL d   1      28.091 -14.196  -5.942  0.00  0.00     0.031 A 
ATOM     27  C   UNL d   1      28.505 -13.913  -7.248  0.00  0.00     0.026 A 
ATOM     28  C   UNL d   1      28.214 -12.676  -7.812  0.00  0.00     0.034 A 
ATOM     29 CL   UNL d   1      28.789 -12.300  -9.390  0.00  0.00    -0.084 Cl
ATOM     30  C   UNL d   1      27.469 -11.742  -7.096  0.00  0.00     0.026 A 
ATOM     31  C   UNL d   1      27.053 -12.031  -5.788  0.00  0.00     0.031 A 
ENDBRANCH  23  25
ENDBRANCH   7  23
TORSDOF 6
ENDMDL
MODEL 4
REMARK VINA RESULT:   -28.513      3.825      5.056
REMARK INTER + INTRA:         -32.007
REMARK INTER:                 -30.303
REMARK INTRA:                  -1.704
REMARK CONF_INDEPENDENT:        1.790
REMARK UNBOUND:                -1.704
REMARK  6 active torsions:
REMARK  status: ('A' for Active; 'I' for Inactive)
REMARK       I    between atoms: C_2  and  N_3 
REMARK    1  A    between atoms: C_9  and  C_2 
REMARK    2  A    between atoms: N_3  and  C_4 
REMARK    3  A    between atoms: C_11  and  O_12 
REMARK    4  A    between atoms: C_13  and  O_14 
REMARK    5  A    between atoms: C_17  and  N_18 
REMARK    6  A    between atoms: N_18  and  C_19 
ROOT
ATOM      1  C   UNL d   1      24.550 -17.862  -1.049  0.00  0.00     0.097 C 
ATOM      2  C   UNL d   1      24.532 -17.149  -2.412  0.00  0.00     0.049 C 
ATOM      3  C   UNL d   1      24.374 -15.637  -2.273  0.00  0.00     0.149 C 
ATOM      4  C   UNL d   1      25.595 -15.066  -1.543  0.00  0.00     0.172 C 
ATOM      5  C   UNL d   1      25.966 -15.792  -0.213  0.00  0.00     0.157 C 
ATOM      6  N   UNL d   1      27.423 -15.615   0.074  0.00  0.00    -0.258 NA
ATOM      7  C   UNL d   1      28.082 -16.726   0.131  0.00  0.00     0.163 C 
ATOM      8  S   UNL d   1      27.114 -18.173  -0.037  0.00  0.00    -0.084 SA
ATOM      9  C   UNL d   1      25.549 -17.266  -0.046  0.00  0.00     0.096 C 
ENDROOT
BRANCH   1  10
ATOM     10  C   UNL d   1      23.105 -17.993  -0.518  0.00  0.00     0.229 C 
ATOM     11  O   UNL d   1      22.838 -17.456   0.566  0.00  0.00    -0.273 OA
ATOM     12  N   UNL d   1      22.259 -18.874  -1.173  0.00  0.00    -0.305 N 
ATOM     13  H   UNL d   1      22.460 -19.362  -2.034  0.00  0.00     0.171 HD
BRANCH  12  14
ATOM     14  C   UNL d   1      21.028 -19.154  -0.628  0.00  0.00     0.172 A 
ATOM     15  N   UNL d   1      19.905 -19.325  -1.270  0.00  0.00    -0.236 NA
ATOM     16  C   UNL d   1      18.902 -19.585  -0.362  0.00  0.00     0.126 A 
ATOM     17  C   UNL d   1      19.269 -19.545   0.967  0.00  0.00     0.072 A 
ATOM     18  S   UNL d   1      20.973 -19.326   1.072  0.00  0.00    -0.062 SA
ENDBRANCH  12  14
ENDBRANCH   1  10
BRANCH   3  19
ATOM     19  O   UNL d   1      23.162 -15.257  -1.646  0.00  0.00    -0.393 OA
ATOM     20  H   UNL d   1      23.019 -15.774  -0.851  0.00  0.00     0.210 HD
ENDBRANCH   3  19
BRANCH   4  21
ATOM     21  O   UNL d   1      26.684 -15.077  -2.473  0.00  0.00    -0.391 OA
ATOM     22  H   UNL d   1      27.327 -15.742  -2.177  0.00  0.00     0.210 HD
ENDBRANCH   4  21
BRANCH   7  23
ATOM     23  N   UNL d   1      29.442 -16.802   0.332  0.00  0.00    -0.336 N 
ATOM     24  H   UNL d   1      29.758 -17.523   0.969  0.00  0.00     0.168 HD
BRANCH  23  25
ATOM     25  C   UNL d   1      30.457 -16.061  -0.303  0.00  0.00     0.034 A 
ATOM     26  C   UNL d   1      30.224 -15.409  -1.522  0.00  0.00     0.031 A 
ATOM     27  C   UNL d   1      31.267 -14.808  -2.235  0.00  0.00     0.026 A 
ATOM     28  C   UNL d   1      32.559 -14.833  -1.720  0.00  0.00     0.034 A 
ATOM     29 CL   UNL d   1      33.855 -14.162  -2.632  0.00  0.00    -0.084 Cl
ATOM     30  C   UNL d   1      32.802 -15.409  -0.476  0.00  0.00     0.026 A 
ATOM     31  C   UNL d   1      31.751 -16.007   0.237  0.00  0.00     0.031 A 
ENDBRANCH  23  25
ENDBRANCH   7  23
TORSDOF 6
ENDMDL
MODEL 5
REMARK VINA RESULT:   -28.433      2.315      2.737
REMARK INTER + INTRA:         -32.044
REMARK INTER:                 -30.223
REMARK INTRA:                  -1.821
REMARK CONF_INDEPENDENT:        1.790
REMARK UNBOUND:                -1.821
REMARK  6 active torsions:
REMARK  status: ('A' for Active; 'I' for Inactive)
REMARK       I    between atoms: C_2  and  N_3 
REMARK    1  A    between atoms: C_9  and  C_2 
REMARK    2  A    between atoms: N_3  and  C_4 
REMARK    3  A    between atoms: C_11  and  O_12 
REMARK    4  A    between atoms: C_13  and  O_14 
REMARK    5  A    between atoms: C_17  and  N_18 
REMARK    6  A    between atoms: N_18  and  C_19 
ROOT
ATOM      1  C   UNL d   1      23.948 -16.462  -1.047  0.00  0.00     0.097 C 
ATOM      2  C   UNL d   1      24.802 -16.554   0.229  0.00  0.00     0.049 C 
ATOM      3  C   UNL d   1      25.944 -17.558   0.093  0.00  0.00     0.149 C 
ATOM      4  C   UNL d   1      26.910 -17.079  -0.997  0.00  0.00     0.172 C 
ATOM      5  C   UNL d   1      26.237 -16.692  -2.350  0.00  0.00     0.157 C 
ATOM      6  N   UNL d   1      27.089 -15.701  -3.077  0.00  0.00    -0.258 NA
ATOM      7  C   UNL d   1      26.503 -14.569  -3.294  0.00  0.00     0.163 C 
ATOM      8  S   UNL d   1      24.832 -14.489  -2.786  0.00  0.00    -0.084 SA
ATOM      9  C   UNL d   1      24.765 -16.238  -2.329  0.00  0.00     0.096 C 
ENDROOT
BRANCH   1  10
ATOM     10  C   UNL d   1      22.978 -17.661  -1.103  0.00  0.00     0.229 C 
ATOM     11  O   UNL d   1      23.120 -18.476  -2.026  0.00  0.00    -0.273 OA
ATOM     12  N   UNL d   1      21.883 -17.640  -0.253  0.00  0.00    -0.305 N 
ATOM     13  H   UNL d   1      21.713 -16.968   0.481  0.00  0.00     0.171 HD
BRANCH  12  14
ATOM     14  C   UNL d   1      20.903 -18.594  -0.396  0.00  0.00     0.172 A 
ATOM     15  N   UNL d   1      19.905 -18.576  -1.236  0.00  0.00    -0.236 NA
ATOM     16  C   UNL d   1      19.148 -19.714  -1.062  0.00  0.00     0.126 A 
ATOM     17  C   UNL d   1      19.549 -20.554  -0.043  0.00  0.00     0.072 A 
ATOM     18  S   UNL d   1      21.027 -19.966   0.618  0.00  0.00    -0.062 SA
ENDBRANCH  12  14
ENDBRANCH   1  10
BRANCH   3  19
ATOM     19  O   UNL d   1      25.499 -18.881  -0.145  0.00  0.00    -0.393 OA
ATOM     20  H   UNL d   1      24.605 -18.877  -0.495  0.00  0.00     0.210 HD
ENDBRANCH   3  19
BRANCH   4  21
ATOM     21  O   UNL d   1      27.657 -15.988  -0.447  0.00  0.00    -0.391 OA
ATOM     22  H   UNL d   1      27.596 -15.240  -1.062  0.00  0.00     0.210 HD
ENDBRANCH   4  21
BRANCH   7  23
ATOM     23  N   UNL d   1      27.112 -13.494  -3.900  0.00  0.00    -0.336 N 
ATOM     24  H   UNL d   1      26.932 -12.587  -3.485  0.00  0.00     0.168 HD
BRANCH  23  25
ATOM     25  C   UNL d   1      28.024 -13.503  -4.973  0.00  0.00     0.034 A 
ATOM     26  C   UNL d   1      28.316 -14.686  -5.667  0.00  0.00     0.031 A 
ATOM     27  C   UNL d   1      29.336 -14.733  -6.623  0.00  0.00     0.026 A 
ATOM     28  C   UNL d   1      30.063 -13.584  -6.916  0.00  0.00     0.034 A 
ATOM     29 CL   UNL d   1      31.367 -13.661  -8.036  0.00  0.00    -0.084 Cl
ATOM     30  C   UNL d   1      29.741 -12.380  -6.295  0.00  0.00     0.026 A 
ATOM     31  C   UNL d   1      28.715 -12.336  -5.338  0.00  0.00     0.031 A 
ENDBRANCH  23  25
ENDBRANCH   7  23
TORSDOF 6
ENDMDL
MODEL 6
REMARK VINA RESULT:   -26.995      1.921      2.197
REMARK INTER + INTRA:         -30.783
REMARK INTER:                 -28.785
REMARK INTRA:                  -1.999
REMARK CONF_INDEPENDENT:        1.790
REMARK UNBOUND:                -1.999
REMARK  6 active torsions:
REMARK  status: ('A' for Active; 'I' for Inactive)
REMARK       I    between atoms: C_2  and  N_3 
REMARK    1  A    between atoms: C_9  and  C_2 
REMARK    2  A    between atoms: N_3  and  C_4 
REMARK    3  A    between atoms: C_11  and  O_12 
REMARK    4  A    between atoms: C_13  and  O_14 
REMARK    5  A    between atoms: C_17  and  N_18 
REMARK    6  A    between atoms: N_18  and  C_19 
ROOT
ATOM      1  C   UNL d   1      23.948 -16.413  -1.212  0.00  0.00     0.097 C 
ATOM      2  C   UNL d   1      24.705 -16.246   0.116  0.00  0.00     0.049 C 
ATOM      3  C   UNL d   1      25.906 -17.182   0.221  0.00  0.00     0.149 C 
ATOM      4  C   UNL d   1      26.926 -16.819  -0.864  0.00  0.00     0.172 C 
ATOM      5  C   UNL d   1      26.339 -16.695  -2.304  0.00  0.00     0.157 C 
ATOM      6  N   UNL d   1      27.190 -15.777  -3.124  0.00  0.00    -0.258 NA
ATOM      7  C   UNL d   1      26.562 -14.735  -3.560  0.00  0.00     0.163 C 
ATOM      8  S   UNL d   1      24.854 -14.685  -3.185  0.00  0.00    -0.084 SA
ATOM      9  C   UNL d   1      24.847 -16.341  -2.456  0.00  0.00     0.096 C 
ENDROOT
BRANCH   1  10
ATOM     10  C   UNL d   1      23.050 -17.667  -1.139  0.00  0.00     0.229 C 
ATOM     11  O   UNL d   1      23.339 -18.627  -1.867  0.00  0.00    -0.273 OA
ATOM     12  N   UNL d   1      21.865 -17.565  -0.428  0.00  0.00    -0.305 N 
ATOM     13  H   UNL d   1      21.577 -16.782   0.141  0.00  0.00     0.171 HD
BRANCH  12  14
ATOM     14  C   UNL d   1      20.956 -18.596  -0.487  0.00  0.00     0.172 A 
ATOM     15  N   UNL d   1      19.780 -18.576  -1.052  0.00  0.00    -0.236 NA
ATOM     16  C   UNL d   1      19.180 -19.806  -0.889  0.00  0.00     0.126 A 
ATOM     17  C   UNL d   1      19.888 -20.726  -0.145  0.00  0.00     0.072 A 
ATOM     18  S   UNL d   1      21.436 -20.071   0.233  0.00  0.00    -0.062 SA
ENDBRANCH  12  14
ENDBRANCH   1  10
BRANCH   3  19
ATOM     19  O   UNL d   1      25.553 -18.552   0.172  0.00  0.00    -0.393 OA
ATOM     20  H   UNL d   1      25.038 -18.738  -0.617  0.00  0.00     0.210 HD
ENDBRANCH   3  19
BRANCH   4  21
ATOM     21  O   UNL d   1      27.569 -15.608  -0.450  0.00  0.00    -0.391 OA
ATOM     22  H   UNL d   1      27.926 -15.171  -1.239  0.00  0.00     0.210 HD
ENDBRANCH   4  21
BRANCH   7  23
ATOM     23  N   UNL d   1      27.156 -13.731  -4.291  0.00  0.00    -0.336 N 
ATOM     24  H   UNL d   1      26.900 -13.680  -5.269  0.00  0.00     0.168 HD
BRANCH  23  25
ATOM     25  C   UNL d   1      28.011 -12.710  -3.830  0.00  0.00     0.034 A 
ATOM     26  C   UNL d   1      29.390 -12.923  -3.699  0.00  0.00     0.031 A 
ATOM     27  C   UNL d   1      30.216 -11.971  -3.093  0.00  0.00     0.026 A 
ATOM     28  C   UNL d   1      29.672 -10.777  -2.631  0.00  0.00     0.034 A 
ATOM     29 CL   UNL d   1      30.675  -9.640  -1.817  0.00  0.00    -0.084 Cl
ATOM     30  C   UNL d   1      28.318 -10.512  -2.817  0.00  0.00     0.026 A 
ATOM     31  C   UNL d   1      27.493 -11.468  -3.428  0.00  0.00     0.031 A 
ENDBRANCH  23  25
ENDBRANCH   7  23
TORSDOF 6
ENDMDL
MODEL 7
REMARK VINA RESULT:   -26.967      3.994      5.365
REMARK INTER + INTRA:         -30.563
REMARK INTER:                 -28.757
REMARK INTRA:                  -1.806
REMARK CONF_INDEPENDENT:        1.790
REMARK UNBOUND:                -1.806
REMARK  6 active torsions:
REMARK  status: ('A' for Active; 'I' for Inactive)
REMARK       I    between atoms: C_2  and  N_3 
REMARK    1  A    between atoms: C_9  and  C_2 
REMARK    2  A    between atoms: N_3  and  C_4 
REMARK    3  A    between atoms: C_11  and  O_12 
REMARK    4  A    between atoms: C_13  and  O_14 
REMARK    5  A    between atoms: C_17  and  N_18 
REMARK    6  A    between atoms: N_18  and  C_19 
ROOT
ATOM      1  C   UNL d   1      24.480 -17.611  -1.197  0.00  0.00     0.097 C 
ATOM      2  C   UNL d   1      24.583 -16.949  -2.582  0.00  0.00     0.049 C 
ATOM      3  C   UNL d   1      24.406 -15.434  -2.516  0.00  0.00     0.149 C 
ATOM      4  C   UNL d   1      25.553 -14.827  -1.700  0.00  0.00     0.172 C 
ATOM      5  C   UNL d   1      25.803 -15.499  -0.315  0.00  0.00     0.157 C 
ATOM      6  N   UNL d   1      27.228 -15.300   0.097  0.00  0.00    -0.258 NA
ATOM      7  C   UNL d   1      27.884 -16.403   0.256  0.00  0.00     0.163 C 
ATOM      8  S   UNL d   1      26.942 -17.863   0.056  0.00  0.00    -0.084 SA
ATOM      9  C   UNL d   1      25.380 -16.969  -0.130  0.00  0.00     0.096 C 
ENDROOT
BRANCH   1  10
ATOM     10  C   UNL d   1      22.994 -17.733  -0.795  0.00  0.00     0.229 C 
ATOM     11  O   UNL d   1      22.560 -16.948   0.059  0.00  0.00    -0.273 OA
ATOM     12  N   UNL d   1      22.296 -18.840  -1.252  0.00  0.00    -0.305 N 
ATOM     13  H   UNL d   1      22.633 -19.524  -1.915  0.00  0.00     0.171 HD
BRANCH  12  14
ATOM     14  C   UNL d   1      21.029 -19.080  -0.774  0.00  0.00     0.172 A 
ATOM     15  N   UNL d   1      19.905 -18.640  -1.270  0.00  0.00    -0.236 NA
ATOM     16  C   UNL d   1      18.860 -19.102  -0.499  0.00  0.00     0.126 A 
ATOM     17  C   UNL d   1      19.213 -19.838   0.613  0.00  0.00     0.072 A 
ATOM     18  S   UNL d   1      20.917 -20.090   0.602  0.00  0.00    -0.062 SA
ENDBRANCH  12  14
ENDBRANCH   1  10
BRANCH   3  19
ATOM     19  O   UNL d   1      23.141 -15.041  -2.017  0.00  0.00    -0.393 OA
ATOM     20  H   UNL d   1      23.003 -15.393  -1.135  0.00  0.00     0.210 HD
ENDBRANCH   3  19
BRANCH   4  21
ATOM     21  O   UNL d   1      26.723 -14.864  -2.525  0.00  0.00    -0.391 OA
ATOM     22  H   UNL d   1      27.501 -14.847  -1.946  0.00  0.00     0.210 HD
ENDBRANCH   4  21
BRANCH   7  23
ATOM     23  N   UNL d   1      29.220 -16.460   0.584  0.00  0.00    -0.336 N 
ATOM     24  H   UNL d   1      29.676 -17.352   0.439  0.00  0.00     0.168 HD
BRANCH  23  25
ATOM     25  C   UNL d   1      30.055 -15.410   1.013  0.00  0.00     0.034 A 
ATOM     26  C   UNL d   1      31.395 -15.642   1.353  0.00  0.00     0.031 A 
ATOM     27  C   UNL d   1      32.181 -14.639   1.931  0.00  0.00     0.026 A 
ATOM     28  C   UNL d   1      31.638 -13.378   2.152  0.00  0.00     0.034 A 
ATOM     29 CL   UNL d   1      32.581 -12.167   2.931  0.00  0.00    -0.084 Cl
ATOM     30  C   UNL d   1      30.333 -13.101   1.753  0.00  0.00     0.026 A 
ATOM     31  C   UNL d   1      29.549 -14.110   1.171  0.00  0.00     0.031 A 
ENDBRANCH  23  25
ENDBRANCH   7  23
TORSDOF 6
ENDMDL
MODEL 8
REMARK VINA RESULT:   -26.239      3.185      3.668
REMARK INTER + INTRA:         -29.065
REMARK INTER:                 -28.029
REMARK INTRA:                  -1.037
REMARK CONF_INDEPENDENT:        1.790
REMARK UNBOUND:                -1.037
REMARK  6 active torsions:
REMARK  status: ('A' for Active; 'I' for Inactive)
REMARK       I    between atoms: C_2  and  N_3 
REMARK    1  A    between atoms: C_9  and  C_2 
REMARK    2  A    between atoms: N_3  and  C_4 
REMARK    3  A    between atoms: C_11  and  O_12 
REMARK    4  A    between atoms: C_13  and  O_14 
REMARK    5  A    between atoms: C_17  and  N_18 
REMARK    6  A    between atoms: N_18  and  C_19 
ROOT
ATOM      1  C   UNL d   1      23.477 -16.635  -0.497  0.00  0.00     0.097 C 
ATOM      2  C   UNL d   1      24.317 -17.311   0.601  0.00  0.00     0.049 C 
ATOM      3  C   UNL d   1      25.019 -18.572   0.101  0.00  0.00     0.149 C 
ATOM      4  C   UNL d   1      26.026 -18.190  -0.990  0.00  0.00     0.172 C 
ATOM      5  C   UNL d   1      25.455 -17.286  -2.126  0.00  0.00     0.157 C 
ATOM      6  N   UNL d   1      26.559 -16.487  -2.744  0.00  0.00    -0.258 NA
ATOM      7  C   UNL d   1      26.400 -15.208  -2.638  0.00  0.00     0.163 C 
ATOM      8  S   UNL d   1      24.898 -14.706  -1.896  0.00  0.00    -0.084 SA
ATOM      9  C   UNL d   1      24.243 -16.390  -1.806  0.00  0.00     0.096 C 
ENDROOT
BRANCH   1  10
ATOM     10  C   UNL d   1      22.143 -17.394  -0.664  0.00  0.00     0.229 C 
ATOM     11  O   UNL d   1      21.228 -16.825  -1.275  0.00  0.00    -0.273 OA
ATOM     12  N   UNL d   1      21.979 -18.567   0.056  0.00  0.00    -0.305 N 
ATOM     13  H   UNL d   1      22.689 -19.036   0.599  0.00  0.00     0.171 HD
BRANCH  12  14
ATOM     14  C   UNL d   1      20.746 -19.176   0.075  0.00  0.00     0.172 A 
ATOM     15  N   UNL d   1      19.905 -19.279  -0.917  0.00  0.00    -0.236 NA
ATOM     16  C   UNL d   1      18.784 -19.958  -0.489  0.00  0.00     0.126 A 
ATOM     17  C   UNL d   1      18.765 -20.307   0.846  0.00  0.00     0.072 A 
ATOM     18  S   UNL d   1      20.283 -19.903   1.552  0.00  0.00    -0.062 SA
ENDBRANCH  12  14
ENDBRANCH   1  10
BRANCH   3  19
ATOM     19  O   UNL d   1      24.121 -19.573  -0.341  0.00  0.00    -0.393 OA
ATOM     20  H   UNL d   1      24.193 -19.694  -1.290  0.00  0.00     0.210 HD
ENDBRANCH   3  19
BRANCH   4  21
ATOM     21  O   UNL d   1      27.142 -17.575  -0.336  0.00  0.00    -0.391 OA
ATOM     22  H   UNL d   1      27.543 -18.231   0.256  0.00  0.00     0.210 HD
ENDBRANCH   4  21
BRANCH   7  23
ATOM     23  N   UNL d   1      27.313 -14.282  -3.087  0.00  0.00    -0.336 N 
ATOM     24  H   UNL d   1      26.945 -13.365  -3.312  0.00  0.00     0.168 HD
BRANCH  23  25
ATOM     25  C   UNL d   1      28.711 -14.420  -3.192  0.00  0.00     0.034 A 
ATOM     26  C   UNL d   1      29.428 -13.784  -4.216  0.00  0.00     0.031 A 
ATOM     27  C   UNL d   1      30.787 -14.046  -4.420  0.00  0.00     0.026 A 
ATOM     28  C   UNL d   1      31.453 -14.933  -3.582  0.00  0.00     0.034 A 
ATOM     29 CL   UNL d   1      33.105 -15.313  -3.880  0.00  0.00    -0.084 Cl
ATOM     30  C   UNL d   1      30.781 -15.520  -2.513  0.00  0.00     0.026 A 
ATOM     31  C   UNL d   1      29.418 -15.251  -2.309  0.00  0.00     0.031 A 
ENDBRANCH  23  25
ENDBRANCH   7  23
TORSDOF 6
ENDMDL
