MODEL 1
REMARK VINA RESULT:   -10.004      0.000      0.000
REMARK INTER + INTRA:         -16.740
REMARK INTER:                 -12.987
REMARK INTRA:                  -3.754
REMARK CONF_INDEPENDENT:        2.983
REMARK UNBOUND:                -3.754
REMARK  10 active torsions:
REMARK  status: ('A' for Active; 'I' for Inactive)
REMARK    1  A    between atoms: CB_2  and  OG1_3 
REMARK    2  A    between atoms: CB_2  and  CA_4 
REMARK    3  A    between atoms: CA_4  and  N_5 
REMARK    4  A    between atoms: CA_4  and  C_31 
REMARK       I    between atoms: N_5  and  C_6 
REMARK    5  A    between atoms: C_6  and  C_8 
REMARK    6  A    between atoms: C_9  and  C_8 
REMARK    7  A    between atoms: C_9  and  C_24 
REMARK    8  A    between atoms: C_9  and  C_10 
REMARK    9  A    between atoms: C_10  and  N_11 
REMARK       I    between atoms: N_11  and  C_12 
REMARK   10  A    between atoms: C_14  and  C_12 
ROOT
ATOM      1  C   UNK d   0      25.478 -16.029  -1.279  0.00  0.00     0.045 C 
ENDROOT
BRANCH   1   2
ATOM      2  C   UNK d   0      24.264 -16.887  -0.992  0.00  0.00    -0.052 A 
ATOM      3  C   UNK d   0      24.435 -18.252  -0.721  0.00  0.00     0.009 A 
ATOM      4  C   UNK d   0      23.324 -19.066  -0.524  0.00  0.00     0.024 A 
ATOM      5  C   UNK d   0      22.046 -18.513  -0.585  0.00  0.00     0.034 A 
ATOM      6 CL   UNK d   0      20.669 -19.526  -0.397  0.00  0.00    -0.084 Cl
ATOM      7  C   UNK d   0      21.868 -17.149  -0.809  0.00  0.00     0.024 A 
ATOM      8  C   UNK d   0      22.976 -16.337  -1.014  0.00  0.00     0.009 A 
ENDBRANCH   1   2
BRANCH   1   9
ATOM      9  C   UNK d   0      26.741 -16.674  -0.673  0.00  0.00     0.132 C 
BRANCH   9  10
ATOM     10  N   UNK d   0      27.008 -16.307   0.705  0.00  0.00    -0.359 N 
ATOM     11  C   UNK d   0      27.281 -14.997   1.037  0.00  0.00     0.251 C 
ATOM     12  O   UNK d   0      27.011 -14.061   0.279  0.00  0.00    -0.271 OA
ATOM     13  H   UNK d   0      27.179 -17.028   1.402  0.00  0.00     0.162 HD
BRANCH  11  14
ATOM     14  C   UNK d   0      27.996 -14.819   2.388  0.00  0.00     0.316 C 
ATOM     15  C   UNK d   0      27.331 -13.711   3.226  0.00  0.00     0.084 C 
ATOM     16  C   UNK d   0      28.169 -13.467   4.458  0.00  0.00    -0.048 A 
ATOM     17  C   UNK d   0      27.625 -13.262   5.727  0.00  0.00     0.008 A 
ATOM     18  C   UNK d   0      29.565 -13.483   4.285  0.00  0.00    -0.024 A 
ATOM     19  C   UNK d   0      28.473 -13.102   6.825  0.00  0.00     0.001 A 
ATOM     20  C   UNK d   0      29.859 -13.145   6.659  0.00  0.00     0.001 A 
ATOM     21  C   UNK d   0      30.406 -13.324   5.389  0.00  0.00     0.009 A 
ATOM     22  C   UNK d   0      30.099 -13.626   2.885  0.00  0.00     0.310 C 
ATOM     23  N   UNK d   0      29.449 -14.675   2.110  0.00  0.00     0.101 N 
ATOM     24  H   UNK d   0      29.886 -15.575   2.322  0.00  0.00     0.317 HD
ENDBRANCH  11  14
ENDBRANCH   9  10
ENDBRANCH   1   9
BRANCH   1  25
ATOM     25  C   UNK d   0      25.636 -15.797  -2.779  0.00  0.00     0.113 C 
BRANCH  25  26
ATOM     26  C   UNK d   0      25.399 -14.378  -3.243  0.00  0.00     0.219 C 
ATOM     27  N   THR d   1      26.188 -13.390  -2.705  0.00  0.00    -0.344 N 
ATOM     28  H   THR d   1      26.492 -13.447  -1.736  0.00  0.00     0.163 HD
ATOM     29  O   UNK d   0      24.595 -14.197  -4.163  0.00  0.00    -0.274 OA
BRANCH  27  30
ATOM     30  CA  THR d   1      26.199 -11.959  -3.141  0.00  0.00     0.214 C 
BRANCH  30  31
ATOM     31  CB  THR d   1      26.617 -11.846  -4.624  0.00  0.00     0.147 C 
ATOM     32  CG2 THR d   1      27.615 -12.913  -5.054  0.00  0.00     0.042 C 
BRANCH  31  33
ATOM     33  OG1 THR d   1      25.530 -11.992  -5.540  0.00  0.00    -0.393 OA
ATOM     34  HG1 THR d   1      24.743 -12.213  -5.019  0.00  0.00     0.210 HD
ENDBRANCH  31  33
ENDBRANCH  30  31
BRANCH  30  35
ATOM     35  C   THR d   1      27.157 -11.120  -2.202  0.00  0.00     0.199 C 
ATOM     36  O   THR d   1      27.669 -10.071  -2.669  0.00  0.00    -0.646 OA
ATOM     37  OXT THR d   1      27.402 -11.696  -1.097  0.00  0.00    -0.646 OA
ENDBRANCH  30  35
ENDBRANCH  27  30
ENDBRANCH  25  26
ENDBRANCH   1  25
TORSDOF 10
ENDMDL
MODEL 2
REMARK VINA RESULT:    -8.381      2.531      2.807
REMARK INTER + INTRA:         -15.230
REMARK INTER:                 -11.364
REMARK INTRA:                  -3.866
REMARK CONF_INDEPENDENT:        2.983
REMARK UNBOUND:                -3.866
REMARK  10 active torsions:
REMARK  status: ('A' for Active; 'I' for Inactive)
REMARK    1  A    between atoms: CB_2  and  OG1_3 
REMARK    2  A    between atoms: CB_2  and  CA_4 
REMARK    3  A    between atoms: CA_4  and  N_5 
REMARK    4  A    between atoms: CA_4  and  C_31 
REMARK       I    between atoms: N_5  and  C_6 
REMARK    5  A    between atoms: C_6  and  C_8 
REMARK    6  A    between atoms: C_9  and  C_8 
REMARK    7  A    between atoms: C_9  and  C_24 
REMARK    8  A    between atoms: C_9  and  C_10 
REMARK    9  A    between atoms: C_10  and  N_11 
REMARK       I    between atoms: N_11  and  C_12 
REMARK   10  A    between atoms: C_14  and  C_12 
ROOT
ATOM      1  C   UNK d   0      25.519 -16.436  -1.044  0.00  0.00     0.045 C 
ENDROOT
BRANCH   1   2
ATOM      2  C   UNK d   0      24.198 -17.153  -0.860  0.00  0.00    -0.052 A 
ATOM      3  C   UNK d   0      24.195 -18.522  -0.559  0.00  0.00     0.009 A 
ATOM      4  C   UNK d   0      22.989 -19.208  -0.456  0.00  0.00     0.024 A 
ATOM      5  C   UNK d   0      21.789 -18.523  -0.640  0.00  0.00     0.034 A 
ATOM      6 CL   UNK d   0      20.299 -19.378  -0.569  0.00  0.00    -0.084 Cl
ATOM      7  C   UNK d   0      21.781 -17.153  -0.895  0.00  0.00     0.024 A 
ATOM      8  C   UNK d   0      22.984 -16.469  -1.006  0.00  0.00     0.009 A 
ENDBRANCH   1   2
BRANCH   1   9
ATOM      9  C   UNK d   0      26.676 -17.310  -0.522  0.00  0.00     0.132 C 
BRANCH   9  10
ATOM     10  N   UNK d   0      27.633 -16.613   0.317  0.00  0.00    -0.359 N 
ATOM     11  C   UNK d   0      28.486 -15.678  -0.228  0.00  0.00     0.251 C 
ATOM     12  O   UNK d   0      28.280 -15.172  -1.335  0.00  0.00    -0.271 OA
ATOM     13  H   UNK d   0      27.811 -16.936   1.266  0.00  0.00     0.162 HD
BRANCH  11  14
ATOM     14  C   UNK d   0      29.728 -15.376   0.628  0.00  0.00     0.316 C 
ATOM     15  C   UNK d   0      30.378 -14.042   0.213  0.00  0.00     0.084 C 
ATOM     16  C   UNK d   0      31.677 -13.880   0.965  0.00  0.00    -0.048 A 
ATOM     17  C   UNK d   0      32.094 -12.670   1.522  0.00  0.00     0.008 A 
ATOM     18  C   UNK d   0      32.465 -15.034   1.118  0.00  0.00    -0.024 A 
ATOM     19  C   UNK d   0      33.282 -12.620   2.255  0.00  0.00     0.001 A 
ATOM     20  C   UNK d   0      34.052 -13.771   2.430  0.00  0.00     0.001 A 
ATOM     21  C   UNK d   0      33.652 -14.976   1.853  0.00  0.00     0.009 A 
ATOM     22  C   UNK d   0      32.011 -16.294   0.430  0.00  0.00     0.310 C 
ATOM     23  N   UNK d   0      30.594 -16.584   0.605  0.00  0.00     0.101 N 
ATOM     24  H   UNK d   0      30.454 -17.071   1.493  0.00  0.00     0.317 HD
ENDBRANCH  11  14
ENDBRANCH   9  10
ENDBRANCH   1   9
BRANCH   1  25
ATOM     25  C   UNK d   0      25.728 -16.050  -2.505  0.00  0.00     0.113 C 
BRANCH  25  26
ATOM     26  C   UNK d   0      25.414 -14.610  -2.846  0.00  0.00     0.219 C 
ATOM     27  N   THR d   1      26.310 -13.649  -2.444  0.00  0.00    -0.344 N 
ATOM     28  H   THR d   1      26.812 -13.751  -1.565  0.00  0.00     0.163 HD
ATOM     29  O   UNK d   0      24.436 -14.386  -3.565  0.00  0.00    -0.274 OA
BRANCH  27  30
ATOM     30  CA  THR d   1      26.245 -12.200  -2.809  0.00  0.00     0.214 C 
BRANCH  30  31
ATOM     31  CB  THR d   1      26.585 -12.000  -4.303  0.00  0.00     0.147 C 
ATOM     32  CG2 THR d   1      27.783 -12.819  -4.765  0.00  0.00     0.042 C 
BRANCH  31  33
ATOM     33  OG1 THR d   1      25.532 -12.385  -5.188  0.00  0.00    -0.393 OA
ATOM     34  HG1 THR d   1      24.740 -12.528  -4.648  0.00  0.00     0.210 HD
ENDBRANCH  31  33
ENDBRANCH  30  31
BRANCH  30  35
ATOM     35  C   THR d   1      27.215 -11.368  -1.876  0.00  0.00     0.199 C 
ATOM     36  O   THR d   1      28.120 -11.990  -1.263  0.00  0.00    -0.646 OA
ATOM     37  OXT THR d   1      26.870 -10.152  -1.757  0.00  0.00    -0.646 OA
ENDBRANCH  30  35
ENDBRANCH  27  30
ENDBRANCH  25  26
ENDBRANCH   1  25
TORSDOF 10
ENDMDL
MODEL 3
REMARK VINA RESULT:    -7.152      2.889      4.492
REMARK INTER + INTRA:         -16.271
REMARK INTER:                 -10.135
REMARK INTRA:                  -6.136
REMARK CONF_INDEPENDENT:        2.983
REMARK UNBOUND:                -6.136
REMARK  10 active torsions:
REMARK  status: ('A' for Active; 'I' for Inactive)
REMARK    1  A    between atoms: CB_2  and  OG1_3 
REMARK    2  A    between atoms: CB_2  and  CA_4 
REMARK    3  A    between atoms: CA_4  and  N_5 
REMARK    4  A    between atoms: CA_4  and  C_31 
REMARK       I    between atoms: N_5  and  C_6 
REMARK    5  A    between atoms: C_6  and  C_8 
REMARK    6  A    between atoms: C_9  and  C_8 
REMARK    7  A    between atoms: C_9  and  C_24 
REMARK    8  A    between atoms: C_9  and  C_10 
REMARK    9  A    between atoms: C_10  and  N_11 
REMARK       I    between atoms: N_11  and  C_12 
REMARK   10  A    between atoms: C_14  and  C_12 
ROOT
ATOM      1  C   UNK d   0      23.063 -17.822   0.012  0.00  0.00     0.045 C 
ENDROOT
BRANCH   1   2
ATOM      2  C   UNK d   0      21.759 -18.585   0.099  0.00  0.00    -0.052 A 
ATOM      3  C   UNK d   0      21.257 -18.950   1.356  0.00  0.00     0.009 A 
ATOM      4  C   UNK d   0      20.097 -19.712   1.447  0.00  0.00     0.024 A 
ATOM      5  C   UNK d   0      19.431 -20.095   0.283  0.00  0.00     0.034 A 
ATOM      6 CL   UNK d   0      18.028 -21.083   0.389  0.00  0.00    -0.084 Cl
ATOM      7  C   UNK d   0      19.897 -19.699  -0.969  0.00  0.00     0.024 A 
ATOM      8  C   UNK d   0      21.061 -18.946  -1.061  0.00  0.00     0.009 A 
ENDBRANCH   1   2
BRANCH   1   9
ATOM      9  C   UNK d   0      24.243 -18.802  -0.149  0.00  0.00     0.132 C 
BRANCH   9  10
ATOM     10  N   UNK d   0      25.455 -18.210  -0.684  0.00  0.00    -0.359 N 
ATOM     11  C   UNK d   0      26.615 -18.203   0.060  0.00  0.00     0.251 C 
ATOM     12  O   UNK d   0      26.770 -18.944   1.035  0.00  0.00    -0.271 OA
ATOM     13  H   UNK d   0      25.415 -17.635  -1.523  0.00  0.00     0.162 HD
BRANCH  11  14
ATOM     14  C   UNK d   0      27.654 -17.162  -0.392  0.00  0.00     0.316 C 
ATOM     15  C   UNK d   0      29.053 -17.794  -0.520  0.00  0.00     0.084 C 
ATOM     16  C   UNK d   0      30.055 -16.700  -0.801  0.00  0.00    -0.048 A 
ATOM     17  C   UNK d   0      31.094 -16.831  -1.724  0.00  0.00     0.008 A 
ATOM     18  C   UNK d   0      29.885 -15.494  -0.099  0.00  0.00    -0.024 A 
ATOM     19  C   UNK d   0      31.942 -15.749  -1.968  0.00  0.00     0.001 A 
ATOM     20  C   UNK d   0      31.758 -14.541  -1.291  0.00  0.00     0.001 A 
ATOM     21  C   UNK d   0      30.737 -14.416  -0.349  0.00  0.00     0.009 A 
ATOM     22  C   UNK d   0      28.801 -15.432   0.944  0.00  0.00     0.310 C 
ATOM     23  N   UNK d   0      27.526 -15.982   0.503  0.00  0.00     0.101 N 
ATOM     24  H   UNK d   0      27.009 -15.269  -0.014  0.00  0.00     0.317 HD
ENDBRANCH  11  14
ENDBRANCH   9  10
ENDBRANCH   1   9
BRANCH   1  25
ATOM     25  C   UNK d   0      23.023 -16.807  -1.126  0.00  0.00     0.113 C 
BRANCH  25  26
ATOM     26  C   UNK d   0      24.220 -15.888  -1.217  0.00  0.00     0.219 C 
ATOM     27  N   THR d   1      24.376 -15.153  -2.368  0.00  0.00    -0.344 N 
ATOM     28  H   THR d   1      24.105 -15.545  -3.266  0.00  0.00     0.163 HD
ATOM     29  O   UNK d   0      24.925 -15.757  -0.212  0.00  0.00    -0.274 OA
BRANCH  27  30
ATOM     30  CA  THR d   1      25.410 -14.094  -2.583  0.00  0.00     0.214 C 
BRANCH  30  31
ATOM     31  CB  THR d   1      25.390 -13.605  -4.049  0.00  0.00     0.147 C 
ATOM     32  CG2 THR d   1      26.640 -12.829  -4.443  0.00  0.00     0.042 C 
BRANCH  31  33
ATOM     33  OG1 THR d   1      25.316 -14.663  -5.006  0.00  0.00    -0.393 OA
ATOM     34  HG1 THR d   1      25.884 -15.381  -4.685  0.00  0.00     0.210 HD
ENDBRANCH  31  33
ENDBRANCH  30  31
BRANCH  30  35
ATOM     35  C   THR d   1      26.835 -14.645  -2.174  0.00  0.00     0.199 C 
ATOM     36  O   THR d   1      27.503 -13.989  -1.334  0.00  0.00    -0.646 OA
ATOM     37  OXT THR d   1      27.197 -15.649  -2.862  0.00  0.00    -0.646 OA
ENDBRANCH  30  35
ENDBRANCH  27  30
ENDBRANCH  25  26
ENDBRANCH   1  25
TORSDOF 10
ENDMDL
MODEL 4
REMARK VINA RESULT:    -7.040      3.172      7.223
REMARK INTER + INTRA:         -17.118
REMARK INTER:                 -10.023
REMARK INTRA:                  -7.094
REMARK CONF_INDEPENDENT:        2.983
REMARK UNBOUND:                -7.094
REMARK  10 active torsions:
REMARK  status: ('A' for Active; 'I' for Inactive)
REMARK    1  A    between atoms: CB_2  and  OG1_3 
REMARK    2  A    between atoms: CB_2  and  CA_4 
REMARK    3  A    between atoms: CA_4  and  N_5 
REMARK    4  A    between atoms: CA_4  and  C_31 
REMARK       I    between atoms: N_5  and  C_6 
REMARK    5  A    between atoms: C_6  and  C_8 
REMARK    6  A    between atoms: C_9  and  C_8 
REMARK    7  A    between atoms: C_9  and  C_24 
REMARK    8  A    between atoms: C_9  and  C_10 
REMARK    9  A    between atoms: C_10  and  N_11 
REMARK       I    between atoms: N_11  and  C_12 
REMARK   10  A    between atoms: C_14  and  C_12 
ROOT
ATOM      1  C   UNK d   0      25.677 -16.726  -1.044  0.00  0.00     0.045 C 
ENDROOT
BRANCH   1   2
ATOM      2  C   UNK d   0      24.315 -17.357  -0.850  0.00  0.00    -0.052 A 
ATOM      3  C   UNK d   0      24.227 -18.716  -0.521  0.00  0.00     0.009 A 
ATOM      4  C   UNK d   0      22.981 -19.325  -0.409  0.00  0.00     0.024 A 
ATOM      5  C   UNK d   0      21.825 -18.571  -0.611  0.00  0.00     0.034 A 
ATOM      6 CL   UNK d   0      20.286 -19.332  -0.528  0.00  0.00    -0.084 Cl
ATOM      7  C   UNK d   0      21.902 -17.209  -0.895  0.00  0.00     0.024 A 
ATOM      8  C   UNK d   0      23.146 -16.603  -1.015  0.00  0.00     0.009 A 
ENDBRANCH   1   2
BRANCH   1   9
ATOM      9  C   UNK d   0      25.526 -15.235  -1.411  0.00  0.00     0.132 C 
BRANCH   9  10
ATOM     10  N   UNK d   0      26.602 -14.698  -2.221  0.00  0.00    -0.359 N 
ATOM     11  C   UNK d   0      26.501 -14.686  -3.596  0.00  0.00     0.251 C 
ATOM     12  O   UNK d   0      25.418 -14.824  -4.172  0.00  0.00    -0.271 OA
ATOM     13  H   UNK d   0      27.508 -14.500  -1.801  0.00  0.00     0.162 HD
BRANCH  11  14
ATOM     14  C   UNK d   0      27.845 -14.549  -4.331  0.00  0.00     0.316 C 
ATOM     15  C   UNK d   0      27.634 -14.160  -5.807  0.00  0.00     0.084 C 
ATOM     16  C   UNK d   0      28.966 -14.204  -6.516  0.00  0.00    -0.048 A 
ATOM     17  C   UNK d   0      29.374 -13.242  -7.441  0.00  0.00     0.008 A 
ATOM     18  C   UNK d   0      29.824 -15.266  -6.180  0.00  0.00    -0.024 A 
ATOM     19  C   UNK d   0      30.648 -13.325  -8.008  0.00  0.00     0.001 A 
ATOM     20  C   UNK d   0      31.511 -14.364  -7.655  0.00  0.00     0.001 A 
ATOM     21  C   UNK d   0      31.097 -15.341  -6.750  0.00  0.00     0.009 A 
ATOM     22  C   UNK d   0      29.305 -16.321  -5.239  0.00  0.00     0.310 C 
ATOM     23  N   UNK d   0      28.630 -15.783  -4.065  0.00  0.00     0.101 N 
ATOM     24  H   UNK d   0      29.323 -15.550  -3.351  0.00  0.00     0.317 HD
ENDBRANCH  11  14
ENDBRANCH   9  10
ENDBRANCH   1   9
BRANCH   1  25
ATOM     25  C   UNK d   0      26.541 -16.908   0.201  0.00  0.00     0.113 C 
BRANCH  25  26
ATOM     26  C   UNK d   0      27.876 -16.199   0.171  0.00  0.00     0.219 C 
ATOM     27  N   THR d   1      28.994 -16.952  -0.101  0.00  0.00    -0.344 N 
ATOM     28  H   THR d   1      29.058 -17.911   0.231  0.00  0.00     0.163 HD
ATOM     29  O   UNK d   0      27.880 -14.969   0.276  0.00  0.00    -0.274 OA
BRANCH  27  30
ATOM     30  CA  THR d   1      30.371 -16.408  -0.311  0.00  0.00     0.214 C 
BRANCH  30  31
ATOM     31  CB  THR d   1      30.779 -15.492   0.865  0.00  0.00     0.147 C 
ATOM     32  CG2 THR d   1      32.287 -15.345   1.021  0.00  0.00     0.042 C 
BRANCH  31  33
ATOM     33  OG1 THR d   1      30.305 -14.150   0.738  0.00  0.00    -0.393 OA
ATOM     34  HG1 THR d   1      29.812 -14.097  -0.094  0.00  0.00     0.210 HD
ENDBRANCH  31  33
ENDBRANCH  30  31
BRANCH  30  35
ATOM     35  C   THR d   1      30.439 -15.643  -1.693  0.00  0.00     0.199 C 
ATOM     36  O   THR d   1      29.659 -14.671  -1.869  0.00  0.00    -0.646 OA
ATOM     37  OXT THR d   1      31.210 -16.201  -2.535  0.00  0.00    -0.646 OA
ENDBRANCH  30  35
ENDBRANCH  27  30
ENDBRANCH  25  26
ENDBRANCH   1  25
TORSDOF 10
ENDMDL
