MODEL 1
REMARK VINA RESULT:    -7.919      0.000      0.000
REMARK INTER + INTRA:         -10.716
REMARK INTER:                  -9.113
REMARK INTRA:                  -1.604
REMARK CONF_INDEPENDENT:        1.193
REMARK UNBOUND:                -1.604
REMARK  4 active torsions:
REMARK  status: ('A' for Active; 'I' for Inactive)
REMARK       I    between atoms: C_2  and  N_3 
REMARK    1  A    between atoms: C_2  and  C_12 
REMARK    2  A    between atoms: N_3  and  N_4 
REMARK       I    between atoms: N_4  and  C_5 
REMARK    3  A    between atoms: C_5  and  C_7 
REMARK    4  A    between atoms: C_16  and  O_17 
ROOT
ATOM      1  O   UNL d   1      20.612 -17.906  -1.270  0.00  0.00    -0.266 OA
ATOM      2  C   UNL d   1      21.040 -18.643  -0.384  0.00  0.00     0.270 C 
ATOM      3  N   UNL d   1      22.392 -18.750  -0.076  0.00  0.00    -0.263 N 
ATOM      4  H   UNL d   1      22.771 -19.418   0.595  0.00  0.00     0.190 HD
ENDROOT
BRANCH   3   5
ATOM      5  N   UNL d   1      23.334 -17.954  -0.784  0.00  0.00    -0.261 N 
ATOM      6  C   UNL d   1      24.675 -17.908  -0.399  0.00  0.00     0.293 C 
ATOM      7  O   UNL d   1      25.091 -18.575   0.555  0.00  0.00    -0.264 OA
ATOM      8  H   UNL d   1      22.992 -17.487  -1.623  0.00  0.00     0.190 HD
BRANCH   6   9
ATOM      9  C   UNL d   1      25.499 -17.000  -1.187  0.00  0.00     0.144 A 
ATOM     10  C   UNL d   1      26.817 -16.604  -1.024  0.00  0.00     0.045 A 
ATOM     11  C   UNL d   1      27.109 -15.670  -2.047  0.00  0.00     0.027 A 
ATOM     12  C   UNL d   1      25.965 -15.564  -2.802  0.00  0.00     0.143 A 
ATOM     13  O   UNL d   1      24.992 -16.383  -2.309  0.00  0.00    -0.317 OA
ENDBRANCH   6   9
ENDBRANCH   3   5
BRANCH   2  14
ATOM     14  C   UNL d   1      20.085 -19.464   0.427  0.00  0.00     0.036 A 
ATOM     15  C   UNL d   1      20.260 -19.604   1.816  0.00  0.00     0.017 A 
ATOM     16  C   UNL d   1      19.420 -20.450   2.558  0.00  0.00     0.004 A 
ATOM     17  C   UNL d   1      18.410 -21.173   1.922  0.00  0.00     0.036 A 
ATOM     18  C   UNL d   1      18.244 -21.031   0.547  0.00  0.00     0.066 A 
ATOM     19  C   UNL d   1      19.069 -20.188  -0.201  0.00  0.00     0.053 A 
BRANCH  18  20
ATOM     20  O   UNL d   1      17.280 -21.717  -0.133  0.00  0.00    -0.361 OA
ATOM     21  H   UNL d   1      17.262 -22.640   0.169  0.00  0.00     0.217 HD
ENDBRANCH  18  20
ENDBRANCH   2  14
TORSDOF 4
ENDMDL
MODEL 2
REMARK VINA RESULT:    -7.827      1.271      7.654
REMARK INTER + INTRA:         -10.627
REMARK INTER:                  -9.020
REMARK INTRA:                  -1.607
REMARK CONF_INDEPENDENT:        1.193
REMARK UNBOUND:                -1.607
REMARK  4 active torsions:
REMARK  status: ('A' for Active; 'I' for Inactive)
REMARK       I    between atoms: C_2  and  N_3 
REMARK    1  A    between atoms: C_2  and  C_12 
REMARK    2  A    between atoms: N_3  and  N_4 
REMARK       I    between atoms: N_4  and  C_5 
REMARK    3  A    between atoms: C_5  and  C_7 
REMARK    4  A    between atoms: C_16  and  O_17 
ROOT
ATOM      1  O   UNL d   1      24.595 -18.200   0.928  0.00  0.00    -0.266 OA
ATOM      2  C   UNL d   1      24.274 -17.881  -0.215  0.00  0.00     0.270 C 
ATOM      3  N   UNL d   1      23.026 -18.169  -0.758  0.00  0.00    -0.263 N 
ATOM      4  H   UNL d   1      22.774 -17.989  -1.729  0.00  0.00     0.190 HD
ENDROOT
BRANCH   3   5
ATOM      5  N   UNL d   1      22.054 -18.833   0.040  0.00  0.00    -0.261 N 
ATOM      6  C   UNL d   1      20.903 -19.380  -0.530  0.00  0.00     0.293 C 
ATOM      7  O   UNL d   1      20.703 -19.325  -1.748  0.00  0.00    -0.264 OA
ATOM      8  H   UNL d   1      22.282 -18.951   1.027  0.00  0.00     0.190 HD
BRANCH   6   9
ATOM      9  C   UNL d   1      19.977 -19.971   0.428  0.00  0.00     0.144 A 
ATOM     10  C   UNL d   1      18.823 -20.713   0.230  0.00  0.00     0.045 A 
ATOM     11  C   UNL d   1      18.281 -21.003   1.505  0.00  0.00     0.027 A 
ATOM     12  C   UNL d   1      19.146 -20.450   2.420  0.00  0.00     0.143 A 
ATOM     13  O   UNL d   1      20.190 -19.846   1.783  0.00  0.00    -0.317 OA
ENDBRANCH   6   9
ENDBRANCH   3   5
BRANCH   2  14
ATOM     14  C   UNL d   1      25.242 -17.134  -1.079  0.00  0.00     0.036 A 
ATOM     15  C   UNL d   1      26.615 -17.122  -0.773  0.00  0.00     0.017 A 
ATOM     16  C   UNL d   1      27.507 -16.344  -1.530  0.00  0.00     0.004 A 
ATOM     17  C   UNL d   1      27.036 -15.561  -2.585  0.00  0.00     0.036 A 
ATOM     18  C   UNL d   1      25.676 -15.575  -2.880  0.00  0.00     0.066 A 
ATOM     19  C   UNL d   1      24.780 -16.350  -2.140  0.00  0.00     0.053 A 
BRANCH  18  20
ATOM     20  O   UNL d   1      25.154 -14.825  -3.894  0.00  0.00    -0.361 OA
ATOM     21  H   UNL d   1      25.521 -13.926  -3.856  0.00  0.00     0.217 HD
ENDBRANCH  18  20
ENDBRANCH   2  14
TORSDOF 4
ENDMDL
MODEL 3
REMARK VINA RESULT:    -7.823      1.292      7.758
REMARK INTER + INTRA:          -9.829
REMARK INTER:                  -9.016
REMARK INTRA:                  -0.813
REMARK CONF_INDEPENDENT:        1.193
REMARK UNBOUND:                -0.813
REMARK  4 active torsions:
REMARK  status: ('A' for Active; 'I' for Inactive)
REMARK       I    between atoms: C_2  and  N_3 
REMARK    1  A    between atoms: C_2  and  C_12 
REMARK    2  A    between atoms: N_3  and  N_4 
REMARK       I    between atoms: N_4  and  C_5 
REMARK    3  A    between atoms: C_5  and  C_7 
REMARK    4  A    between atoms: C_16  and  O_17 
ROOT
ATOM      1  O   UNL d   1      24.282 -18.463   1.210  0.00  0.00    -0.266 OA
ATOM      2  C   UNL d   1      24.207 -18.134   0.027  0.00  0.00     0.270 C 
ATOM      3  N   UNL d   1      23.138 -18.490  -0.790  0.00  0.00    -0.263 N 
ATOM      4  H   UNL d   1      23.102 -18.301  -1.790  0.00  0.00     0.190 HD
ENDROOT
BRANCH   3   5
ATOM      5  N   UNL d   1      22.060 -19.238  -0.242  0.00  0.00    -0.261 N 
ATOM      6  C   UNL d   1      20.734 -18.889  -0.502  0.00  0.00     0.293 C 
ATOM      7  O   UNL d   1      20.454 -17.934  -1.235  0.00  0.00    -0.264 OA
ATOM      8  H   UNL d   1      22.310 -20.077   0.281  0.00  0.00     0.190 HD
BRANCH   6   9
ATOM      9  C   UNL d   1      19.747 -19.716   0.181  0.00  0.00     0.144 A 
ATOM     10  C   UNL d   1      19.574 -19.990   1.528  0.00  0.00     0.045 A 
ATOM     11  C   UNL d   1      18.488 -20.890   1.643  0.00  0.00     0.027 A 
ATOM     12  C   UNL d   1      18.031 -21.099   0.363  0.00  0.00     0.143 A 
ATOM     13  O   UNL d   1      18.767 -20.374  -0.529  0.00  0.00    -0.317 OA
ENDBRANCH   6   9
ENDBRANCH   3   5
BRANCH   2  14
ATOM     14  C   UNL d   1      25.290 -17.301  -0.584  0.00  0.00     0.036 A 
ATOM     15  C   UNL d   1      24.981 -16.296  -1.518  0.00  0.00     0.017 A 
ATOM     16  C   UNL d   1      26.006 -15.581  -2.161  0.00  0.00     0.004 A 
ATOM     17  C   UNL d   1      27.343 -15.873  -1.890  0.00  0.00     0.036 A 
ATOM     18  C   UNL d   1      27.642 -16.871  -0.967  0.00  0.00     0.066 A 
ATOM     19  C   UNL d   1      26.632 -17.584  -0.316  0.00  0.00     0.053 A 
BRANCH  18  20
ATOM     20  O   UNL d   1      28.930 -17.207  -0.666  0.00  0.00    -0.361 OA
ATOM     21  H   UNL d   1      28.947 -17.739   0.147  0.00  0.00     0.217 HD
ENDBRANCH  18  20
ENDBRANCH   2  14
TORSDOF 4
ENDMDL
MODEL 4
REMARK VINA RESULT:    -7.618      1.092      1.574
REMARK INTER + INTRA:         -10.318
REMARK INTER:                  -8.811
REMARK INTRA:                  -1.506
REMARK CONF_INDEPENDENT:        1.193
REMARK UNBOUND:                -1.506
REMARK  4 active torsions:
REMARK  status: ('A' for Active; 'I' for Inactive)
REMARK       I    between atoms: C_2  and  N_3 
REMARK    1  A    between atoms: C_2  and  C_12 
REMARK    2  A    between atoms: N_3  and  N_4 
REMARK       I    between atoms: N_4  and  C_5 
REMARK    3  A    between atoms: C_5  and  C_7 
REMARK    4  A    between atoms: C_16  and  O_17 
ROOT
ATOM      1  O   UNL d   1      20.645 -17.776  -1.270  0.00  0.00    -0.266 OA
ATOM      2  C   UNL d   1      21.079 -18.648  -0.520  0.00  0.00     0.270 C 
ATOM      3  N   UNL d   1      22.439 -18.861  -0.315  0.00  0.00    -0.263 N 
ATOM      4  H   UNL d   1      22.816 -19.632   0.234  0.00  0.00     0.190 HD
ENDROOT
BRANCH   3   5
ATOM      5  N   UNL d   1      23.382 -18.021  -0.968  0.00  0.00    -0.261 N 
ATOM      6  C   UNL d   1      24.697 -17.920  -0.509  0.00  0.00     0.293 C 
ATOM      7  O   UNL d   1      25.089 -18.575   0.463  0.00  0.00    -0.264 OA
ATOM      8  H   UNL d   1      23.067 -17.564  -1.822  0.00  0.00     0.190 HD
BRANCH   6   9
ATOM      9  C   UNL d   1      25.523 -16.973  -1.248  0.00  0.00     0.144 A 
ATOM     10  C   UNL d   1      26.836 -16.575  -1.052  0.00  0.00     0.045 A 
ATOM     11  C   UNL d   1      27.133 -15.596  -2.030  0.00  0.00     0.027 A 
ATOM     12  C   UNL d   1      25.997 -15.466  -2.794  0.00  0.00     0.143 A 
ATOM     13  O   UNL d   1      25.024 -16.312  -2.348  0.00  0.00    -0.317 OA
ENDBRANCH   6   9
ENDBRANCH   3   5
BRANCH   2  14
ATOM     14  C   UNL d   1      20.126 -19.525   0.232  0.00  0.00     0.036 A 
ATOM     15  C   UNL d   1      19.005 -20.082  -0.409  0.00  0.00     0.017 A 
ATOM     16  C   UNL d   1      18.062 -20.825   0.321  0.00  0.00     0.004 A 
ATOM     17  C   UNL d   1      18.222 -21.006   1.696  0.00  0.00     0.036 A 
ATOM     18  C   UNL d   1      19.333 -20.450   2.324  0.00  0.00     0.066 A 
ATOM     19  C   UNL d   1      20.280 -19.715   1.608  0.00  0.00     0.053 A 
BRANCH  18  20
ATOM     20  O   UNL d   1      19.539 -20.586   3.666  0.00  0.00    -0.361 OA
ATOM     21  H   UNL d   1      20.415 -20.977   3.824  0.00  0.00     0.217 HD
ENDBRANCH  18  20
ENDBRANCH   2  14
TORSDOF 4
ENDMDL
MODEL 5
REMARK VINA RESULT:    -7.247      1.559      7.836
REMARK INTER + INTRA:         -10.065
REMARK INTER:                  -8.441
REMARK INTRA:                  -1.624
REMARK CONF_INDEPENDENT:        1.193
REMARK UNBOUND:                -1.624
REMARK  4 active torsions:
REMARK  status: ('A' for Active; 'I' for Inactive)
REMARK       I    between atoms: C_2  and  N_3 
REMARK    1  A    between atoms: C_2  and  C_12 
REMARK    2  A    between atoms: N_3  and  N_4 
REMARK       I    between atoms: N_4  and  C_5 
REMARK    3  A    between atoms: C_5  and  C_7 
REMARK    4  A    between atoms: C_16  and  O_17 
ROOT
ATOM      1  O   UNL d   1      24.517 -18.352   1.357  0.00  0.00    -0.266 OA
ATOM      2  C   UNL d   1      24.367 -18.041   0.177  0.00  0.00     0.270 C 
ATOM      3  N   UNL d   1      23.199 -18.305  -0.532  0.00  0.00    -0.263 N 
ATOM      4  H   UNL d   1      23.090 -18.132  -1.530  0.00  0.00     0.190 HD
ENDROOT
BRANCH   3   5
ATOM      5  N   UNL d   1      22.109 -18.933   0.130  0.00  0.00    -0.261 N 
ATOM      6  C   UNL d   1      21.023 -19.438  -0.588  0.00  0.00     0.293 C 
ATOM      7  O   UNL d   1      20.986 -19.377  -1.822  0.00  0.00    -0.264 OA
ATOM      8  H   UNL d   1      22.201 -19.059   1.137  0.00  0.00     0.190 HD
BRANCH   6   9
ATOM      9  C   UNL d   1      19.959 -19.996   0.238  0.00  0.00     0.144 A 
ATOM     10  C   UNL d   1      18.692 -20.443  -0.101  0.00  0.00     0.045 A 
ATOM     11  C   UNL d   1      18.050 -20.845   1.095  0.00  0.00     0.027 A 
ATOM     12  C   UNL d   1      18.967 -20.653   2.101  0.00  0.00     0.143 A 
ATOM     13  O   UNL d   1      20.135 -20.165   1.593  0.00  0.00    -0.317 OA
ENDBRANCH   6   9
ENDBRANCH   3   5
BRANCH   2  14
ATOM     14  C   UNL d   1      25.466 -17.330  -0.551  0.00  0.00     0.036 A 
ATOM     15  C   UNL d   1      25.182 -16.529  -1.673  0.00  0.00     0.017 A 
ATOM     16  C   UNL d   1      26.223 -15.942  -2.410  0.00  0.00     0.004 A 
ATOM     17  C   UNL d   1      27.553 -16.160  -2.046  0.00  0.00     0.036 A 
ATOM     18  C   UNL d   1      27.826 -16.956  -0.937  0.00  0.00     0.066 A 
ATOM     19  C   UNL d   1      26.800 -17.540  -0.192  0.00  0.00     0.053 A 
BRANCH  18  20
ATOM     20  O   UNL d   1      29.105 -17.211  -0.536  0.00  0.00    -0.361 OA
ATOM     21  H   UNL d   1      29.094 -17.822   0.220  0.00  0.00     0.217 HD
ENDBRANCH  18  20
ENDBRANCH   2  14
TORSDOF 4
ENDMDL
MODEL 6
REMARK VINA RESULT:    -6.896      1.757      7.757
REMARK INTER + INTRA:          -8.689
REMARK INTER:                  -8.090
REMARK INTRA:                  -0.600
REMARK CONF_INDEPENDENT:        1.193
REMARK UNBOUND:                -0.600
REMARK  4 active torsions:
REMARK  status: ('A' for Active; 'I' for Inactive)
REMARK       I    between atoms: C_2  and  N_3 
REMARK    1  A    between atoms: C_2  and  C_12 
REMARK    2  A    between atoms: N_3  and  N_4 
REMARK       I    between atoms: N_4  and  C_5 
REMARK    3  A    between atoms: C_5  and  C_7 
REMARK    4  A    between atoms: C_16  and  O_17 
ROOT
ATOM      1  O   UNL d   1      23.021 -15.577  -1.576  0.00  0.00    -0.266 OA
ATOM      2  C   UNL d   1      24.052 -16.223  -1.396  0.00  0.00     0.270 C 
ATOM      3  N   UNL d   1      24.079 -17.427  -0.700  0.00  0.00    -0.263 N 
ATOM      4  H   UNL d   1      24.935 -17.930  -0.468  0.00  0.00     0.190 HD
ENDROOT
BRANCH   3   5
ATOM      5  N   UNL d   1      22.864 -17.969  -0.196  0.00  0.00    -0.261 N 
ATOM      6  C   UNL d   1      22.138 -18.913  -0.925  0.00  0.00     0.293 C 
ATOM      7  O   UNL d   1      22.539 -19.325  -2.019  0.00  0.00    -0.264 OA
ATOM      8  H   UNL d   1      22.600 -17.688   0.747  0.00  0.00     0.190 HD
BRANCH   6   9
ATOM      9  C   UNL d   1      20.886 -19.324  -0.302  0.00  0.00     0.144 A 
ATOM     10  C   UNL d   1      20.529 -19.414   1.034  0.00  0.00     0.045 A 
ATOM     11  C   UNL d   1      19.205 -19.911   1.086  0.00  0.00     0.027 A 
ATOM     12  C   UNL d   1      18.807 -20.072  -0.220  0.00  0.00     0.143 A 
ATOM     13  O   UNL d   1      19.805 -19.695  -1.070  0.00  0.00    -0.317 OA
ENDBRANCH   6   9
ENDBRANCH   3   5
BRANCH   2  14
ATOM     14  C   UNL d   1      25.350 -15.723  -1.951  0.00  0.00     0.036 A 
ATOM     15  C   UNL d   1      26.292 -15.093  -1.118  0.00  0.00     0.017 A 
ATOM     16  C   UNL d   1      27.465 -14.541  -1.658  0.00  0.00     0.004 A 
ATOM     17  C   UNL d   1      27.700 -14.597  -3.033  0.00  0.00     0.036 A 
ATOM     18  C   UNL d   1      26.762 -15.220  -3.852  0.00  0.00     0.066 A 
ATOM     19  C   UNL d   1      25.595 -15.779  -3.326  0.00  0.00     0.053 A 
BRANCH  18  20
ATOM     20  O   UNL d   1      26.932 -15.300  -5.204  0.00  0.00    -0.361 OA
ATOM     21  H   UNL d   1      27.659 -15.913  -5.405  0.00  0.00     0.217 HD
ENDBRANCH  18  20
ENDBRANCH   2  14
TORSDOF 4
ENDMDL
MODEL 7
REMARK VINA RESULT:    -5.668      3.460      9.196
REMARK INTER + INTRA:          -8.449
REMARK INTER:                  -6.861
REMARK INTRA:                  -1.588
REMARK CONF_INDEPENDENT:        1.193
REMARK UNBOUND:                -1.588
REMARK  4 active torsions:
REMARK  status: ('A' for Active; 'I' for Inactive)
REMARK       I    between atoms: C_2  and  N_3 
REMARK    1  A    between atoms: C_2  and  C_12 
REMARK    2  A    between atoms: N_3  and  N_4 
REMARK       I    between atoms: N_4  and  C_5 
REMARK    3  A    between atoms: C_5  and  C_7 
REMARK    4  A    between atoms: C_16  and  O_17 
ROOT
ATOM      1  O   UNL d   1      24.410 -14.302  -4.605  0.00  0.00    -0.266 OA
ATOM      2  C   UNL d   1      25.566 -14.528  -4.253  0.00  0.00     0.270 C 
ATOM      3  N   UNL d   1      25.883 -15.367  -3.189  0.00  0.00    -0.263 N 
ATOM      4  H   UNL d   1      26.827 -15.497  -2.831  0.00  0.00     0.190 HD
ENDROOT
BRANCH   3   5
ATOM      5  N   UNL d   1      24.837 -16.028  -2.487  0.00  0.00    -0.261 N 
ATOM      6  C   UNL d   1      25.114 -17.027  -1.552  0.00  0.00     0.293 C 
ATOM      7  O   UNL d   1      26.277 -17.352  -1.288  0.00  0.00    -0.264 OA
ATOM      8  H   UNL d   1      23.893 -15.681  -2.649  0.00  0.00     0.190 HD
BRANCH   6   9
ATOM      9  C   UNL d   1      23.934 -17.648  -0.964  0.00  0.00     0.144 A 
ATOM     10  C   UNL d   1      23.813 -18.748  -0.130  0.00  0.00     0.045 A 
ATOM     11  C   UNL d   1      22.433 -18.950   0.108  0.00  0.00     0.027 A 
ATOM     12  C   UNL d   1      21.780 -17.946  -0.568  0.00  0.00     0.143 A 
ATOM     13  O   UNL d   1      22.678 -17.136  -1.200  0.00  0.00    -0.317 OA
ENDBRANCH   6   9
ENDBRANCH   3   5
BRANCH   2  14
ATOM     14  C   UNL d   1      26.706 -13.898  -4.993  0.00  0.00     0.036 A 
ATOM     15  C   UNL d   1      26.864 -12.501  -5.011  0.00  0.00     0.017 A 
ATOM     16  C   UNL d   1      27.878 -11.909  -5.783  0.00  0.00     0.004 A 
ATOM     17  C   UNL d   1      28.729 -12.702  -6.554  0.00  0.00     0.036 A 
ATOM     18  C   UNL d   1      28.564 -14.085  -6.532  0.00  0.00     0.066 A 
ATOM     19  C   UNL d   1      27.565 -14.685  -5.764  0.00  0.00     0.053 A 
BRANCH  18  20
ATOM     20  O   UNL d   1      29.361 -14.912  -7.270  0.00  0.00    -0.361 OA
ATOM     21  H   UNL d   1      29.142 -14.820  -8.213  0.00  0.00     0.217 HD
ENDBRANCH  18  20
ENDBRANCH   2  14
TORSDOF 4
ENDMDL
MODEL 8
REMARK VINA RESULT:    -5.613      4.202      6.574
REMARK INTER + INTRA:          -8.431
REMARK INTER:                  -6.806
REMARK INTRA:                  -1.625
REMARK CONF_INDEPENDENT:        1.193
REMARK UNBOUND:                -1.625
REMARK  4 active torsions:
REMARK  status: ('A' for Active; 'I' for Inactive)
REMARK       I    between atoms: C_2  and  N_3 
REMARK    1  A    between atoms: C_2  and  C_12 
REMARK    2  A    between atoms: N_3  and  N_4 
REMARK       I    between atoms: N_4  and  C_5 
REMARK    3  A    between atoms: C_5  and  C_7 
REMARK    4  A    between atoms: C_16  and  O_17 
ROOT
ATOM      1  O   UNL d   1      24.447 -14.451  -3.135  0.00  0.00    -0.266 OA
ATOM      2  C   UNL d   1      25.269 -15.325  -2.866  0.00  0.00     0.270 C 
ATOM      3  N   UNL d   1      26.464 -15.479  -3.561  0.00  0.00    -0.263 N 
ATOM      4  H   UNL d   1      27.114 -16.249  -3.409  0.00  0.00     0.190 HD
ENDROOT
BRANCH   3   5
ATOM      5  N   UNL d   1      26.782 -14.574  -4.611  0.00  0.00    -0.261 N 
ATOM      6  C   UNL d   1      27.842 -14.825  -5.485  0.00  0.00     0.293 C 
ATOM      7  O   UNL d   1      28.522 -15.852  -5.388  0.00  0.00    -0.264 OA
ATOM      8  H   UNL d   1      26.152 -13.783  -4.734  0.00  0.00     0.190 HD
BRANCH   6   9
ATOM      9  C   UNL d   1      28.077 -13.774  -6.467  0.00  0.00     0.144 A 
ATOM     10  C   UNL d   1      28.995 -13.693  -7.501  0.00  0.00     0.045 A 
ATOM     11  C   UNL d   1      28.825 -12.433  -8.123  0.00  0.00     0.027 A 
ATOM     12  C   UNL d   1      27.790 -11.819  -7.458  0.00  0.00     0.143 A 
ATOM     13  O   UNL d   1      27.311 -12.629  -6.471  0.00  0.00    -0.317 OA
ENDBRANCH   6   9
ENDBRANCH   3   5
BRANCH   2  14
ATOM     14  C   UNL d   1      25.007 -16.271  -1.735  0.00  0.00     0.036 A 
ATOM     15  C   UNL d   1      26.042 -17.066  -1.210  0.00  0.00     0.017 A 
ATOM     16  C   UNL d   1      25.773 -18.020  -0.215  0.00  0.00     0.004 A 
ATOM     17  C   UNL d   1      24.470 -18.200   0.253  0.00  0.00     0.036 A 
ATOM     18  C   UNL d   1      23.450 -17.411  -0.273  0.00  0.00     0.066 A 
ATOM     19  C   UNL d   1      23.706 -16.455  -1.258  0.00  0.00     0.053 A 
BRANCH  18  20
ATOM     20  O   UNL d   1      22.156 -17.546   0.138  0.00  0.00    -0.361 OA
ATOM     21  H   UNL d   1      22.031 -17.077   0.980  0.00  0.00     0.217 HD
ENDBRANCH  18  20
ENDBRANCH   2  14
TORSDOF 4
ENDMDL
MODEL 9
REMARK VINA RESULT:    -5.554      3.196      5.271
REMARK INTER + INTRA:          -8.380
REMARK INTER:                  -6.747
REMARK INTRA:                  -1.633
REMARK CONF_INDEPENDENT:        1.193
REMARK UNBOUND:                -1.633
REMARK  4 active torsions:
REMARK  status: ('A' for Active; 'I' for Inactive)
REMARK       I    between atoms: C_2  and  N_3 
REMARK    1  A    between atoms: C_2  and  C_12 
REMARK    2  A    between atoms: N_3  and  N_4 
REMARK       I    between atoms: N_4  and  C_5 
REMARK    3  A    between atoms: C_5  and  C_7 
REMARK    4  A    between atoms: C_16  and  O_17 
ROOT
ATOM      1  O   UNL d   1      25.631 -15.525  -0.338  0.00  0.00    -0.266 OA
ATOM      2  C   UNL d   1      24.759 -15.880  -1.129  0.00  0.00     0.270 C 
ATOM      3  N   UNL d   1      24.564 -15.269  -2.364  0.00  0.00    -0.263 N 
ATOM      4  H   UNL d   1      23.793 -15.493  -2.992  0.00  0.00     0.190 HD
ENDROOT
BRANCH   3   5
ATOM      5  N   UNL d   1      25.423 -14.208  -2.760  0.00  0.00    -0.261 N 
ATOM      6  C   UNL d   1      25.173 -13.471  -3.920  0.00  0.00     0.293 C 
ATOM      7  O   UNL d   1      24.184 -13.702  -4.625  0.00  0.00    -0.264 OA
ATOM      8  H   UNL d   1      26.177 -13.971  -2.118  0.00  0.00     0.190 HD
BRANCH   6   9
ATOM      9  C   UNL d   1      26.177 -12.459  -4.221  0.00  0.00     0.144 A 
ATOM     10  C   UNL d   1      26.289 -11.587  -5.292  0.00  0.00     0.045 A 
ATOM     11  C   UNL d   1      27.481 -10.846  -5.114  0.00  0.00     0.027 A 
ATOM     12  C   UNL d   1      28.024 -11.279  -3.928  0.00  0.00     0.143 A 
ATOM     13  O   UNL d   1      27.232 -12.236  -3.364  0.00  0.00    -0.317 OA
ENDBRANCH   6   9
ENDBRANCH   3   5
BRANCH   2  14
ATOM     14  C   UNL d   1      23.862 -17.027  -0.782  0.00  0.00     0.036 A 
ATOM     15  C   UNL d   1      24.400 -18.269  -0.398  0.00  0.00     0.017 A 
ATOM     16  C   UNL d   1      23.559 -19.369  -0.166  0.00  0.00     0.004 A 
ATOM     17  C   UNL d   1      22.178 -19.246  -0.329  0.00  0.00     0.036 A 
ATOM     18  C   UNL d   1      21.653 -18.015  -0.712  0.00  0.00     0.066 A 
ATOM     19  C   UNL d   1      22.478 -16.912  -0.939  0.00  0.00     0.053 A 
BRANCH  18  20
ATOM     20  O   UNL d   1      20.312 -17.834  -0.895  0.00  0.00    -0.361 OA
ATOM     21  H   UNL d   1      20.131 -17.667  -1.835  0.00  0.00     0.217 HD
ENDBRANCH  18  20
ENDBRANCH   2  14
TORSDOF 4
ENDMDL
