MODEL 1
REMARK VINA RESULT:    -9.756      0.000      0.000
REMARK INTER + INTRA:         -14.721
REMARK INTER:                 -12.441
REMARK INTRA:                  -2.280
REMARK CONF_INDEPENDENT:        2.685
REMARK UNBOUND:                -2.280
REMARK  9 active torsions:
REMARK  status: ('A' for Active; 'I' for Inactive)
REMARK    1  A    between atoms: S_2  and  C_3 
REMARK    2  A    between atoms: C_3  and  C_4 
REMARK    3  A    between atoms: C_5  and  C_4 
REMARK    4  A    between atoms: C_5  and  C_19 
REMARK    5  A    between atoms: C_5  and  N_6 
REMARK       I    between atoms: N_6  and  C_7 
REMARK    6  A    between atoms: C_7  and  C_9 
REMARK       I    between atoms: C_19  and  N_21 
REMARK    7  A    between atoms: N_21  and  C_22 
REMARK    8  A    between atoms: C_26  and  C_27 
REMARK       I    between atoms: C_27  and  N_29 
REMARK    9  A    between atoms: N_29  and  C_30 
ROOT
ATOM      1  C   UNL d   1      26.539 -13.492  -3.093  0.00  0.00     0.178 C 
ENDROOT
BRANCH   1   2
ATOM      2  C   UNL d   1      26.101 -14.477  -1.973  0.00  0.00     0.245 C 
ATOM      3  O   UNL d   1      26.273 -14.215  -0.779  0.00  0.00    -0.271 OA
ATOM      4  N   UNL d   1      25.658 -15.735  -2.383  0.00  0.00    -0.325 N 
ATOM      5  H   UNL d   1      25.876 -16.107  -3.294  0.00  0.00     0.169 HD
BRANCH   4   6
ATOM      6  C   UNL d   1      25.235 -16.645  -1.404  0.00  0.00     0.035 A 
ATOM      7  C   UNL d   1      26.124 -17.323  -0.571  0.00  0.00     0.029 A 
ATOM      8  C   UNL d   1      25.620 -18.291   0.297  0.00  0.00     0.003 A 
ATOM      9  C   UNL d   1      24.242 -18.548   0.329  0.00  0.00     0.017 A 
ATOM     10  C   UNL d   1      23.353 -17.847  -0.509  0.00  0.00     0.034 A 
ATOM     11  C   UNL d   1      23.864 -16.885  -1.355  0.00  0.00     0.046 A 
BRANCH  10  12
ATOM     12  C   UNL d   1      21.909 -18.200  -0.529  0.00  0.00     0.252 C 
ATOM     13  O   UNL d   1      21.133 -17.370  -0.999  0.00  0.00    -0.268 OA
ATOM     14  N   UNL d   1      21.473 -19.418   0.013  0.00  0.00    -0.352 N 
ATOM     15  H   UNL d   1      22.119 -20.111   0.374  0.00  0.00     0.163 HD
BRANCH  14  16
ATOM     16  C   UNL d   1      20.067 -19.710   0.022  0.00  0.00     0.084 A 
ATOM     17  C   UNL d   1      19.518 -20.983   0.605  0.00  0.00     0.027 A 
ATOM     18  C   UNL d   1      19.137 -19.657   1.198  0.00  0.00     0.027 A 
ENDBRANCH  14  16
ENDBRANCH  10  12
ENDBRANCH   4   6
ENDBRANCH   1   2
BRANCH   1  19
ATOM     19  N   UNL d   1      27.789 -13.986  -3.737  0.00  0.00    -0.342 N 
ATOM     20  C   UNL d   1      27.774 -14.956  -4.734  0.00  0.00     0.271 C 
ATOM     21  O   UNL d   1      26.763 -15.574  -5.083  0.00  0.00    -0.266 OA
ATOM     22  H   UNL d   1      28.691 -13.791  -3.312  0.00  0.00     0.163 HD
BRANCH  20  23
ATOM     23  C   UNL d   1      29.039 -15.223  -5.477  0.00  0.00     0.125 A 
ATOM     24  C   UNL d   1      29.606 -14.175  -6.198  0.00  0.00     0.038 A 
ATOM     25  C   UNL d   1      30.619 -14.469  -7.102  0.00  0.00     0.016 A 
ATOM     26  C   UNL d   1      31.024 -15.797  -7.269  0.00  0.00    -0.007 A 
ATOM     27  C   UNL d   1      32.005 -16.147  -8.213  0.00  0.00     0.014 A 
ATOM     28  C   UNL d   1      30.406 -16.789  -6.466  0.00  0.00     0.068 A 
ATOM     29  C   UNL d   1      32.386 -17.477  -8.367  0.00  0.00     0.001 A 
ATOM     30  C   UNL d   1      31.786 -18.457  -7.586  0.00  0.00     0.002 A 
ATOM     31  C   UNL d   1      30.805 -18.105  -6.652  0.00  0.00     0.032 A 
ATOM     32  N   UNL d   1      29.445 -16.513  -5.560  0.00  0.00    -0.243 NA
ENDBRANCH  20  23
ENDBRANCH   1  19
BRANCH   1  33
ATOM     33  C   UNL d   1      25.397 -13.372  -4.152  0.00  0.00     0.045 C 
BRANCH  33  34
ATOM     34  C   UNL d   1      25.530 -12.203  -5.145  0.00  0.00     0.076 C 
BRANCH  34  35
ATOM     35  S   UNL d   1      27.151 -11.395  -5.123  0.00  0.00    -0.173 SA
ATOM     36  C   UNL d   1      27.300 -11.009  -6.898  0.00  0.00     0.089 C 
ENDBRANCH  34  35
ENDBRANCH  33  34
ENDBRANCH   1  33
TORSDOF 9
ENDMDL
MODEL 2
REMARK VINA RESULT:    -9.692      2.755      6.011
REMARK INTER + INTRA:         -14.500
REMARK INTER:                 -12.376
REMARK INTRA:                  -2.123
REMARK CONF_INDEPENDENT:        2.685
REMARK UNBOUND:                -2.123
REMARK  9 active torsions:
REMARK  status: ('A' for Active; 'I' for Inactive)
REMARK    1  A    between atoms: S_2  and  C_3 
REMARK    2  A    between atoms: C_3  and  C_4 
REMARK    3  A    between atoms: C_5  and  C_4 
REMARK    4  A    between atoms: C_5  and  C_19 
REMARK    5  A    between atoms: C_5  and  N_6 
REMARK       I    between atoms: N_6  and  C_7 
REMARK    6  A    between atoms: C_7  and  C_9 
REMARK       I    between atoms: C_19  and  N_21 
REMARK    7  A    between atoms: N_21  and  C_22 
REMARK    8  A    between atoms: C_26  and  C_27 
REMARK       I    between atoms: C_27  and  N_29 
REMARK    9  A    between atoms: N_29  and  C_30 
ROOT
ATOM      1  C   UNL d   1      25.731 -14.379  -4.544  0.00  0.00     0.178 C 
ENDROOT
BRANCH   1   2
ATOM      2  C   UNL d   1      25.155 -15.033  -3.256  0.00  0.00     0.245 C 
ATOM      3  O   UNL d   1      24.250 -14.497  -2.609  0.00  0.00    -0.271 OA
ATOM      4  N   UNL d   1      25.818 -16.163  -2.778  0.00  0.00    -0.325 N 
ATOM      5  H   UNL d   1      26.765 -16.382  -3.047  0.00  0.00     0.169 HD
BRANCH   4   6
ATOM      6  C   UNL d   1      25.319 -16.794  -1.629  0.00  0.00     0.035 A 
ATOM      7  C   UNL d   1      26.135 -17.184  -0.568  0.00  0.00     0.029 A 
ATOM      8  C   UNL d   1      25.566 -17.903   0.483  0.00  0.00     0.003 A 
ATOM      9  C   UNL d   1      24.196 -18.200   0.462  0.00  0.00     0.017 A 
ATOM     10  C   UNL d   1      23.381 -17.789  -0.610  0.00  0.00     0.034 A 
ATOM     11  C   UNL d   1      23.954 -17.070  -1.638  0.00  0.00     0.046 A 
BRANCH  10  12
ATOM     12  C   UNL d   1      21.952 -18.197  -0.660  0.00  0.00     0.252 C 
ATOM     13  O   UNL d   1      21.156 -17.400  -1.154  0.00  0.00    -0.268 OA
ATOM     14  N   UNL d   1      21.548 -19.426  -0.118  0.00  0.00    -0.352 N 
ATOM     15  H   UNL d   1      22.211 -20.092   0.262  0.00  0.00     0.163 HD
BRANCH  14  16
ATOM     16  C   UNL d   1      20.155 -19.770  -0.139  0.00  0.00     0.084 A 
ATOM     17  C   UNL d   1      19.613 -20.959   0.605  0.00  0.00     0.027 A 
ATOM     18  C   UNL d   1      19.156 -19.574   0.962  0.00  0.00     0.027 A 
ENDBRANCH  14  16
ENDBRANCH  10  12
ENDBRANCH   4   6
ENDBRANCH   1   2
BRANCH   1  19
ATOM     19  N   UNL d   1      25.532 -12.903  -4.491  0.00  0.00    -0.342 N 
ATOM     20  C   UNL d   1      26.140 -12.109  -3.524  0.00  0.00     0.271 C 
ATOM     21  O   UNL d   1      26.783 -12.554  -2.567  0.00  0.00    -0.266 OA
ATOM     22  H   UNL d   1      24.778 -12.473  -5.018  0.00  0.00     0.163 HD
BRANCH  20  23
ATOM     23  C   UNL d   1      26.072 -10.629  -3.683  0.00  0.00     0.125 A 
ATOM     24  C   UNL d   1      26.679  -9.839  -2.710  0.00  0.00     0.038 A 
ATOM     25  C   UNL d   1      26.398  -8.478  -2.695  0.00  0.00     0.016 A 
ATOM     26  C   UNL d   1      25.511  -7.952  -3.639  0.00  0.00    -0.007 A 
ATOM     27  C   UNL d   1      25.155  -6.592  -3.625  0.00  0.00     0.014 A 
ATOM     28  C   UNL d   1      24.967  -8.833  -4.608  0.00  0.00     0.068 A 
ATOM     29  C   UNL d   1      24.263  -6.092  -4.570  0.00  0.00     0.001 A 
ATOM     30  C   UNL d   1      23.723  -6.947  -5.523  0.00  0.00     0.002 A 
ATOM     31  C   UNL d   1      24.077  -8.301  -5.529  0.00  0.00     0.032 A 
ATOM     32  N   UNL d   1      25.258 -10.150  -4.655  0.00  0.00    -0.243 NA
ENDBRANCH  20  23
ENDBRANCH   1  19
BRANCH   1  33
ATOM     33  C   UNL d   1      27.252 -14.717  -4.659  0.00  0.00     0.045 C 
BRANCH  33  34
ATOM     34  C   UNL d   1      27.899 -14.413  -6.023  0.00  0.00     0.076 C 
BRANCH  34  35
ATOM     35  S   UNL d   1      28.744 -12.813  -6.100  0.00  0.00    -0.173 SA
ATOM     36  C   UNL d   1      27.415 -11.826  -6.860  0.00  0.00     0.089 C 
ENDBRANCH  34  35
ENDBRANCH  33  34
ENDBRANCH   1  33
TORSDOF 9
ENDMDL
MODEL 3
REMARK VINA RESULT:    -9.393      1.211      1.659
REMARK INTER + INTRA:         -13.730
REMARK INTER:                 -12.078
REMARK INTRA:                  -1.652
REMARK CONF_INDEPENDENT:        2.685
REMARK UNBOUND:                -1.652
REMARK  9 active torsions:
REMARK  status: ('A' for Active; 'I' for Inactive)
REMARK    1  A    between atoms: S_2  and  C_3 
REMARK    2  A    between atoms: C_3  and  C_4 
REMARK    3  A    between atoms: C_5  and  C_4 
REMARK    4  A    between atoms: C_5  and  C_19 
REMARK    5  A    between atoms: C_5  and  N_6 
REMARK       I    between atoms: N_6  and  C_7 
REMARK    6  A    between atoms: C_7  and  C_9 
REMARK       I    between atoms: C_19  and  N_21 
REMARK    7  A    between atoms: N_21  and  C_22 
REMARK    8  A    between atoms: C_26  and  C_27 
REMARK       I    between atoms: C_27  and  N_29 
REMARK    9  A    between atoms: N_29  and  C_30 
ROOT
ATOM      1  C   UNL d   1      27.009 -14.515  -3.780  0.00  0.00     0.178 C 
ENDROOT
BRANCH   1   2
ATOM      2  C   UNL d   1      26.512 -15.243  -2.500  0.00  0.00     0.245 C 
ATOM      3  O   UNL d   1      26.993 -14.998  -1.389  0.00  0.00    -0.271 OA
ATOM      4  N   UNL d   1      25.619 -16.299  -2.686  0.00  0.00    -0.325 N 
ATOM      5  H   UNL d   1      25.521 -16.765  -3.574  0.00  0.00     0.169 HD
BRANCH   4   6
ATOM      6  C   UNL d   1      25.132 -16.969  -1.555  0.00  0.00     0.035 A 
ATOM      7  C   UNL d   1      25.965 -17.449  -0.546  0.00  0.00     0.029 A 
ATOM      8  C   UNL d   1      25.402 -18.200   0.485  0.00  0.00     0.003 A 
ATOM      9  C   UNL d   1      24.020 -18.438   0.498  0.00  0.00     0.017 A 
ATOM     10  C   UNL d   1      23.187 -17.936  -0.521  0.00  0.00     0.034 A 
ATOM     11  C   UNL d   1      23.757 -17.187  -1.529  0.00  0.00     0.046 A 
BRANCH  10  12
ATOM     12  C   UNL d   1      21.741 -18.280  -0.540  0.00  0.00     0.252 C 
ATOM     13  O   UNL d   1      20.997 -17.548  -1.190  0.00  0.00    -0.268 OA
ATOM     14  N   UNL d   1      21.265 -19.375   0.198  0.00  0.00    -0.352 N 
ATOM     15  H   UNL d   1      21.886 -19.992   0.709  0.00  0.00     0.163 HD
BRANCH  14  16
ATOM     16  C   UNL d   1      19.857 -19.653   0.196  0.00  0.00     0.084 A 
ATOM     17  C   UNL d   1      19.306 -20.991   0.605  0.00  0.00     0.027 A 
ATOM     18  C   UNL d   1      18.953 -19.759   1.388  0.00  0.00     0.027 A 
ENDBRANCH  14  16
ENDBRANCH  10  12
ENDBRANCH   4   6
ENDBRANCH   1   2
BRANCH   1  19
ATOM     19  N   UNL d   1      27.871 -15.432  -4.578  0.00  0.00    -0.342 N 
ATOM     20  C   UNL d   1      29.038 -14.997  -5.197  0.00  0.00     0.271 C 
ATOM     21  O   UNL d   1      29.396 -13.815  -5.248  0.00  0.00    -0.266 OA
ATOM     22  H   UNL d   1      27.515 -16.336  -4.873  0.00  0.00     0.163 HD
BRANCH  20  23
ATOM     23  C   UNL d   1      29.952 -16.021  -5.778  0.00  0.00     0.125 A 
ATOM     24  C   UNL d   1      30.643 -15.695  -6.942  0.00  0.00     0.038 A 
ATOM     25  C   UNL d   1      31.281 -16.714  -7.639  0.00  0.00     0.016 A 
ATOM     26  C   UNL d   1      31.196 -18.026  -7.162  0.00  0.00    -0.007 A 
ATOM     27  C   UNL d   1      31.778 -19.095  -7.865  0.00  0.00     0.014 A 
ATOM     28  C   UNL d   1      30.495 -18.252  -5.951  0.00  0.00     0.068 A 
ATOM     29  C   UNL d   1      31.674 -20.395  -7.375  0.00  0.00     0.001 A 
ATOM     30  C   UNL d   1      30.987 -20.627  -6.189  0.00  0.00     0.002 A 
ATOM     31  C   UNL d   1      30.405 -19.559  -5.496  0.00  0.00     0.032 A 
ATOM     32  N   UNL d   1      29.900 -17.266  -5.246  0.00  0.00    -0.243 NA
ENDBRANCH  20  23
ENDBRANCH   1  19
BRANCH   1  33
ATOM     33  C   UNL d   1      25.777 -14.059  -4.626  0.00  0.00     0.045 C 
BRANCH  33  34
ATOM     34  C   UNL d   1      25.155 -12.710  -4.221  0.00  0.00     0.076 C 
BRANCH  34  35
ATOM     35  S   UNL d   1      26.287 -11.302  -4.357  0.00  0.00    -0.173 SA
ATOM     36  C   UNL d   1      27.061 -11.400  -2.710  0.00  0.00     0.089 C 
ENDBRANCH  34  35
ENDBRANCH  33  34
ENDBRANCH   1  33
TORSDOF 9
ENDMDL
MODEL 4
REMARK VINA RESULT:    -9.255      2.064     10.160
REMARK INTER + INTRA:         -13.725
REMARK INTER:                 -11.940
REMARK INTRA:                  -1.785
REMARK CONF_INDEPENDENT:        2.685
REMARK UNBOUND:                -1.785
REMARK  9 active torsions:
REMARK  status: ('A' for Active; 'I' for Inactive)
REMARK    1  A    between atoms: S_2  and  C_3 
REMARK    2  A    between atoms: C_3  and  C_4 
REMARK    3  A    between atoms: C_5  and  C_4 
REMARK    4  A    between atoms: C_5  and  C_19 
REMARK    5  A    between atoms: C_5  and  N_6 
REMARK       I    between atoms: N_6  and  C_7 
REMARK    6  A    between atoms: C_7  and  C_9 
REMARK       I    between atoms: C_19  and  N_21 
REMARK    7  A    between atoms: N_21  and  C_22 
REMARK    8  A    between atoms: C_26  and  C_27 
REMARK       I    between atoms: C_27  and  N_29 
REMARK    9  A    between atoms: N_29  and  C_30 
ROOT
ATOM      1  C   UNL d   1      25.410 -16.986   0.220  0.00  0.00     0.178 C 
ENDROOT
BRANCH   1   2
ATOM      2  C   UNL d   1      25.415 -16.381  -1.212  0.00  0.00     0.245 C 
ATOM      3  O   UNL d   1      24.929 -16.988  -2.171  0.00  0.00    -0.271 OA
ATOM      4  N   UNL d   1      26.139 -15.202  -1.391  0.00  0.00    -0.325 N 
ATOM      5  H   UNL d   1      26.852 -14.909  -0.741  0.00  0.00     0.169 HD
BRANCH   4   6
ATOM      6  C   UNL d   1      26.154 -14.615  -2.664  0.00  0.00     0.035 A 
ATOM      7  C   UNL d   1      25.102 -13.839  -3.148  0.00  0.00     0.029 A 
ATOM      8  C   UNL d   1      25.156 -13.387  -4.466  0.00  0.00     0.003 A 
ATOM      9  C   UNL d   1      26.265 -13.703  -5.265  0.00  0.00     0.017 A 
ATOM     10  C   UNL d   1      27.327 -14.477  -4.760  0.00  0.00     0.034 A 
ATOM     11  C   UNL d   1      27.265 -14.908  -3.451  0.00  0.00     0.046 A 
BRANCH  10  12
ATOM     12  C   UNL d   1      28.446 -14.881  -5.650  0.00  0.00     0.252 C 
ATOM     13  O   UNL d   1      28.162 -15.198  -6.804  0.00  0.00    -0.268 OA
ATOM     14  N   UNL d   1      29.759 -14.933  -5.156  0.00  0.00    -0.352 N 
ATOM     15  H   UNL d   1      29.992 -14.644  -4.213  0.00  0.00     0.163 HD
BRANCH  14  16
ATOM     16  C   UNL d   1      30.812 -15.372  -6.027  0.00  0.00     0.084 A 
ATOM     17  C   UNL d   1      31.677 -16.558  -5.702  0.00  0.00     0.027 A 
ATOM     18  C   UNL d   1      30.804 -16.574  -6.924  0.00  0.00     0.027 A 
ENDBRANCH  14  16
ENDBRANCH  10  12
ENDBRANCH   4   6
ENDBRANCH   1   2
BRANCH   1  19
ATOM     19  N   UNL d   1      24.216 -17.861   0.394  0.00  0.00    -0.342 N 
ATOM     20  C   UNL d   1      22.977 -17.538  -0.151  0.00  0.00     0.271 C 
ATOM     21  O   UNL d   1      22.725 -16.464  -0.708  0.00  0.00    -0.266 OA
ATOM     22  H   UNL d   1      24.222 -18.595   1.096  0.00  0.00     0.163 HD
BRANCH  20  23
ATOM     23  C   UNL d   1      21.904 -18.572  -0.123  0.00  0.00     0.125 A 
ATOM     24  C   UNL d   1      21.283 -18.901  -1.326  0.00  0.00     0.038 A 
ATOM     25  C   UNL d   1      20.115 -19.651  -1.282  0.00  0.00     0.016 A 
ATOM     26  C   UNL d   1      19.596 -20.037  -0.041  0.00  0.00    -0.007 A 
ATOM     27  C   UNL d   1      18.387 -20.748   0.053  0.00  0.00     0.014 A 
ATOM     28  C   UNL d   1      20.318 -19.679   1.125  0.00  0.00     0.068 A 
ATOM     29  C   UNL d   1      17.884 -21.114   1.299  0.00  0.00     0.001 A 
ATOM     30  C   UNL d   1      18.584 -20.767   2.448  0.00  0.00     0.002 A 
ATOM     31  C   UNL d   1      19.784 -20.054   2.350  0.00  0.00     0.032 A 
ATOM     32  N   UNL d   1      21.471 -18.979   1.095  0.00  0.00    -0.243 NA
ENDBRANCH  20  23
ENDBRANCH   1  19
BRANCH   1  33
ATOM     33  C   UNL d   1      26.720 -17.809   0.439  0.00  0.00     0.045 C 
BRANCH  33  34
ATOM     34  C   UNL d   1      28.034 -17.053   0.172  0.00  0.00     0.076 C 
BRANCH  34  35
ATOM     35  S   UNL d   1      28.122 -15.423   0.957  0.00  0.00    -0.173 SA
ATOM     36  C   UNL d   1      29.629 -14.798   0.147  0.00  0.00     0.089 C 
ENDBRANCH  34  35
ENDBRANCH  33  34
ENDBRANCH   1  33
TORSDOF 9
ENDMDL
MODEL 5
REMARK VINA RESULT:    -9.230      0.994      1.663
REMARK INTER + INTRA:         -14.224
REMARK INTER:                 -11.914
REMARK INTRA:                  -2.310
REMARK CONF_INDEPENDENT:        2.685
REMARK UNBOUND:                -2.310
REMARK  9 active torsions:
REMARK  status: ('A' for Active; 'I' for Inactive)
REMARK    1  A    between atoms: S_2  and  C_3 
REMARK    2  A    between atoms: C_3  and  C_4 
REMARK    3  A    between atoms: C_5  and  C_4 
REMARK    4  A    between atoms: C_5  and  C_19 
REMARK    5  A    between atoms: C_5  and  N_6 
REMARK       I    between atoms: N_6  and  C_7 
REMARK    6  A    between atoms: C_7  and  C_9 
REMARK       I    between atoms: C_19  and  N_21 
REMARK    7  A    between atoms: N_21  and  C_22 
REMARK    8  A    between atoms: C_26  and  C_27 
REMARK       I    between atoms: C_27  and  N_29 
REMARK    9  A    between atoms: N_29  and  C_30 
ROOT
ATOM      1  C   UNL d   1      26.575 -13.358  -3.007  0.00  0.00     0.178 C 
ENDROOT
BRANCH   1   2
ATOM      2  C   UNL d   1      26.148 -14.378  -1.915  0.00  0.00     0.245 C 
ATOM      3  O   UNL d   1      26.304 -14.141  -0.713  0.00  0.00    -0.271 OA
ATOM      4  N   UNL d   1      25.738 -15.636  -2.359  0.00  0.00    -0.325 N 
ATOM      5  H   UNL d   1      25.974 -15.981  -3.276  0.00  0.00     0.169 HD
BRANCH   4   6
ATOM      6  C   UNL d   1      25.328 -16.579  -1.406  0.00  0.00     0.035 A 
ATOM      7  C   UNL d   1      26.227 -17.298  -0.621  0.00  0.00     0.029 A 
ATOM      8  C   UNL d   1      25.732 -18.293   0.221  0.00  0.00     0.003 A 
ATOM      9  C   UNL d   1      24.352 -18.536   0.275  0.00  0.00     0.017 A 
ATOM     10  C   UNL d   1      23.453 -17.794  -0.515  0.00  0.00     0.034 A 
ATOM     11  C   UNL d   1      23.956 -16.806  -1.335  0.00  0.00     0.046 A 
BRANCH  10  12
ATOM     12  C   UNL d   1      22.005 -18.131  -0.515  0.00  0.00     0.252 C 
ATOM     13  O   UNL d   1      21.224 -17.261  -0.895  0.00  0.00    -0.268 OA
ATOM     14  N   UNL d   1      21.572 -19.383  -0.053  0.00  0.00    -0.352 N 
ATOM     15  H   UNL d   1      22.220 -20.108   0.233  0.00  0.00     0.163 HD
BRANCH  14  16
ATOM     16  C   UNL d   1      20.163 -19.661  -0.020  0.00  0.00     0.084 A 
ATOM     17  C   UNL d   1      19.596 -20.826   0.743  0.00  0.00     0.027 A 
ATOM     18  C   UNL d   1      19.217 -19.421   1.119  0.00  0.00     0.027 A 
ENDBRANCH  14  16
ENDBRANCH  10  12
ENDBRANCH   4   6
ENDBRANCH   1   2
BRANCH   1  19
ATOM     19  N   UNL d   1      27.723 -13.902  -3.786  0.00  0.00    -0.342 N 
ATOM     20  C   UNL d   1      27.553 -14.852  -4.788  0.00  0.00     0.271 C 
ATOM     21  O   UNL d   1      26.480 -15.411  -5.037  0.00  0.00    -0.266 OA
ATOM     22  H   UNL d   1      28.673 -13.762  -3.455  0.00  0.00     0.163 HD
BRANCH  20  23
ATOM     23  C   UNL d   1      28.717 -15.169  -5.663  0.00  0.00     0.125 A 
ATOM     24  C   UNL d   1      29.452 -16.318  -5.382  0.00  0.00     0.038 A 
ATOM     25  C   UNL d   1      30.682 -16.485  -6.006  0.00  0.00     0.016 A 
ATOM     26  C   UNL d   1      31.146 -15.495  -6.878  0.00  0.00    -0.007 A 
ATOM     27  C   UNL d   1      32.409 -15.595  -7.488  0.00  0.00     0.014 A 
ATOM     28  C   UNL d   1      30.311 -14.375  -7.123  0.00  0.00     0.068 A 
ATOM     29  C   UNL d   1      32.854 -14.593  -8.346  0.00  0.00     0.001 A 
ATOM     30  C   UNL d   1      32.044 -13.491  -8.591  0.00  0.00     0.002 A 
ATOM     31  C   UNL d   1      30.790 -13.393  -7.977  0.00  0.00     0.032 A 
ATOM     32  N   UNL d   1      29.100 -14.218  -6.549  0.00  0.00    -0.243 NA
ENDBRANCH  20  23
ENDBRANCH   1  19
BRANCH   1  33
ATOM     33  C   UNL d   1      25.364 -13.078  -3.954  0.00  0.00     0.045 C 
BRANCH  33  34
ATOM     34  C   UNL d   1      25.640 -12.112  -5.121  0.00  0.00     0.076 C 
BRANCH  34  35
ATOM     35  S   UNL d   1      27.110 -11.078  -4.892  0.00  0.00    -0.173 SA
ATOM     36  C   UNL d   1      26.305  -9.443  -4.859  0.00  0.00     0.089 C 
ENDBRANCH  34  35
ENDBRANCH  33  34
ENDBRANCH   1  33
TORSDOF 9
ENDMDL
MODEL 6
REMARK VINA RESULT:    -8.932      3.036      6.281
REMARK INTER + INTRA:         -13.719
REMARK INTER:                 -11.616
REMARK INTRA:                  -2.103
REMARK CONF_INDEPENDENT:        2.685
REMARK UNBOUND:                -2.103
REMARK  9 active torsions:
REMARK  status: ('A' for Active; 'I' for Inactive)
REMARK    1  A    between atoms: S_2  and  C_3 
REMARK    2  A    between atoms: C_3  and  C_4 
REMARK    3  A    between atoms: C_5  and  C_4 
REMARK    4  A    between atoms: C_5  and  C_19 
REMARK    5  A    between atoms: C_5  and  N_6 
REMARK       I    between atoms: N_6  and  C_7 
REMARK    6  A    between atoms: C_7  and  C_9 
REMARK       I    between atoms: C_19  and  N_21 
REMARK    7  A    between atoms: N_21  and  C_22 
REMARK    8  A    between atoms: C_26  and  C_27 
REMARK       I    between atoms: C_27  and  N_29 
REMARK    9  A    between atoms: N_29  and  C_30 
ROOT
ATOM      1  C   UNL d   1      26.005 -13.986  -3.993  0.00  0.00     0.178 C 
ENDROOT
BRANCH   1   2
ATOM      2  C   UNL d   1      25.575 -14.765  -2.718  0.00  0.00     0.245 C 
ATOM      3  O   UNL d   1      25.511 -14.213  -1.615  0.00  0.00    -0.271 OA
ATOM      4  N   UNL d   1      25.428 -16.146  -2.849  0.00  0.00    -0.325 N 
ATOM      5  H   UNL d   1      25.847 -16.659  -3.608  0.00  0.00     0.169 HD
BRANCH   4   6
ATOM      6  C   UNL d   1      25.023 -16.883  -1.727  0.00  0.00     0.035 A 
ATOM      7  C   UNL d   1      25.923 -17.372  -0.781  0.00  0.00     0.029 A 
ATOM      8  C   UNL d   1      25.440 -18.188   0.241  0.00  0.00     0.003 A 
ATOM      9  C   UNL d   1      24.071 -18.482   0.310  0.00  0.00     0.017 A 
ATOM     10  C   UNL d   1      23.170 -17.970  -0.644  0.00  0.00     0.034 A 
ATOM     11  C   UNL d   1      23.660 -17.156  -1.644  0.00  0.00     0.046 A 
BRANCH  10  12
ATOM     12  C   UNL d   1      21.739 -18.370  -0.610  0.00  0.00     0.252 C 
ATOM     13  O   UNL d   1      20.937 -17.647  -1.200  0.00  0.00    -0.268 OA
ATOM     14  N   UNL d   1      21.340 -19.506   0.110  0.00  0.00    -0.352 N 
ATOM     15  H   UNL d   1      22.006 -20.115   0.572  0.00  0.00     0.163 HD
BRANCH  14  16
ATOM     16  C   UNL d   1      19.944 -19.839   0.163  0.00  0.00     0.084 A 
ATOM     17  C   UNL d   1      19.462 -21.198   0.590  0.00  0.00     0.027 A 
ATOM     18  C   UNL d   1      19.092 -19.982   1.390  0.00  0.00     0.027 A 
ENDBRANCH  14  16
ENDBRANCH  10  12
ENDBRANCH   4   6
ENDBRANCH   1   2
BRANCH   1  19
ATOM     19  N   UNL d   1      25.890 -12.520  -3.751  0.00  0.00    -0.342 N 
ATOM     20  C   UNL d   1      25.970 -11.591  -4.783  0.00  0.00     0.271 C 
ATOM     21  O   UNL d   1      26.261 -11.876  -5.950  0.00  0.00    -0.266 OA
ATOM     22  H   UNL d   1      25.973 -12.153  -2.807  0.00  0.00     0.163 HD
BRANCH  20  23
ATOM     23  C   UNL d   1      25.618 -10.174  -4.485  0.00  0.00     0.125 A 
ATOM     24  C   UNL d   1      25.566  -9.276  -5.548  0.00  0.00     0.038 A 
ATOM     25  C   UNL d   1      25.508  -7.918  -5.264  0.00  0.00     0.016 A 
ATOM     26  C   UNL d   1      25.518  -7.497  -3.929  0.00  0.00    -0.007 A 
ATOM     27  C   UNL d   1      25.518  -6.131  -3.596  0.00  0.00     0.014 A 
ATOM     28  C   UNL d   1      25.542  -8.489  -2.917  0.00  0.00     0.068 A 
ATOM     29  C   UNL d   1      25.537  -5.736  -2.261  0.00  0.00     0.001 A 
ATOM     30  C   UNL d   1      25.562  -6.701  -1.261  0.00  0.00     0.002 A 
ATOM     31  C   UNL d   1      25.568  -8.059  -1.598  0.00  0.00     0.032 A 
ATOM     32  N   UNL d   1      25.565  -9.813  -3.180  0.00  0.00    -0.243 NA
ENDBRANCH  20  23
ENDBRANCH   1  19
BRANCH   1  33
ATOM     33  C   UNL d   1      27.478 -14.359  -4.355  0.00  0.00     0.045 C 
BRANCH  33  34
ATOM     34  C   UNL d   1      27.727 -14.732  -5.828  0.00  0.00     0.076 C 
BRANCH  34  35
ATOM     35  S   UNL d   1      29.478 -14.872  -6.270  0.00  0.00    -0.173 SA
ATOM     36  C   UNL d   1      29.987 -16.104  -5.027  0.00  0.00     0.089 C 
ENDBRANCH  34  35
ENDBRANCH  33  34
ENDBRANCH   1  33
TORSDOF 9
ENDMDL
MODEL 7
REMARK VINA RESULT:    -8.617      3.200      6.360
REMARK INTER + INTRA:         -13.326
REMARK INTER:                 -11.302
REMARK INTRA:                  -2.024
REMARK CONF_INDEPENDENT:        2.685
REMARK UNBOUND:                -2.024
REMARK  9 active torsions:
REMARK  status: ('A' for Active; 'I' for Inactive)
REMARK    1  A    between atoms: S_2  and  C_3 
REMARK    2  A    between atoms: C_3  and  C_4 
REMARK    3  A    between atoms: C_5  and  C_4 
REMARK    4  A    between atoms: C_5  and  C_19 
REMARK    5  A    between atoms: C_5  and  N_6 
REMARK       I    between atoms: N_6  and  C_7 
REMARK    6  A    between atoms: C_7  and  C_9 
REMARK       I    between atoms: C_19  and  N_21 
REMARK    7  A    between atoms: N_21  and  C_22 
REMARK    8  A    between atoms: C_26  and  C_27 
REMARK       I    between atoms: C_27  and  N_29 
REMARK    9  A    between atoms: N_29  and  C_30 
ROOT
ATOM      1  C   UNL d   1      25.691 -13.707  -4.529  0.00  0.00     0.178 C 
ENDROOT
BRANCH   1   2
ATOM      2  C   UNL d   1      25.496 -14.972  -3.647  0.00  0.00     0.245 C 
ATOM      3  O   UNL d   1      25.529 -16.108  -4.130  0.00  0.00    -0.271 OA
ATOM      4  N   UNL d   1      25.119 -14.759  -2.321  0.00  0.00    -0.325 N 
ATOM      5  H   UNL d   1      24.708 -13.891  -2.015  0.00  0.00     0.169 HD
BRANCH   4   6
ATOM      6  C   UNL d   1      24.951 -15.874  -1.487  0.00  0.00     0.035 A 
ATOM      7  C   UNL d   1      26.012 -16.483  -0.819  0.00  0.00     0.029 A 
ATOM      8  C   UNL d   1      25.766 -17.652  -0.100  0.00  0.00     0.003 A 
ATOM      9  C   UNL d   1      24.467 -18.177  -0.048  0.00  0.00     0.017 A 
ATOM     10  C   UNL d   1      23.401 -17.545  -0.717  0.00  0.00     0.034 A 
ATOM     11  C   UNL d   1      23.656 -16.383  -1.415  0.00  0.00     0.046 A 
BRANCH  10  12
ATOM     12  C   UNL d   1      22.052 -18.169  -0.728  0.00  0.00     0.252 C 
ATOM     13  O   UNL d   1      21.135 -17.519  -1.229  0.00  0.00    -0.268 OA
ATOM     14  N   UNL d   1      21.851 -19.429  -0.146  0.00  0.00    -0.352 N 
ATOM     15  H   UNL d   1      22.615 -19.974   0.240  0.00  0.00     0.163 HD
BRANCH  14  16
ATOM     16  C   UNL d   1      20.527 -19.984  -0.131  0.00  0.00     0.084 A 
ATOM     17  C   UNL d   1      19.875 -20.463   1.137  0.00  0.00     0.027 A 
ATOM     18  C   UNL d   1      19.273 -19.325   0.363  0.00  0.00     0.027 A 
ENDBRANCH  14  16
ENDBRANCH  10  12
ENDBRANCH   4   6
ENDBRANCH   1   2
BRANCH   1  19
ATOM     19  N   UNL d   1      25.824 -12.503  -3.660  0.00  0.00    -0.342 N 
ATOM     20  C   UNL d   1      26.787 -12.416  -2.660  0.00  0.00     0.271 C 
ATOM     21  O   UNL d   1      27.521 -13.351  -2.322  0.00  0.00    -0.266 OA
ATOM     22  H   UNL d   1      25.078 -11.815  -3.629  0.00  0.00     0.163 HD
BRANCH  20  23
ATOM     23  C   UNL d   1      26.997 -11.097  -1.997  0.00  0.00     0.125 A 
ATOM     24  C   UNL d   1      27.684 -11.077  -0.786  0.00  0.00     0.038 A 
ATOM     25  C   UNL d   1      27.654  -9.912  -0.030  0.00  0.00     0.016 A 
ATOM     26  C   UNL d   1      26.930  -8.811  -0.498  0.00  0.00    -0.007 A 
ATOM     27  C   UNL d   1      26.826  -7.632   0.261  0.00  0.00     0.014 A 
ATOM     28  C   UNL d   1      26.288  -8.920  -1.757  0.00  0.00     0.068 A 
ATOM     29  C   UNL d   1      26.092  -6.551  -0.221  0.00  0.00     0.001 A 
ATOM     30  C   UNL d   1      25.458  -6.648  -1.454  0.00  0.00     0.002 A 
ATOM     31  C   UNL d   1      25.560  -7.826  -2.203  0.00  0.00     0.032 A 
ATOM     32  N   UNL d   1      26.337 -10.034  -2.517  0.00  0.00    -0.243 NA
ENDBRANCH  20  23
ENDBRANCH   1  19
BRANCH   1  33
ATOM     33  C   UNL d   1      26.970 -13.883  -5.409  0.00  0.00     0.045 C 
BRANCH  33  34
ATOM     34  C   UNL d   1      27.969 -14.950  -4.926  0.00  0.00     0.076 C 
BRANCH  34  35
ATOM     35  S   UNL d   1      29.238 -15.381  -6.145  0.00  0.00    -0.173 SA
ATOM     36  C   UNL d   1      30.281 -16.451  -5.103  0.00  0.00     0.089 C 
ENDBRANCH  34  35
ENDBRANCH  33  34
ENDBRANCH   1  33
TORSDOF 9
ENDMDL
MODEL 8
REMARK VINA RESULT:    -7.933      2.092      2.981
REMARK INTER + INTRA:         -13.131
REMARK INTER:                 -10.618
REMARK INTRA:                  -2.513
REMARK CONF_INDEPENDENT:        2.685
REMARK UNBOUND:                -2.513
REMARK  9 active torsions:
REMARK  status: ('A' for Active; 'I' for Inactive)
REMARK    1  A    between atoms: S_2  and  C_3 
REMARK    2  A    between atoms: C_3  and  C_4 
REMARK    3  A    between atoms: C_5  and  C_4 
REMARK    4  A    between atoms: C_5  and  C_19 
REMARK    5  A    between atoms: C_5  and  N_6 
REMARK       I    between atoms: N_6  and  C_7 
REMARK    6  A    between atoms: C_7  and  C_9 
REMARK       I    between atoms: C_19  and  N_21 
REMARK    7  A    between atoms: N_21  and  C_22 
REMARK    8  A    between atoms: C_26  and  C_27 
REMARK       I    between atoms: C_27  and  N_29 
REMARK    9  A    between atoms: N_29  and  C_30 
ROOT
ATOM      1  C   UNL d   1      28.860 -14.668  -3.362  0.00  0.00     0.178 C 
ENDROOT
BRANCH   1   2
ATOM      2  C   UNL d   1      28.067 -15.206  -2.138  0.00  0.00     0.245 C 
ATOM      3  O   UNL d   1      27.912 -14.527  -1.119  0.00  0.00    -0.271 OA
ATOM      4  N   UNL d   1      27.683 -16.547  -2.182  0.00  0.00    -0.325 N 
ATOM      5  H   UNL d   1      28.126 -17.209  -2.799  0.00  0.00     0.169 HD
BRANCH   4   6
ATOM      6  C   UNL d   1      26.949 -17.066  -1.106  0.00  0.00     0.035 A 
ATOM      7  C   UNL d   1      27.551 -17.671  -0.004  0.00  0.00     0.029 A 
ATOM      8  C   UNL d   1      26.737 -18.256   0.965  0.00  0.00     0.003 A 
ATOM      9  C   UNL d   1      25.343 -18.210   0.824  0.00  0.00     0.017 A 
ATOM     10  C   UNL d   1      24.746 -17.584  -0.288  0.00  0.00     0.034 A 
ATOM     11  C   UNL d   1      25.564 -17.000  -1.234  0.00  0.00     0.046 A 
BRANCH  10  12
ATOM     12  C   UNL d   1      23.272 -17.628  -0.468  0.00  0.00     0.252 C 
ATOM     13  O   UNL d   1      22.732 -16.631  -0.944  0.00  0.00    -0.268 OA
ATOM     14  N   UNL d   1      22.544 -18.757  -0.062  0.00  0.00    -0.352 N 
ATOM     15  H   UNL d   1      22.996 -19.588   0.303  0.00  0.00     0.163 HD
BRANCH  14  16
ATOM     16  C   UNL d   1      21.116 -18.751  -0.205  0.00  0.00     0.084 A 
ATOM     17  C   UNL d   1      20.415 -19.551  -1.268  0.00  0.00     0.027 A 
ATOM     18  C   UNL d   1      20.160 -19.840   0.184  0.00  0.00     0.027 A 
ENDBRANCH  14  16
ENDBRANCH  10  12
ENDBRANCH   4   6
ENDBRANCH   1   2
BRANCH   1  19
ATOM     19  N   UNL d   1      29.367 -15.809  -4.175  0.00  0.00    -0.342 N 
ATOM     20  C   UNL d   1      30.019 -16.895  -3.601  0.00  0.00     0.271 C 
ATOM     21  O   UNL d   1      30.342 -16.958  -2.410  0.00  0.00    -0.266 OA
ATOM     22  H   UNL d   1      29.448 -15.717  -5.184  0.00  0.00     0.163 HD
BRANCH  20  23
ATOM     23  C   UNL d   1      30.287 -18.088  -4.454  0.00  0.00     0.125 A 
ATOM     24  C   UNL d   1      30.777 -19.236  -3.835  0.00  0.00     0.038 A 
ATOM     25  C   UNL d   1      31.282 -20.253  -4.636  0.00  0.00     0.016 A 
ATOM     26  C   UNL d   1      31.295 -20.087  -6.025  0.00  0.00    -0.007 A 
ATOM     27  C   UNL d   1      31.848 -21.065  -6.870  0.00  0.00     0.014 A 
ATOM     28  C   UNL d   1      30.746 -18.894  -6.560  0.00  0.00     0.068 A 
ATOM     29  C   UNL d   1      31.859 -20.875  -8.249  0.00  0.00     0.001 A 
ATOM     30  C   UNL d   1      31.324 -19.709  -8.784  0.00  0.00     0.002 A 
ATOM     31  C   UNL d   1      30.781 -18.735  -7.938  0.00  0.00     0.032 A 
ATOM     32  N   UNL d   1      30.222 -17.914  -5.796  0.00  0.00    -0.243 NA
ENDBRANCH  20  23
ENDBRANCH   1  19
BRANCH   1  33
ATOM     33  C   UNL d   1      27.926 -13.761  -4.225  0.00  0.00     0.045 C 
BRANCH  33  34
ATOM     34  C   UNL d   1      26.819 -14.495  -5.004  0.00  0.00     0.076 C 
BRANCH  34  35
ATOM     35  S   UNL d   1      25.139 -14.045  -4.501  0.00  0.00    -0.173 SA
ATOM     36  C   UNL d   1      25.486 -13.507  -2.795  0.00  0.00     0.089 C 
ENDBRANCH  34  35
ENDBRANCH  33  34
ENDBRANCH   1  33
TORSDOF 9
ENDMDL
MODEL 9
REMARK VINA RESULT:    -7.754      4.961      9.831
REMARK INTER + INTRA:         -12.980
REMARK INTER:                 -10.439
REMARK INTRA:                  -2.542
REMARK CONF_INDEPENDENT:        2.685
REMARK UNBOUND:                -2.542
REMARK  9 active torsions:
REMARK  status: ('A' for Active; 'I' for Inactive)
REMARK    1  A    between atoms: S_2  and  C_3 
REMARK    2  A    between atoms: C_3  and  C_4 
REMARK    3  A    between atoms: C_5  and  C_4 
REMARK    4  A    between atoms: C_5  and  C_19 
REMARK    5  A    between atoms: C_5  and  N_6 
REMARK       I    between atoms: N_6  and  C_7 
REMARK    6  A    between atoms: C_7  and  C_9 
REMARK       I    between atoms: C_19  and  N_21 
REMARK    7  A    between atoms: N_21  and  C_22 
REMARK    8  A    between atoms: C_26  and  C_27 
REMARK       I    between atoms: C_27  and  N_29 
REMARK    9  A    between atoms: N_29  and  C_30 
ROOT
ATOM      1  C   UNL d   1      27.726 -16.531   0.350  0.00  0.00     0.178 C 
ENDROOT
BRANCH   1   2
ATOM      2  C   UNL d   1      27.569 -15.734  -0.975  0.00  0.00     0.245 C 
ATOM      3  O   UNL d   1      28.549 -15.385  -1.640  0.00  0.00    -0.271 OA
ATOM      4  N   UNL d   1      26.284 -15.291  -1.290  0.00  0.00    -0.325 N 
ATOM      5  H   UNL d   1      25.559 -15.216  -0.594  0.00  0.00     0.169 HD
BRANCH   4   6
ATOM      6  C   UNL d   1      26.096 -14.585  -2.487  0.00  0.00     0.035 A 
ATOM      7  C   UNL d   1      26.103 -15.202  -3.736  0.00  0.00     0.029 A 
ATOM      8  C   UNL d   1      26.019 -14.404  -4.877  0.00  0.00     0.003 A 
ATOM      9  C   UNL d   1      25.910 -13.013  -4.746  0.00  0.00     0.017 A 
ATOM     10  C   UNL d   1      25.891 -12.402  -3.477  0.00  0.00     0.034 A 
ATOM     11  C   UNL d   1      25.965 -13.204  -2.358  0.00  0.00     0.046 A 
BRANCH  10  12
ATOM     12  C   UNL d   1      25.872 -10.920  -3.362  0.00  0.00     0.252 C 
ATOM     13  O   UNL d   1      26.458 -10.422  -2.403  0.00  0.00    -0.268 OA
ATOM     14  N   UNL d   1      25.168 -10.148  -4.299  0.00  0.00    -0.352 N 
ATOM     15  H   UNL d   1      24.709 -10.560  -5.103  0.00  0.00     0.163 HD
BRANCH  14  16
ATOM     16  C   UNL d   1      25.128  -8.722  -4.133  0.00  0.00     0.084 A 
ATOM     17  C   UNL d   1      25.875  -7.790  -5.047  0.00  0.00     0.027 A 
ATOM     18  C   UNL d   1      24.376  -7.733  -4.973  0.00  0.00     0.027 A 
ENDBRANCH  14  16
ENDBRANCH  10  12
ENDBRANCH   4   6
ENDBRANCH   1   2
BRANCH   1  19
ATOM     19  N   UNL d   1      28.003 -15.591   1.473  0.00  0.00    -0.342 N 
ATOM     20  C   UNL d   1      27.236 -14.452   1.690  0.00  0.00     0.271 C 
ATOM     21  O   UNL d   1      26.355 -14.053   0.921  0.00  0.00    -0.266 OA
ATOM     22  H   UNL d   1      28.888 -15.640   1.969  0.00  0.00     0.163 HD
BRANCH  20  23
ATOM     23  C   UNL d   1      27.438 -13.697   2.960  0.00  0.00     0.125 A 
ATOM     24  C   UNL d   1      27.433 -12.306   2.901  0.00  0.00     0.038 A 
ATOM     25  C   UNL d   1      27.883 -11.597   4.007  0.00  0.00     0.016 A 
ATOM     26  C   UNL d   1      28.336 -12.296   5.131  0.00  0.00    -0.007 A 
ATOM     27  C   UNL d   1      28.852 -11.621   6.251  0.00  0.00     0.014 A 
ATOM     28  C   UNL d   1      28.273 -13.712   5.105  0.00  0.00     0.068 A 
ATOM     29  C   UNL d   1      29.305 -12.338   7.354  0.00  0.00     0.001 A 
ATOM     30  C   UNL d   1      29.249 -13.727   7.339  0.00  0.00     0.002 A 
ATOM     31  C   UNL d   1      28.740 -14.395   6.219  0.00  0.00     0.032 A 
ATOM     32  N   UNL d   1      27.807 -14.413   4.050  0.00  0.00    -0.243 NA
ENDBRANCH  20  23
ENDBRANCH   1  19
BRANCH   1  33
ATOM     33  C   UNL d   1      26.416 -17.335   0.629  0.00  0.00     0.045 C 
BRANCH  33  34
ATOM     34  C   UNL d   1      25.890 -18.179  -0.547  0.00  0.00     0.076 C 
BRANCH  34  35
ATOM     35  S   UNL d   1      24.277 -17.647  -1.176  0.00  0.00    -0.173 SA
ATOM     36  C   UNL d   1      23.211 -18.757  -0.202  0.00  0.00     0.089 C 
ENDBRANCH  34  35
ENDBRANCH  33  34
ENDBRANCH   1  33
TORSDOF 9
ENDMDL
