MODEL 1
REMARK VINA RESULT:   -10.841      0.000      0.000
REMARK INTER + INTRA:         -16.013
REMARK INTER:                 -14.719
REMARK INTRA:                  -1.294
REMARK CONF_INDEPENDENT:        3.878
REMARK UNBOUND:                -1.294
REMARK  13 active torsions:
REMARK  status: ('A' for Active; 'I' for Inactive)
REMARK    1  A    between atoms: C_2  and  C_3 
REMARK       I    between atoms: C_2  and  N_18 
REMARK    2  A    between atoms: C_3  and  C_4 
REMARK    3  A    between atoms: C_4  and  C_5 
REMARK    4  A    between atoms: C_5  and  C_6 
REMARK    5  A    between atoms: C_6  and  O_8 
REMARK    6  A    between atoms: O_8  and  C_9 
REMARK    7  A    between atoms: C_9  and  C_10 
REMARK    8  A    between atoms: C_10  and  C_11 
REMARK    9  A    between atoms: C_11  and  C_12 
REMARK   10  A    between atoms: N_18  and  C_19 
REMARK   11  A    between atoms: C_19  and  N_21 
REMARK   12  A    between atoms: N_21  and  C_22 
REMARK   13  A    between atoms: C_25  and  C_26 
REMARK       I    between atoms: C_26  and  N_28 
ROOT
ATOM      1  O   UNL d   1      23.641 -13.990  -3.921  0.00  0.00    -0.273 OA
ATOM      2  C   UNL d   1      24.864 -13.860  -3.875  0.00  0.00     0.223 C 
ATOM      3  N   UNL d   1      25.504 -12.872  -4.649  0.00  0.00    -0.304 N 
ATOM      4  H   UNL d   1      24.821 -12.375  -5.211  0.00  0.00     0.171 HD
ENDROOT
BRANCH   3   5
ATOM      5  C   UNL d   1      26.848 -12.431  -4.688  0.00  0.00     0.178 C 
ATOM      6  S   UNL d   1      27.578 -11.484  -3.482  0.00  0.00    -0.040 SA
BRANCH   5   7
ATOM      7  N   UNL d   1      27.548 -12.830  -5.852  0.00  0.00    -0.333 N 
ATOM      8  H   UNL d   1      27.758 -12.147  -6.571  0.00  0.00     0.168 HD
BRANCH   7   9
ATOM      9  C   UNL d   1      28.303 -14.048  -5.883  0.00  0.00     0.034 C 
ATOM     10  C   UNL d   1      29.147 -14.413  -6.935  0.00  0.00     0.030 C 
ATOM     11  C   UNL d   1      29.941 -15.589  -6.832  0.00  0.00     0.019 C 
ATOM     12  C   UNL d   1      29.976 -16.339  -5.641  0.00  0.00     0.032 C 
ATOM     13  C   UNL d   1      29.154 -15.921  -4.601  0.00  0.00     0.019 C 
ATOM     14  C   UNL d   1      28.261 -14.875  -4.763  0.00  0.00     0.030 C 
BRANCH  12  15
ATOM     15  C   UNL d   1      30.928 -17.498  -5.433  0.00  0.00     0.253 C 
ATOM     16  O   UNL d   1      31.841 -17.409  -4.612  0.00  0.00    -0.267 OA
ATOM     17  N   UNL d   1      30.717 -18.648  -6.213  0.00  0.00    -0.348 N 
ATOM     18  C   UNL d   1      30.399 -19.954  -5.616  0.00  0.00     0.126 C 
ATOM     19  C   UNL d   1      30.783 -18.496  -7.656  0.00  0.00     0.126 C 
ATOM     20  C   UNL d   1      31.543 -20.974  -5.616  0.00  0.00     0.020 C 
ATOM     21  C   UNL d   1      31.902 -21.566  -6.981  0.00  0.00     0.002 C 
ATOM     22  C   UNL d   1      32.230 -20.528  -8.047  0.00  0.00     0.002 C 
ATOM     23  C   UNL d   1      31.006 -19.744  -8.478  0.00  0.00     0.020 C 
ENDBRANCH  12  15
ENDBRANCH   7   9
ENDBRANCH   5   7
ENDBRANCH   3   5
BRANCH   2  24
ATOM     24  C   UNL d   1      25.750 -14.733  -3.002  0.00  0.00     0.103 C 
BRANCH  24  25
ATOM     25  C   UNL d   1      25.110 -15.555  -1.915  0.00  0.00     0.019 C 
BRANCH  25  26
ATOM     26  C   UNL d   1      26.037 -16.707  -1.476  0.00  0.00     0.111 C 
BRANCH  26  27
ATOM     27  C   UNL d   1      25.378 -17.459  -0.350  0.00  0.00     0.258 C 
ATOM     28  O   UNL d   1      25.976 -18.248   0.389  0.00  0.00    -0.265 OA
BRANCH  27  29
ATOM     29  O   UNL d   1      24.055 -17.171  -0.237  0.00  0.00    -0.321 OA
BRANCH  29  30
ATOM     30  C   UNL d   1      23.262 -17.824  -1.244  0.00  0.00     0.179 C 
BRANCH  30  31
ATOM     31  C   UNL d   1      22.441 -18.930  -0.603  0.00  0.00     0.031 C 
BRANCH  31  32
ATOM     32  C   UNL d   1      20.965 -18.835  -1.000  0.00  0.00     0.041 C 
BRANCH  32  33
ATOM     33  C   UNL d   1      20.039 -19.514  -0.017  0.00  0.00    -0.058 A 
ATOM     34  C   UNL d   1      20.304 -19.549   1.359  0.00  0.00     0.007 A 
ATOM     35  C   UNL d   1      19.491 -20.289   2.218  0.00  0.00     0.001 A 
ATOM     36  C   UNL d   1      18.345 -20.908   1.728  0.00  0.00     0.000 A 
ATOM     37  C   UNL d   1      18.035 -20.827   0.372  0.00  0.00     0.001 A 
ATOM     38  C   UNL d   1      18.880 -20.137  -0.495  0.00  0.00     0.007 A 
ENDBRANCH  32  33
ENDBRANCH  31  32
ENDBRANCH  30  31
ENDBRANCH  29  30
ENDBRANCH  27  29
ENDBRANCH  26  27
ENDBRANCH  25  26
ENDBRANCH  24  25
ENDBRANCH   2  24
TORSDOF 13
ENDMDL
MODEL 2
REMARK VINA RESULT:   -10.099      2.704     10.787
REMARK INTER + INTRA:         -15.837
REMARK INTER:                 -13.977
REMARK INTRA:                  -1.861
REMARK CONF_INDEPENDENT:        3.878
REMARK UNBOUND:                -1.861
REMARK  13 active torsions:
REMARK  status: ('A' for Active; 'I' for Inactive)
REMARK    1  A    between atoms: C_2  and  C_3 
REMARK       I    between atoms: C_2  and  N_18 
REMARK    2  A    between atoms: C_3  and  C_4 
REMARK    3  A    between atoms: C_4  and  C_5 
REMARK    4  A    between atoms: C_5  and  C_6 
REMARK    5  A    between atoms: C_6  and  O_8 
REMARK    6  A    between atoms: O_8  and  C_9 
REMARK    7  A    between atoms: C_9  and  C_10 
REMARK    8  A    between atoms: C_10  and  C_11 
REMARK    9  A    between atoms: C_11  and  C_12 
REMARK   10  A    between atoms: N_18  and  C_19 
REMARK   11  A    between atoms: C_19  and  N_21 
REMARK   12  A    between atoms: N_21  and  C_22 
REMARK   13  A    between atoms: C_25  and  C_26 
REMARK       I    between atoms: C_26  and  N_28 
ROOT
ATOM      1  O   UNL d   1      25.629 -15.575  -4.627  0.00  0.00    -0.273 OA
ATOM      2  C   UNL d   1      26.198 -15.306  -3.570  0.00  0.00     0.223 C 
ATOM      3  N   UNL d   1      26.300 -16.272  -2.551  0.00  0.00    -0.304 N 
ATOM      4  H   UNL d   1      25.828 -17.125  -2.832  0.00  0.00     0.171 HD
ENDROOT
BRANCH   3   5
ATOM      5  C   UNL d   1      26.995 -16.270  -1.317  0.00  0.00     0.178 C 
ATOM      6  S   UNL d   1      28.617 -15.800  -1.136  0.00  0.00    -0.040 SA
BRANCH   5   7
ATOM      7  N   UNL d   1      26.221 -16.726  -0.223  0.00  0.00    -0.333 N 
ATOM      8  H   UNL d   1      26.444 -16.412   0.715  0.00  0.00     0.168 HD
BRANCH   7   9
ATOM      9  C   UNL d   1      24.918 -17.289  -0.420  0.00  0.00     0.034 C 
ATOM     10  C   UNL d   1      24.608 -18.632  -0.190  0.00  0.00     0.030 C 
ATOM     11  C   UNL d   1      23.263 -19.080  -0.309  0.00  0.00     0.019 C 
ATOM     12  C   UNL d   1      22.214 -18.173  -0.549  0.00  0.00     0.032 C 
ATOM     13  C   UNL d   1      22.556 -16.838  -0.732  0.00  0.00     0.019 C 
ATOM     14  C   UNL d   1      23.880 -16.432  -0.780  0.00  0.00     0.030 C 
BRANCH  12  15
ATOM     15  C   UNL d   1      20.757 -18.582  -0.519  0.00  0.00     0.253 C 
ATOM     16  O   UNL d   1      19.945 -18.037  -1.267  0.00  0.00    -0.267 OA
ATOM     17  N   UNL d   1      20.393 -19.590   0.391  0.00  0.00    -0.348 N 
ATOM     18  C   UNL d   1      19.828 -20.876  -0.046  0.00  0.00     0.126 C 
ATOM     19  C   UNL d   1      20.635 -19.334   1.801  0.00  0.00     0.126 C 
ATOM     20  C   UNL d   1      18.324 -21.047   0.186  0.00  0.00     0.020 C 
ATOM     21  C   UNL d   1      17.896 -21.234   1.644  0.00  0.00     0.002 C 
ATOM     22  C   UNL d   1      18.369 -20.130   2.581  0.00  0.00     0.002 C 
ATOM     23  C   UNL d   1      19.869 -20.169   2.800  0.00  0.00     0.020 C 
ENDBRANCH  12  15
ENDBRANCH   7   9
ENDBRANCH   5   7
ENDBRANCH   3   5
BRANCH   2  24
ATOM     24  C   UNL d   1      26.815 -13.945  -3.294  0.00  0.00     0.103 C 
BRANCH  24  25
ATOM     25  C   UNL d   1      27.921 -13.457  -4.192  0.00  0.00     0.019 C 
BRANCH  25  26
ATOM     26  C   UNL d   1      29.009 -14.536  -4.363  0.00  0.00     0.111 C 
BRANCH  26  27
ATOM     27  C   UNL d   1      28.661 -15.393  -5.552  0.00  0.00     0.258 C 
ATOM     28  O   UNL d   1      27.698 -15.176  -6.295  0.00  0.00    -0.265 OA
BRANCH  27  29
ATOM     29  O   UNL d   1      29.525 -16.430  -5.714  0.00  0.00    -0.321 OA
BRANCH  29  30
ATOM     30  C   UNL d   1      30.050 -16.909  -4.464  0.00  0.00     0.179 C 
BRANCH  30  31
ATOM     31  C   UNL d   1      31.568 -16.906  -4.518  0.00  0.00     0.031 C 
BRANCH  31  32
ATOM     32  C   UNL d   1      32.127 -18.324  -4.671  0.00  0.00     0.041 C 
BRANCH  32  33
ATOM     33  C   UNL d   1      31.829 -18.940  -6.018  0.00  0.00    -0.058 A 
ATOM     34  C   UNL d   1      31.492 -18.166  -7.138  0.00  0.00     0.007 A 
ATOM     35  C   UNL d   1      31.105 -18.777  -8.330  0.00  0.00     0.001 A 
ATOM     36  C   UNL d   1      31.158 -20.162  -8.451  0.00  0.00     0.000 A 
ATOM     37  C   UNL d   1      31.554 -20.941  -7.365  0.00  0.00     0.001 A 
ATOM     38  C   UNL d   1      31.884 -20.332  -6.155  0.00  0.00     0.007 A 
ENDBRANCH  32  33
ENDBRANCH  31  32
ENDBRANCH  30  31
ENDBRANCH  29  30
ENDBRANCH  27  29
ENDBRANCH  26  27
ENDBRANCH  25  26
ENDBRANCH  24  25
ENDBRANCH   2  24
TORSDOF 13
ENDMDL
MODEL 3
REMARK VINA RESULT:    -9.881      4.553      9.992
REMARK INTER + INTRA:         -15.795
REMARK INTER:                 -13.759
REMARK INTRA:                  -2.036
REMARK CONF_INDEPENDENT:        3.878
REMARK UNBOUND:                -2.036
REMARK  13 active torsions:
REMARK  status: ('A' for Active; 'I' for Inactive)
REMARK    1  A    between atoms: C_2  and  C_3 
REMARK       I    between atoms: C_2  and  N_18 
REMARK    2  A    between atoms: C_3  and  C_4 
REMARK    3  A    between atoms: C_4  and  C_5 
REMARK    4  A    between atoms: C_5  and  C_6 
REMARK    5  A    between atoms: C_6  and  O_8 
REMARK    6  A    between atoms: O_8  and  C_9 
REMARK    7  A    between atoms: C_9  and  C_10 
REMARK    8  A    between atoms: C_10  and  C_11 
REMARK    9  A    between atoms: C_11  and  C_12 
REMARK   10  A    between atoms: N_18  and  C_19 
REMARK   11  A    between atoms: C_19  and  N_21 
REMARK   12  A    between atoms: N_21  and  C_22 
REMARK   13  A    between atoms: C_25  and  C_26 
REMARK       I    between atoms: C_26  and  N_28 
ROOT
ATOM      1  O   UNL d   1      25.531 -15.372  -4.531  0.00  0.00    -0.273 OA
ATOM      2  C   UNL d   1      26.123 -15.177  -3.470  0.00  0.00     0.223 C 
ATOM      3  N   UNL d   1      26.299 -16.229  -2.550  0.00  0.00    -0.304 N 
ATOM      4  H   UNL d   1      25.855 -17.072  -2.897  0.00  0.00     0.171 HD
ENDROOT
BRANCH   3   5
ATOM      5  C   UNL d   1      27.034 -16.311  -1.343  0.00  0.00     0.178 C 
ATOM      6  S   UNL d   1      28.677 -15.910  -1.196  0.00  0.00    -0.040 SA
BRANCH   5   7
ATOM      7  N   UNL d   1      26.279 -16.789  -0.245  0.00  0.00    -0.333 N 
ATOM      8  H   UNL d   1      26.520 -16.497   0.696  0.00  0.00     0.168 HD
BRANCH   7   9
ATOM      9  C   UNL d   1      24.970 -17.343  -0.430  0.00  0.00     0.034 C 
ATOM     10  C   UNL d   1      24.634 -18.665  -0.125  0.00  0.00     0.030 C 
ATOM     11  C   UNL d   1      23.285 -19.098  -0.240  0.00  0.00     0.019 C 
ATOM     12  C   UNL d   1      22.254 -18.191  -0.551  0.00  0.00     0.032 C 
ATOM     13  C   UNL d   1      22.621 -16.875  -0.808  0.00  0.00     0.019 C 
ATOM     14  C   UNL d   1      23.952 -16.493  -0.857  0.00  0.00     0.030 C 
BRANCH  12  15
ATOM     15  C   UNL d   1      20.790 -18.575  -0.521  0.00  0.00     0.253 C 
ATOM     16  O   UNL d   1      19.988 -18.018  -1.270  0.00  0.00    -0.267 OA
ATOM     17  N   UNL d   1      20.409 -19.576   0.389  0.00  0.00    -0.348 N 
ATOM     18  C   UNL d   1      19.823 -20.853  -0.047  0.00  0.00     0.126 C 
ATOM     19  C   UNL d   1      20.655 -19.324   1.799  0.00  0.00     0.126 C 
ATOM     20  C   UNL d   1      18.316 -20.999   0.185  0.00  0.00     0.020 C 
ATOM     21  C   UNL d   1      17.884 -21.177   1.643  0.00  0.00     0.002 C 
ATOM     22  C   UNL d   1      18.376 -20.081   2.579  0.00  0.00     0.002 C 
ATOM     23  C   UNL d   1      19.874 -20.145   2.799  0.00  0.00     0.020 C 
ENDBRANCH  12  15
ENDBRANCH   7   9
ENDBRANCH   5   7
ENDBRANCH   3   5
BRANCH   2  24
ATOM     24  C   UNL d   1      26.691 -13.821  -3.084  0.00  0.00     0.103 C 
BRANCH  24  25
ATOM     25  C   UNL d   1      25.780 -12.623  -3.103  0.00  0.00     0.019 C 
BRANCH  25  26
ATOM     26  C   UNL d   1      26.585 -11.315  -2.970  0.00  0.00     0.111 C 
BRANCH  26  27
ATOM     27  C   UNL d   1      27.599 -11.478  -1.869  0.00  0.00     0.258 C 
ATOM     28  O   UNL d   1      28.813 -11.591  -2.066  0.00  0.00    -0.265 OA
BRANCH  27  29
ATOM     29  O   UNL d   1      27.028 -11.484  -0.635  0.00  0.00    -0.321 OA
BRANCH  29  30
ATOM     30  C   UNL d   1      26.953 -12.805  -0.071  0.00  0.00     0.179 C 
BRANCH  30  31
ATOM     31  C   UNL d   1      27.995 -12.948   1.025  0.00  0.00     0.031 C 
BRANCH  31  32
ATOM     32  C   UNL d   1      27.848 -14.278   1.771  0.00  0.00     0.041 C 
BRANCH  32  33
ATOM     33  C   UNL d   1      28.259 -14.194   3.223  0.00  0.00    -0.058 A 
ATOM     34  C   UNL d   1      27.353 -13.863   4.240  0.00  0.00     0.007 A 
ATOM     35  C   UNL d   1      27.796 -13.677   5.549  0.00  0.00     0.001 A 
ATOM     36  C   UNL d   1      29.126 -13.927   5.875  0.00  0.00     0.000 A 
ATOM     37  C   UNL d   1      30.024 -14.320   4.885  0.00  0.00     0.001 A 
ATOM     38  C   UNL d   1      29.593 -14.449   3.565  0.00  0.00     0.007 A 
ENDBRANCH  32  33
ENDBRANCH  31  32
ENDBRANCH  30  31
ENDBRANCH  29  30
ENDBRANCH  27  29
ENDBRANCH  26  27
ENDBRANCH  25  26
ENDBRANCH  24  25
ENDBRANCH   2  24
TORSDOF 13
ENDMDL
MODEL 4
REMARK VINA RESULT:    -9.674      6.977     10.193
REMARK INTER + INTRA:         -15.171
REMARK INTER:                 -13.552
REMARK INTRA:                  -1.619
REMARK CONF_INDEPENDENT:        3.878
REMARK UNBOUND:                -1.619
REMARK  13 active torsions:
REMARK  status: ('A' for Active; 'I' for Inactive)
REMARK    1  A    between atoms: C_2  and  C_3 
REMARK       I    between atoms: C_2  and  N_18 
REMARK    2  A    between atoms: C_3  and  C_4 
REMARK    3  A    between atoms: C_4  and  C_5 
REMARK    4  A    between atoms: C_5  and  C_6 
REMARK    5  A    between atoms: C_6  and  O_8 
REMARK    6  A    between atoms: O_8  and  C_9 
REMARK    7  A    between atoms: C_9  and  C_10 
REMARK    8  A    between atoms: C_10  and  C_11 
REMARK    9  A    between atoms: C_11  and  C_12 
REMARK   10  A    between atoms: N_18  and  C_19 
REMARK   11  A    between atoms: C_19  and  N_21 
REMARK   12  A    between atoms: N_21  and  C_22 
REMARK   13  A    between atoms: C_25  and  C_26 
REMARK       I    between atoms: C_26  and  N_28 
ROOT
ATOM      1  O   UNL d   1      29.919 -15.014  -1.731  0.00  0.00    -0.273 OA
ATOM      2  C   UNL d   1      29.141 -15.206  -0.798  0.00  0.00     0.223 C 
ATOM      3  N   UNL d   1      28.759 -14.141   0.041  0.00  0.00    -0.304 N 
ATOM      4  H   UNL d   1      29.236 -13.290  -0.239  0.00  0.00     0.171 HD
ENDROOT
BRANCH   3   5
ATOM      5  C   UNL d   1      27.803 -14.057   1.082  0.00  0.00     0.178 C 
ATOM      6  S   UNL d   1      26.447 -13.036   1.054  0.00  0.00    -0.040 SA
BRANCH   5   7
ATOM      7  N   UNL d   1      28.087 -14.894   2.188  0.00  0.00    -0.333 N 
ATOM      8  H   UNL d   1      28.589 -15.763   2.044  0.00  0.00     0.168 HD
BRANCH   7   9
ATOM      9  C   UNL d   1      28.045 -14.391   3.529  0.00  0.00     0.034 C 
ATOM     10  C   UNL d   1      28.115 -15.200   4.666  0.00  0.00     0.030 C 
ATOM     11  C   UNL d   1      28.174 -14.606   5.957  0.00  0.00     0.019 C 
ATOM     12  C   UNL d   1      28.273 -13.210   6.110  0.00  0.00     0.032 C 
ATOM     13  C   UNL d   1      28.241 -12.439   4.954  0.00  0.00     0.019 C 
ATOM     14  C   UNL d   1      28.018 -13.010   3.712  0.00  0.00     0.030 C 
BRANCH  12  15
ATOM     15  C   UNL d   1      28.503 -12.549   7.453  0.00  0.00     0.253 C 
ATOM     16  O   UNL d   1      28.308 -11.342   7.590  0.00  0.00    -0.267 OA
ATOM     17  N   UNL d   1      28.943 -13.372   8.504  0.00  0.00    -0.348 N 
ATOM     18  C   UNL d   1      28.155 -13.568   9.731  0.00  0.00     0.126 C 
ATOM     19  C   UNL d   1      30.205 -14.068   8.322  0.00  0.00     0.126 C 
ATOM     20  C   UNL d   1      28.674 -12.836  10.972  0.00  0.00     0.020 C 
ATOM     21  C   UNL d   1      29.961 -13.397  11.582  0.00  0.00     0.002 C 
ATOM     22  C   UNL d   1      31.125 -13.499  10.604  0.00  0.00     0.002 C 
ATOM     23  C   UNL d   1      30.903 -14.577   9.562  0.00  0.00     0.020 C 
ENDBRANCH  12  15
ENDBRANCH   7   9
ENDBRANCH   5   7
ENDBRANCH   3   5
BRANCH   2  24
ATOM     24  C   UNL d   1      28.550 -16.572  -0.489  0.00  0.00     0.103 C 
BRANCH  24  25
ATOM     25  C   UNL d   1      27.347 -17.033  -1.267  0.00  0.00     0.019 C 
BRANCH  25  26
ATOM     26  C   UNL d   1      26.094 -17.079  -0.370  0.00  0.00     0.111 C 
BRANCH  26  27
ATOM     27  C   UNL d   1      25.094 -16.074  -0.879  0.00  0.00     0.258 C 
ATOM     28  O   UNL d   1      25.292 -15.344  -1.856  0.00  0.00    -0.265 OA
BRANCH  27  29
ATOM     29  O   UNL d   1      23.950 -16.063  -0.145  0.00  0.00    -0.321 OA
BRANCH  29  30
ATOM     30  C   UNL d   1      22.819 -16.560  -0.881  0.00  0.00     0.179 C 
BRANCH  30  31
ATOM     31  C   UNL d   1      23.010 -18.039  -1.167  0.00  0.00     0.031 C 
BRANCH  31  32
ATOM     32  C   UNL d   1      22.706 -18.894   0.067  0.00  0.00     0.041 C 
BRANCH  32  33
ATOM     33  C   UNL d   1      21.246 -19.265   0.190  0.00  0.00    -0.058 A 
ATOM     34  C   UNL d   1      20.655 -19.581   1.421  0.00  0.00     0.007 A 
ATOM     35  C   UNL d   1      19.338 -20.037   1.477  0.00  0.00     0.001 A 
ATOM     36  C   UNL d   1      18.565 -20.074   0.320  0.00  0.00     0.000 A 
ATOM     37  C   UNL d   1      19.122 -19.701  -0.902  0.00  0.00     0.001 A 
ATOM     38  C   UNL d   1      20.456 -19.302  -0.966  0.00  0.00     0.007 A 
ENDBRANCH  32  33
ENDBRANCH  31  32
ENDBRANCH  30  31
ENDBRANCH  29  30
ENDBRANCH  27  29
ENDBRANCH  26  27
ENDBRANCH  25  26
ENDBRANCH  24  25
ENDBRANCH   2  24
TORSDOF 13
ENDMDL
MODEL 5
REMARK VINA RESULT:    -9.596      6.834      9.922
REMARK INTER + INTRA:         -14.935
REMARK INTER:                 -13.474
REMARK INTRA:                  -1.462
REMARK CONF_INDEPENDENT:        3.878
REMARK UNBOUND:                -1.462
REMARK  13 active torsions:
REMARK  status: ('A' for Active; 'I' for Inactive)
REMARK    1  A    between atoms: C_2  and  C_3 
REMARK       I    between atoms: C_2  and  N_18 
REMARK    2  A    between atoms: C_3  and  C_4 
REMARK    3  A    between atoms: C_4  and  C_5 
REMARK    4  A    between atoms: C_5  and  C_6 
REMARK    5  A    between atoms: C_6  and  O_8 
REMARK    6  A    between atoms: O_8  and  C_9 
REMARK    7  A    between atoms: C_9  and  C_10 
REMARK    8  A    between atoms: C_10  and  C_11 
REMARK    9  A    between atoms: C_11  and  C_12 
REMARK   10  A    between atoms: N_18  and  C_19 
REMARK   11  A    between atoms: C_19  and  N_21 
REMARK   12  A    between atoms: N_21  and  C_22 
REMARK   13  A    between atoms: C_25  and  C_26 
REMARK       I    between atoms: C_26  and  N_28 
ROOT
ATOM      1  O   UNL d   1      28.539 -16.825  -1.646  0.00  0.00    -0.273 OA
ATOM      2  C   UNL d   1      28.557 -16.447  -0.475  0.00  0.00     0.223 C 
ATOM      3  N   UNL d   1      29.533 -15.530  -0.038  0.00  0.00    -0.304 N 
ATOM      4  H   UNL d   1      30.163 -15.304  -0.800  0.00  0.00     0.171 HD
ENDROOT
BRANCH   3   5
ATOM      5  C   UNL d   1      29.701 -14.847   1.191  0.00  0.00     0.178 C 
ATOM      6  S   UNL d   1      31.151 -14.816   2.074  0.00  0.00    -0.040 SA
BRANCH   5   7
ATOM      7  N   UNL d   1      28.531 -14.197   1.649  0.00  0.00    -0.333 N 
ATOM      8  H   UNL d   1      27.705 -14.176   1.062  0.00  0.00     0.168 HD
BRANCH   7   9
ATOM      9  C   UNL d   1      28.337 -13.913   3.041  0.00  0.00     0.034 C 
ATOM     10  C   UNL d   1      27.996 -14.878   3.992  0.00  0.00     0.030 C 
ATOM     11  C   UNL d   1      27.929 -14.525   5.368  0.00  0.00     0.019 C 
ATOM     12  C   UNL d   1      28.307 -13.243   5.808  0.00  0.00     0.032 C 
ATOM     13  C   UNL d   1      28.679 -12.320   4.836  0.00  0.00     0.019 C 
ATOM     14  C   UNL d   1      28.585 -12.616   3.486  0.00  0.00     0.030 C 
BRANCH  12  15
ATOM     15  C   UNL d   1      28.408 -12.878   7.274  0.00  0.00     0.253 C 
ATOM     16  O   UNL d   1      27.852 -11.866   7.700  0.00  0.00    -0.267 OA
ATOM     17  N   UNL d   1      29.155 -13.737   8.097  0.00  0.00    -0.348 N 
ATOM     18  C   UNL d   1      28.555 -14.459   9.229  0.00  0.00     0.126 C 
ATOM     19  C   UNL d   1      30.557 -13.927   7.765  0.00  0.00     0.126 C 
ATOM     20  C   UNL d   1      28.901 -13.912  10.618  0.00  0.00     0.020 C 
ATOM     21  C   UNL d   1      30.337 -14.155  11.087  0.00  0.00     0.002 C 
ATOM     22  C   UNL d   1      31.404 -13.644  10.127  0.00  0.00     0.002 C 
ATOM     23  C   UNL d   1      31.463 -14.460   8.850  0.00  0.00     0.020 C 
ENDBRANCH  12  15
ENDBRANCH   7   9
ENDBRANCH   5   7
ENDBRANCH   3   5
BRANCH   2  24
ATOM     24  C   UNL d   1      27.554 -16.930   0.559  0.00  0.00     0.103 C 
BRANCH  24  25
ATOM     25  C   UNL d   1      26.450 -17.854   0.119  0.00  0.00     0.019 C 
BRANCH  25  26
ATOM     26  C   UNL d   1      25.788 -17.345  -1.177  0.00  0.00     0.111 C 
BRANCH  26  27
ATOM     27  C   UNL d   1      24.418 -16.812  -0.847  0.00  0.00     0.258 C 
ATOM     28  O   UNL d   1      23.908 -15.837  -1.409  0.00  0.00    -0.265 OA
BRANCH  27  29
ATOM     29  O   UNL d   1      23.808 -17.523   0.137  0.00  0.00    -0.321 OA
BRANCH  29  30
ATOM     30  C   UNL d   1      22.974 -18.575  -0.380  0.00  0.00     0.179 C 
BRANCH  30  31
ATOM     31  C   UNL d   1      21.675 -17.984  -0.897  0.00  0.00     0.031 C 
BRANCH  31  32
ATOM     32  C   UNL d   1      20.647 -19.075  -1.211  0.00  0.00     0.041 C 
BRANCH  32  33
ATOM     33  C   UNL d   1      19.978 -19.636   0.022  0.00  0.00    -0.058 A 
ATOM     34  C   UNL d   1      20.450 -19.373   1.316  0.00  0.00     0.007 A 
ATOM     35  C   UNL d   1      19.880 -20.007   2.420  0.00  0.00     0.001 A 
ATOM     36  C   UNL d   1      18.764 -20.821   2.254  0.00  0.00     0.000 A 
ATOM     37  C   UNL d   1      18.244 -21.040   0.980  0.00  0.00     0.001 A 
ATOM     38  C   UNL d   1      18.851 -20.453  -0.130  0.00  0.00     0.007 A 
ENDBRANCH  32  33
ENDBRANCH  31  32
ENDBRANCH  30  31
ENDBRANCH  29  30
ENDBRANCH  27  29
ENDBRANCH  26  27
ENDBRANCH  25  26
ENDBRANCH  24  25
ENDBRANCH   2  24
TORSDOF 13
ENDMDL
MODEL 6
REMARK VINA RESULT:    -9.417      7.223     10.866
REMARK INTER + INTRA:         -15.226
REMARK INTER:                 -13.295
REMARK INTRA:                  -1.931
REMARK CONF_INDEPENDENT:        3.878
REMARK UNBOUND:                -1.931
REMARK  13 active torsions:
REMARK  status: ('A' for Active; 'I' for Inactive)
REMARK    1  A    between atoms: C_2  and  C_3 
REMARK       I    between atoms: C_2  and  N_18 
REMARK    2  A    between atoms: C_3  and  C_4 
REMARK    3  A    between atoms: C_4  and  C_5 
REMARK    4  A    between atoms: C_5  and  C_6 
REMARK    5  A    between atoms: C_6  and  O_8 
REMARK    6  A    between atoms: O_8  and  C_9 
REMARK    7  A    between atoms: C_9  and  C_10 
REMARK    8  A    between atoms: C_10  and  C_11 
REMARK    9  A    between atoms: C_11  and  C_12 
REMARK   10  A    between atoms: N_18  and  C_19 
REMARK   11  A    between atoms: C_19  and  N_21 
REMARK   12  A    between atoms: N_21  and  C_22 
REMARK   13  A    between atoms: C_25  and  C_26 
REMARK       I    between atoms: C_26  and  N_28 
ROOT
ATOM      1  O   UNL d   1      30.444 -14.543  -1.330  0.00  0.00    -0.273 OA
ATOM      2  C   UNL d   1      29.439 -14.799  -0.669  0.00  0.00     0.223 C 
ATOM      3  N   UNL d   1      29.142 -14.056   0.490  0.00  0.00    -0.304 N 
ATOM      4  H   UNL d   1      29.869 -13.369   0.659  0.00  0.00     0.171 HD
ENDROOT
BRANCH   3   5
ATOM      5  C   UNL d   1      28.012 -14.054   1.344  0.00  0.00     0.178 C 
ATOM      6  S   UNL d   1      26.580 -13.196   1.031  0.00  0.00    -0.040 SA
BRANCH   5   7
ATOM      7  N   UNL d   1      28.183 -14.822   2.521  0.00  0.00    -0.333 N 
ATOM      8  H   UNL d   1      28.467 -15.793   2.450  0.00  0.00     0.168 HD
BRANCH   7   9
ATOM      9  C   UNL d   1      28.351 -14.195   3.799  0.00  0.00     0.034 C 
ATOM     10  C   UNL d   1      27.784 -12.965   4.142  0.00  0.00     0.030 C 
ATOM     11  C   UNL d   1      27.915 -12.469   5.469  0.00  0.00     0.019 C 
ATOM     12  C   UNL d   1      28.515 -13.246   6.478  0.00  0.00     0.032 C 
ATOM     13  C   UNL d   1      29.032 -14.482   6.108  0.00  0.00     0.019 C 
ATOM     14  C   UNL d   1      29.050 -14.889   4.784  0.00  0.00     0.030 C 
BRANCH  12  15
ATOM     15  C   UNL d   1      28.528 -12.827   7.933  0.00  0.00     0.253 C 
ATOM     16  O   UNL d   1      28.135 -11.707   8.259  0.00  0.00    -0.267 OA
ATOM     17  N   UNL d   1      29.004 -13.766   8.865  0.00  0.00    -0.348 N 
ATOM     18  C   UNL d   1      28.159 -14.300   9.944  0.00  0.00     0.126 C 
ATOM     19  C   UNL d   1      30.371 -14.232   8.702  0.00  0.00     0.126 C 
ATOM     20  C   UNL d   1      28.454 -13.752  11.344  0.00  0.00     0.020 C 
ATOM     21  C   UNL d   1      29.759 -14.235  11.983  0.00  0.00     0.002 C 
ATOM     22  C   UNL d   1      31.000 -13.986  11.135  0.00  0.00     0.002 C 
ATOM     23  C   UNL d   1      31.036 -14.866   9.902  0.00  0.00     0.020 C 
ENDBRANCH  12  15
ENDBRANCH   7   9
ENDBRANCH   5   7
ENDBRANCH   3   5
BRANCH   2  24
ATOM     24  C   UNL d   1      28.470 -15.908  -1.044  0.00  0.00     0.103 C 
BRANCH  24  25
ATOM     25  C   UNL d   1      28.327 -16.283  -2.494  0.00  0.00     0.019 C 
BRANCH  25  26
ATOM     26  C   UNL d   1      28.311 -15.029  -3.390  0.00  0.00     0.111 C 
BRANCH  26  27
ATOM     27  C   UNL d   1      27.392 -15.275  -4.558  0.00  0.00     0.258 C 
ATOM     28  O   UNL d   1      27.748 -15.202  -5.738  0.00  0.00    -0.265 OA
BRANCH  27  29
ATOM     29  O   UNL d   1      26.129 -15.589  -4.166  0.00  0.00    -0.321 OA
BRANCH  29  30
ATOM     30  C   UNL d   1      25.263 -14.441  -4.130  0.00  0.00     0.179 C 
BRANCH  30  31
ATOM     31  C   UNL d   1      24.595 -14.351  -2.770  0.00  0.00     0.031 C 
BRANCH  31  32
ATOM     32  C   UNL d   1      25.442 -15.021  -1.683  0.00  0.00     0.041 C 
BRANCH  32  33
ATOM     33  C   UNL d   1      24.779 -16.237  -1.077  0.00  0.00    -0.058 A 
ATOM     34  C   UNL d   1      23.402 -16.474  -1.190  0.00  0.00     0.007 A 
ATOM     35  C   UNL d   1      22.810 -17.541  -0.514  0.00  0.00     0.001 A 
ATOM     36  C   UNL d   1      23.603 -18.445   0.188  0.00  0.00     0.000 A 
ATOM     37  C   UNL d   1      24.981 -18.258   0.254  0.00  0.00     0.001 A 
ATOM     38  C   UNL d   1      25.565 -17.157  -0.373  0.00  0.00     0.007 A 
ENDBRANCH  32  33
ENDBRANCH  31  32
ENDBRANCH  30  31
ENDBRANCH  29  30
ENDBRANCH  27  29
ENDBRANCH  26  27
ENDBRANCH  25  26
ENDBRANCH  24  25
ENDBRANCH   2  24
TORSDOF 13
ENDMDL
MODEL 7
REMARK VINA RESULT:    -8.707      3.373     10.149
REMARK INTER + INTRA:         -14.917
REMARK INTER:                 -12.585
REMARK INTRA:                  -2.332
REMARK CONF_INDEPENDENT:        3.878
REMARK UNBOUND:                -2.332
REMARK  13 active torsions:
REMARK  status: ('A' for Active; 'I' for Inactive)
REMARK    1  A    between atoms: C_2  and  C_3 
REMARK       I    between atoms: C_2  and  N_18 
REMARK    2  A    between atoms: C_3  and  C_4 
REMARK    3  A    between atoms: C_4  and  C_5 
REMARK    4  A    between atoms: C_5  and  C_6 
REMARK    5  A    between atoms: C_6  and  O_8 
REMARK    6  A    between atoms: O_8  and  C_9 
REMARK    7  A    between atoms: C_9  and  C_10 
REMARK    8  A    between atoms: C_10  and  C_11 
REMARK    9  A    between atoms: C_11  and  C_12 
REMARK   10  A    between atoms: N_18  and  C_19 
REMARK   11  A    between atoms: C_19  and  N_21 
REMARK   12  A    between atoms: N_21  and  C_22 
REMARK   13  A    between atoms: C_25  and  C_26 
REMARK       I    between atoms: C_26  and  N_28 
ROOT
ATOM      1  O   UNL d   1      30.158 -18.709  -0.547  0.00  0.00    -0.273 OA
ATOM      2  C   UNL d   1      29.317 -17.878  -0.885  0.00  0.00     0.223 C 
ATOM      3  N   UNL d   1      28.197 -17.626  -0.069  0.00  0.00    -0.304 N 
ATOM      4  H   UNL d   1      28.217 -18.232   0.744  0.00  0.00     0.171 HD
ENDROOT
BRANCH   3   5
ATOM      5  C   UNL d   1      27.169 -16.657  -0.153  0.00  0.00     0.178 C 
ATOM      6  S   UNL d   1      27.033 -15.317   0.882  0.00  0.00    -0.040 SA
BRANCH   5   7
ATOM      7  N   UNL d   1      26.226 -16.910  -1.177  0.00  0.00    -0.333 N 
ATOM      8  H   UNL d   1      26.547 -17.141  -2.111  0.00  0.00     0.168 HD
BRANCH   7   9
ATOM      9  C   UNL d   1      24.864 -17.235  -0.868  0.00  0.00     0.034 C 
ATOM     10  C   UNL d   1      23.845 -16.287  -0.749  0.00  0.00     0.030 C 
ATOM     11  C   UNL d   1      22.503 -16.710  -0.546  0.00  0.00     0.019 C 
ATOM     12  C   UNL d   1      22.160 -18.075  -0.570  0.00  0.00     0.032 C 
ATOM     13  C   UNL d   1      23.195 -18.989  -0.732  0.00  0.00     0.019 C 
ATOM     14  C   UNL d   1      24.519 -18.581  -0.763  0.00  0.00     0.030 C 
BRANCH  12  15
ATOM     15  C   UNL d   1      20.726 -18.559  -0.523  0.00  0.00     0.253 C 
ATOM     16  O   UNL d   1      19.881 -18.066  -1.271  0.00  0.00    -0.267 OA
ATOM     17  N   UNL d   1      20.423 -19.573   0.401  0.00  0.00    -0.348 N 
ATOM     18  C   UNL d   1      19.922 -20.892  -0.016  0.00  0.00     0.126 C 
ATOM     19  C   UNL d   1      20.662 -19.289   1.806  0.00  0.00     0.126 C 
ATOM     20  C   UNL d   1      18.431 -21.139   0.230  0.00  0.00     0.020 C 
ATOM     21  C   UNL d   1      18.024 -21.330   1.694  0.00  0.00     0.002 C 
ATOM     22  C   UNL d   1      18.447 -20.192   2.614  0.00  0.00     0.002 C 
ATOM     23  C   UNL d   1      19.948 -20.151   2.821  0.00  0.00     0.020 C 
ENDBRANCH  12  15
ENDBRANCH   7   9
ENDBRANCH   5   7
ENDBRANCH   3   5
BRANCH   2  24
ATOM     24  C   UNL d   1      29.420 -17.084  -2.177  0.00  0.00     0.103 C 
BRANCH  24  25
ATOM     25  C   UNL d   1      30.772 -16.921  -2.819  0.00  0.00     0.019 C 
BRANCH  25  26
ATOM     26  C   UNL d   1      30.803 -15.678  -3.731  0.00  0.00     0.111 C 
BRANCH  26  27
ATOM     27  C   UNL d   1      30.118 -16.010  -5.030  0.00  0.00     0.258 C 
ATOM     28  O   UNL d   1      29.490 -17.055  -5.226  0.00  0.00    -0.265 OA
BRANCH  27  29
ATOM     29  O   UNL d   1      30.266 -15.030  -5.960  0.00  0.00    -0.321 OA
BRANCH  29  30
ATOM     30  C   UNL d   1      29.010 -14.603  -6.515  0.00  0.00     0.179 C 
BRANCH  30  31
ATOM     31  C   UNL d   1      28.880 -13.096  -6.375  0.00  0.00     0.031 C 
BRANCH  31  32
ATOM     32  C   UNL d   1      27.418 -12.672  -6.201  0.00  0.00     0.041 C 
BRANCH  32  33
ATOM     33  C   UNL d   1      26.750 -13.314  -5.008  0.00  0.00    -0.058 A 
ATOM     34  C   UNL d   1      26.292 -14.639  -5.028  0.00  0.00     0.007 A 
ATOM     35  C   UNL d   1      25.572 -15.155  -3.951  0.00  0.00     0.001 A 
ATOM     36  C   UNL d   1      25.399 -14.392  -2.800  0.00  0.00     0.000 A 
ATOM     37  C   UNL d   1      25.905 -13.095  -2.742  0.00  0.00     0.001 A 
ATOM     38  C   UNL d   1      26.573 -12.559  -3.842  0.00  0.00     0.007 A 
ENDBRANCH  32  33
ENDBRANCH  31  32
ENDBRANCH  30  31
ENDBRANCH  29  30
ENDBRANCH  27  29
ENDBRANCH  26  27
ENDBRANCH  25  26
ENDBRANCH  24  25
ENDBRANCH   2  24
TORSDOF 13
ENDMDL
MODEL 8
REMARK VINA RESULT:    -8.259      3.395     10.309
REMARK INTER + INTRA:         -15.082
REMARK INTER:                 -12.137
REMARK INTRA:                  -2.945
REMARK CONF_INDEPENDENT:        3.878
REMARK UNBOUND:                -2.945
REMARK  13 active torsions:
REMARK  status: ('A' for Active; 'I' for Inactive)
REMARK    1  A    between atoms: C_2  and  C_3 
REMARK       I    between atoms: C_2  and  N_18 
REMARK    2  A    between atoms: C_3  and  C_4 
REMARK    3  A    between atoms: C_4  and  C_5 
REMARK    4  A    between atoms: C_5  and  C_6 
REMARK    5  A    between atoms: C_6  and  O_8 
REMARK    6  A    between atoms: O_8  and  C_9 
REMARK    7  A    between atoms: C_9  and  C_10 
REMARK    8  A    between atoms: C_10  and  C_11 
REMARK    9  A    between atoms: C_11  and  C_12 
REMARK   10  A    between atoms: N_18  and  C_19 
REMARK   11  A    between atoms: C_19  and  N_21 
REMARK   12  A    between atoms: N_21  and  C_22 
REMARK   13  A    between atoms: C_25  and  C_26 
REMARK       I    between atoms: C_26  and  N_28 
ROOT
ATOM      1  O   UNL d   1      30.326 -15.558  -0.022  0.00  0.00    -0.273 OA
ATOM      2  C   UNL d   1      29.143 -15.827   0.181  0.00  0.00     0.223 C 
ATOM      3  N   UNL d   1      28.589 -17.022  -0.320  0.00  0.00    -0.304 N 
ATOM      4  H   UNL d   1      29.287 -17.532  -0.850  0.00  0.00     0.171 HD
ENDROOT
BRANCH   3   5
ATOM      5  C   UNL d   1      27.323 -17.626  -0.129  0.00  0.00     0.178 C 
ATOM      6  S   UNL d   1      27.019 -18.877   0.979  0.00  0.00    -0.040 SA
BRANCH   5   7
ATOM      7  N   UNL d   1      26.310 -17.110  -0.972  0.00  0.00    -0.333 N 
ATOM      8  H   UNL d   1      26.546 -16.791  -1.905  0.00  0.00     0.168 HD
BRANCH   7   9
ATOM      9  C   UNL d   1      24.925 -17.378  -0.717  0.00  0.00     0.034 C 
ATOM     10  C   UNL d   1      23.927 -16.400  -0.740  0.00  0.00     0.030 C 
ATOM     11  C   UNL d   1      22.564 -16.774  -0.581  0.00  0.00     0.019 C 
ATOM     12  C   UNL d   1      22.186 -18.129  -0.509  0.00  0.00     0.032 C 
ATOM     13  C   UNL d   1      23.204 -19.075  -0.530  0.00  0.00     0.019 C 
ATOM     14  C   UNL d   1      24.538 -18.701  -0.519  0.00  0.00     0.030 C 
BRANCH  12  15
ATOM     15  C   UNL d   1      20.739 -18.575  -0.506  0.00  0.00     0.253 C 
ATOM     16  O   UNL d   1      19.928 -18.053  -1.270  0.00  0.00    -0.267 OA
ATOM     17  N   UNL d   1      20.385 -19.591   0.399  0.00  0.00    -0.348 N 
ATOM     18  C   UNL d   1      19.862 -20.892  -0.046  0.00  0.00     0.126 C 
ATOM     19  C   UNL d   1      20.594 -19.327   1.813  0.00  0.00     0.126 C 
ATOM     20  C   UNL d   1      18.359 -21.102   0.158  0.00  0.00     0.020 C 
ATOM     21  C   UNL d   1      17.908 -21.297   1.608  0.00  0.00     0.002 C 
ATOM     22  C   UNL d   1      18.335 -20.180   2.552  0.00  0.00     0.002 C 
ATOM     23  C   UNL d   1      19.831 -20.180   2.799  0.00  0.00     0.020 C 
ENDBRANCH  12  15
ENDBRANCH   7   9
ENDBRANCH   5   7
ENDBRANCH   3   5
BRANCH   2  24
ATOM     24  C   UNL d   1      28.215 -14.914   0.967  0.00  0.00     0.103 C 
BRANCH  24  25
ATOM     25  C   UNL d   1      27.548 -13.771   0.249  0.00  0.00     0.019 C 
BRANCH  25  26
ATOM     26  C   UNL d   1      26.497 -14.287  -0.754  0.00  0.00     0.111 C 
BRANCH  26  27
ATOM     27  C   UNL d   1      27.051 -14.158  -2.148  0.00  0.00     0.258 C 
ATOM     28  O   UNL d   1      27.456 -13.095  -2.630  0.00  0.00    -0.265 OA
BRANCH  27  29
ATOM     29  O   UNL d   1      27.056 -15.342  -2.816  0.00  0.00    -0.321 OA
BRANCH  29  30
ATOM     30  C   UNL d   1      27.528 -15.210  -4.168  0.00  0.00     0.179 C 
BRANCH  30  31
ATOM     31  C   UNL d   1      28.999 -14.837  -4.157  0.00  0.00     0.031 C 
BRANCH  31  32
ATOM     32  C   UNL d   1      29.812 -15.728  -5.102  0.00  0.00     0.041 C 
BRANCH  32  33
ATOM     33  C   UNL d   1      30.263 -17.020  -4.461  0.00  0.00    -0.058 A 
ATOM     34  C   UNL d   1      30.710 -17.081  -3.133  0.00  0.00     0.007 A 
ATOM     35  C   UNL d   1      31.232 -18.267  -2.617  0.00  0.00     0.001 A 
ATOM     36  C   UNL d   1      31.210 -19.428  -3.384  0.00  0.00     0.000 A 
ATOM     37  C   UNL d   1      30.709 -19.396  -4.683  0.00  0.00     0.001 A 
ATOM     38  C   UNL d   1      30.241 -18.197  -5.219  0.00  0.00     0.007 A 
ENDBRANCH  32  33
ENDBRANCH  31  32
ENDBRANCH  30  31
ENDBRANCH  29  30
ENDBRANCH  27  29
ENDBRANCH  26  27
ENDBRANCH  25  26
ENDBRANCH  24  25
ENDBRANCH   2  24
TORSDOF 13
ENDMDL
MODEL 9
REMARK VINA RESULT:    -8.154      4.195      7.598
REMARK INTER + INTRA:         -15.153
REMARK INTER:                 -12.032
REMARK INTRA:                  -3.121
REMARK CONF_INDEPENDENT:        3.878
REMARK UNBOUND:                -3.121
REMARK  13 active torsions:
REMARK  status: ('A' for Active; 'I' for Inactive)
REMARK    1  A    between atoms: C_2  and  C_3 
REMARK       I    between atoms: C_2  and  N_18 
REMARK    2  A    between atoms: C_3  and  C_4 
REMARK    3  A    between atoms: C_4  and  C_5 
REMARK    4  A    between atoms: C_5  and  C_6 
REMARK    5  A    between atoms: C_6  and  O_8 
REMARK    6  A    between atoms: O_8  and  C_9 
REMARK    7  A    between atoms: C_9  and  C_10 
REMARK    8  A    between atoms: C_10  and  C_11 
REMARK    9  A    between atoms: C_11  and  C_12 
REMARK   10  A    between atoms: N_18  and  C_19 
REMARK   11  A    between atoms: C_19  and  N_21 
REMARK   12  A    between atoms: N_21  and  C_22 
REMARK   13  A    between atoms: C_25  and  C_26 
REMARK       I    between atoms: C_26  and  N_28 
ROOT
ATOM      1  O   UNL d   1      23.993 -14.076  -4.165  0.00  0.00    -0.273 OA
ATOM      2  C   UNL d   1      25.133 -13.628  -4.277  0.00  0.00     0.223 C 
ATOM      3  N   UNL d   1      25.363 -12.241  -4.195  0.00  0.00    -0.304 N 
ATOM      4  H   UNL d   1      24.485 -11.750  -4.073  0.00  0.00     0.171 HD
ENDROOT
BRANCH   3   5
ATOM      5  C   UNL d   1      26.560 -11.485  -4.161  0.00  0.00     0.178 C 
ATOM      6  S   UNL d   1      26.835 -10.092  -5.093  0.00  0.00    -0.040 SA
BRANCH   5   7
ATOM      7  N   UNL d   1      27.543 -12.008  -3.288  0.00  0.00    -0.333 N 
ATOM      8  H   UNL d   1      28.495 -12.127  -3.616  0.00  0.00     0.168 HD
BRANCH   7   9
ATOM      9  C   UNL d   1      27.349 -12.009  -1.867  0.00  0.00     0.034 C 
ATOM     10  C   UNL d   1      26.690 -13.026  -1.173  0.00  0.00     0.030 C 
ATOM     11  C   UNL d   1      26.637 -12.996   0.248  0.00  0.00     0.019 C 
ATOM     12  C   UNL d   1      27.333 -12.015   0.980  0.00  0.00     0.032 C 
ATOM     13  C   UNL d   1      28.012 -11.042   0.255  0.00  0.00     0.019 C 
ATOM     14  C   UNL d   1      27.924 -10.979  -1.126  0.00  0.00     0.030 C 
BRANCH  12  15
ATOM     15  C   UNL d   1      27.439 -12.044   2.490  0.00  0.00     0.253 C 
ATOM     16  O   UNL d   1      27.028 -11.095   3.157  0.00  0.00    -0.267 OA
ATOM     17  N   UNL d   1      28.021 -13.184   3.069  0.00  0.00    -0.348 N 
ATOM     18  C   UNL d   1      27.282 -14.062   3.989  0.00  0.00     0.126 C 
ATOM     19  C   UNL d   1      29.389 -13.499   2.693  0.00  0.00     0.126 C 
ATOM     20  C   UNL d   1      27.660 -13.934   5.468  0.00  0.00     0.020 C 
ATOM     21  C   UNL d   1      29.027 -14.504   5.854  0.00  0.00     0.002 C 
ATOM     22  C   UNL d   1      30.190 -13.942   5.046  0.00  0.00     0.002 C 
ATOM     23  C   UNL d   1      30.168 -14.417   3.606  0.00  0.00     0.020 C 
ENDBRANCH  12  15
ENDBRANCH   7   9
ENDBRANCH   5   7
ENDBRANCH   3   5
BRANCH   2  24
ATOM     24  C   UNL d   1      26.345 -14.515  -4.507  0.00  0.00     0.103 C 
BRANCH  24  25
ATOM     25  C   UNL d   1      26.931 -15.258  -3.335  0.00  0.00     0.019 C 
BRANCH  25  26
ATOM     26  C   UNL d   1      28.410 -15.609  -3.588  0.00  0.00     0.111 C 
BRANCH  26  27
ATOM     27  C   UNL d   1      28.967 -16.285  -2.362  0.00  0.00     0.258 C 
ATOM     28  O   UNL d   1      29.435 -17.429  -2.363  0.00  0.00    -0.265 OA
BRANCH  27  29
ATOM     29  O   UNL d   1      28.896 -15.496  -1.258  0.00  0.00    -0.321 OA
BRANCH  29  30
ATOM     30  C   UNL d   1      28.466 -16.219  -0.092  0.00  0.00     0.179 C 
BRANCH  30  31
ATOM     31  C   UNL d   1      26.952 -16.171   0.005  0.00  0.00     0.031 C 
BRANCH  31  32
ATOM     32  C   UNL d   1      26.346 -17.577   0.048  0.00  0.00     0.041 C 
BRANCH  32  33
ATOM     33  C   UNL d   1      24.858 -17.593  -0.217  0.00  0.00    -0.058 A 
ATOM     34  C   UNL d   1      24.097 -18.768  -0.145  0.00  0.00     0.007 A 
ATOM     35  C   UNL d   1      22.752 -18.764  -0.516  0.00  0.00     0.001 A 
ATOM     36  C   UNL d   1      22.128 -17.567  -0.854  0.00  0.00     0.000 A 
ATOM     37  C   UNL d   1      22.858 -16.380  -0.867  0.00  0.00     0.001 A 
ATOM     38  C   UNL d   1      24.216 -16.395  -0.553  0.00  0.00     0.007 A 
ENDBRANCH  32  33
ENDBRANCH  31  32
ENDBRANCH  30  31
ENDBRANCH  29  30
ENDBRANCH  27  29
ENDBRANCH  26  27
ENDBRANCH  25  26
ENDBRANCH  24  25
ENDBRANCH   2  24
TORSDOF 13
ENDMDL
