MODEL 1
REMARK VINA RESULT:    -9.508      0.000      0.000
REMARK INTER + INTRA:         -11.366
REMARK INTER:                 -10.999
REMARK INTRA:                  -0.367
REMARK CONF_INDEPENDENT:        1.492
REMARK UNBOUND:                -0.367
REMARK  5 active torsions:
REMARK  status: ('A' for Active; 'I' for Inactive)
REMARK    1  A    between atoms: C_14  and  N_15 
REMARK       I    between atoms: N_15  and  C_16 
REMARK    2  A    between atoms: C_16  and  C_18 
REMARK    3  A    between atoms: C_18  and  S_19 
REMARK    4  A    between atoms: S_19  and  C_20 
REMARK    5  A    between atoms: C_23  and  C_24 
ROOT
ATOM      1  N   UNL d   1      27.600 -15.396  -3.155  0.00  0.00    -0.305 N 
ATOM      2  C   UNL d   1      26.256 -15.748  -3.014  0.00  0.00     0.233 C 
ATOM      3  O   UNL d   1      25.538 -15.983  -3.988  0.00  0.00    -0.272 OA
ATOM      4  H   UNL d   1      28.206 -15.208  -2.367  0.00  0.00     0.171 HD
ENDROOT
BRANCH   1   5
ATOM      5  C   UNL d   1      28.139 -15.298  -4.436  0.00  0.00     0.173 A 
ATOM      6  S   UNL d   1      27.240 -14.437  -5.613  0.00  0.00    -0.061 SA
ATOM      7  C   UNL d   1      28.482 -14.758  -6.790  0.00  0.00     0.085 A 
ATOM      8  C   UNL d   1      29.471 -15.522  -6.207  0.00  0.00     0.075 A 
ATOM      9  C   UNL d   1      30.627 -16.075  -6.833  0.00  0.00     0.006 A 
ATOM     10  N   UNL d   1      29.270 -15.801  -4.877  0.00  0.00    -0.223 NA
ATOM     11  C   UNL d   1      30.983 -17.366  -6.948  0.00  0.00     0.001 A 
ATOM     12  C   UNL d   1      31.685 -15.170  -7.431  0.00  0.00     0.114 A 
ATOM     13  C   UNL d   1      30.406 -18.618  -6.564  0.00  0.00     0.014 A 
ATOM     14  C   UNL d   1      32.277 -17.349  -7.658  0.00  0.00     0.039 A 
ATOM     15  C   UNL d   1      31.060 -19.751  -6.872  0.00  0.00     0.001 A 
ATOM     16  C   UNL d   1      32.336 -19.747  -7.572  0.00  0.00     0.002 A 
ATOM     17  C   UNL d   1      32.954 -18.617  -7.962  0.00  0.00     0.030 A 
ATOM     18  N   UNL d   1      32.667 -16.162  -7.941  0.00  0.00    -0.381 N 
ATOM     19  H   UNL d   1      33.547 -15.976  -8.415  0.00  0.00     0.160 HD
ATOM     20  C   UNL d   1      32.422 -14.281  -6.442  0.00  0.00     0.037 C 
ENDBRANCH   1   5
BRANCH   2  21
ATOM     21  C   UNL d   1      25.684 -15.829  -1.567  0.00  0.00     0.185 C 
BRANCH  21  22
ATOM     22  S   UNL d   1      23.852 -15.808  -1.649  0.00  0.00    -0.083 SA
BRANCH  22  23
ATOM     23  C   UNL d   1      23.206 -17.222  -0.903  0.00  0.00     0.167 A 
ATOM     24  N   UNL d   1      23.916 -18.299  -0.652  0.00  0.00    -0.235 NA
ATOM     25  C   UNL d   1      23.025 -19.223  -0.169  0.00  0.00     0.149 A 
ATOM     26  C   UNL d   1      21.746 -18.702  -0.116  0.00  0.00     0.062 A 
ATOM     27  N   UNL d   1      21.890 -17.417  -0.596  0.00  0.00    -0.333 N 
ATOM     28  H   UNL d   1      21.150 -16.747  -0.712  0.00  0.00     0.168 HD
BRANCH  26  29
ATOM     29  C   UNL d   1      20.493 -19.326   0.285  0.00  0.00    -0.008 A 
ATOM     30  C   UNL d   1      20.255 -19.618   1.635  0.00  0.00     0.014 A 
ATOM     31  C   UNL d   1      19.164 -20.405   2.009  0.00  0.00     0.001 A 
ATOM     32  C   UNL d   1      18.242 -20.818   1.050  0.00  0.00     0.000 A 
ATOM     33  C   UNL d   1      18.409 -20.434  -0.280  0.00  0.00     0.001 A 
ATOM     34  C   UNL d   1      19.556 -19.736  -0.670  0.00  0.00     0.014 A 
ENDBRANCH  26  29
ENDBRANCH  22  23
ENDBRANCH  21  22
ENDBRANCH   2  21
TORSDOF 5
ENDMDL
MODEL 2
REMARK VINA RESULT:    -9.300      2.301      3.279
REMARK INTER + INTRA:         -12.081
REMARK INTER:                 -10.792
REMARK INTRA:                  -1.290
REMARK CONF_INDEPENDENT:        1.492
REMARK UNBOUND:                -1.290
REMARK  5 active torsions:
REMARK  status: ('A' for Active; 'I' for Inactive)
REMARK    1  A    between atoms: C_14  and  N_15 
REMARK       I    between atoms: N_15  and  C_16 
REMARK    2  A    between atoms: C_16  and  C_18 
REMARK    3  A    between atoms: C_18  and  S_19 
REMARK    4  A    between atoms: S_19  and  C_20 
REMARK    5  A    between atoms: C_23  and  C_24 
ROOT
ATOM      1  N   UNL d   1      25.544 -15.313  -1.848  0.00  0.00    -0.305 N 
ATOM      2  C   UNL d   1      26.615 -15.692  -1.037  0.00  0.00     0.233 C 
ATOM      3  O   UNL d   1      27.773 -15.350  -1.284  0.00  0.00    -0.272 OA
ATOM      4  H   UNL d   1      24.586 -15.577  -1.655  0.00  0.00     0.171 HD
ENDROOT
BRANCH   1   5
ATOM      5  C   UNL d   1      25.796 -14.537  -2.976  0.00  0.00     0.173 A 
ATOM      6  S   UNL d   1      24.449 -13.875  -3.803  0.00  0.00    -0.061 SA
ATOM      7  C   UNL d   1      25.525 -13.133  -4.953  0.00  0.00     0.085 A 
ATOM      8  C   UNL d   1      26.825 -13.470  -4.639  0.00  0.00     0.075 A 
ATOM      9  C   UNL d   1      28.008 -13.144  -5.366  0.00  0.00     0.006 A 
ATOM     10  N   UNL d   1      26.959 -14.247  -3.513  0.00  0.00    -0.223 NA
ATOM     11  C   UNL d   1      28.905 -13.975  -5.924  0.00  0.00     0.001 A 
ATOM     12  C   UNL d   1      28.430 -11.700  -5.540  0.00  0.00     0.114 A 
ATOM     13  C   UNL d   1      29.037 -15.394  -6.051  0.00  0.00     0.014 A 
ATOM     14  C   UNL d   1      29.933 -13.094  -6.514  0.00  0.00     0.039 A 
ATOM     15  C   UNL d   1      30.095 -15.888  -6.716  0.00  0.00     0.001 A 
ATOM     16  C   UNL d   1      31.113 -15.030  -7.303  0.00  0.00     0.002 A 
ATOM     17  C   UNL d   1      31.075 -13.687  -7.225  0.00  0.00     0.030 A 
ATOM     18  N   UNL d   1      29.683 -11.852  -6.326  0.00  0.00    -0.381 N 
ATOM     19  H   UNL d   1      30.300 -11.116  -6.656  0.00  0.00     0.160 HD
ATOM     20  C   UNL d   1      28.795 -10.964  -4.260  0.00  0.00     0.037 C 
ENDBRANCH   1   5
BRANCH   2  21
ATOM     21  C   UNL d   1      26.295 -16.576   0.207  0.00  0.00     0.185 C 
BRANCH  21  22
ATOM     22  S   UNL d   1      25.643 -18.192  -0.364  0.00  0.00    -0.083 SA
BRANCH  22  23
ATOM     23  C   UNL d   1      23.926 -18.125  -0.504  0.00  0.00     0.167 A 
ATOM     24  N   UNL d   1      23.283 -17.137  -1.085  0.00  0.00    -0.235 NA
ATOM     25  C   UNL d   1      21.951 -17.399  -0.891  0.00  0.00     0.149 A 
ATOM     26  C   UNL d   1      21.772 -18.574  -0.184  0.00  0.00     0.062 A 
ATOM     27  N   UNL d   1      23.056 -19.017   0.054  0.00  0.00    -0.333 N 
ATOM     28  H   UNL d   1      23.305 -19.846   0.565  0.00  0.00     0.168 HD
BRANCH  26  29
ATOM     29  C   UNL d   1      20.550 -19.213   0.282  0.00  0.00    -0.008 A 
ATOM     30  C   UNL d   1      20.298 -19.327   1.655  0.00  0.00     0.014 A 
ATOM     31  C   UNL d   1      19.247 -20.120   2.121  0.00  0.00     0.001 A 
ATOM     32  C   UNL d   1      18.375 -20.721   1.216  0.00  0.00     0.000 A 
ATOM     33  C   UNL d   1      18.550 -20.518  -0.152  0.00  0.00     0.001 A 
ATOM     34  C   UNL d   1      19.662 -19.811  -0.620  0.00  0.00     0.014 A 
ENDBRANCH  26  29
ENDBRANCH  22  23
ENDBRANCH  21  22
ENDBRANCH   2  21
TORSDOF 5
ENDMDL
MODEL 3
REMARK VINA RESULT:    -9.273      5.087      8.342
REMARK INTER + INTRA:         -11.371
REMARK INTER:                 -10.764
REMARK INTRA:                  -0.606
REMARK CONF_INDEPENDENT:        1.492
REMARK UNBOUND:                -0.606
REMARK  5 active torsions:
REMARK  status: ('A' for Active; 'I' for Inactive)
REMARK    1  A    between atoms: C_14  and  N_15 
REMARK       I    between atoms: N_15  and  C_16 
REMARK    2  A    between atoms: C_16  and  C_18 
REMARK    3  A    between atoms: C_18  and  S_19 
REMARK    4  A    between atoms: S_19  and  C_20 
REMARK    5  A    between atoms: C_23  and  C_24 
ROOT
ATOM      1  N   UNL d   1      26.736 -13.611  -1.308  0.00  0.00    -0.305 N 
ATOM      2  C   UNL d   1      26.948 -14.969  -1.067  0.00  0.00     0.233 C 
ATOM      3  O   UNL d   1      27.641 -15.364  -0.126  0.00  0.00    -0.272 OA
ATOM      4  H   UNL d   1      26.164 -13.269  -2.070  0.00  0.00     0.171 HD
ENDROOT
BRANCH   1   5
ATOM      5  C   UNL d   1      27.335 -12.676  -0.467  0.00  0.00     0.173 A 
ATOM      6  S   UNL d   1      28.527 -11.647  -1.143  0.00  0.00    -0.061 SA
ATOM      7  C   UNL d   1      28.735 -10.878   0.405  0.00  0.00     0.085 A 
ATOM      8  C   UNL d   1      27.904 -11.482   1.326  0.00  0.00     0.075 A 
ATOM      9  C   UNL d   1      27.817 -11.217   2.724  0.00  0.00     0.006 A 
ATOM     10  N   UNL d   1      27.111 -12.480   0.813  0.00  0.00    -0.223 NA
ATOM     11  C   UNL d   1      28.035 -12.056   3.752  0.00  0.00     0.001 A 
ATOM     12  C   UNL d   1      27.373  -9.859   3.223  0.00  0.00     0.114 A 
ATOM     13  C   UNL d   1      28.440 -13.423   3.882  0.00  0.00     0.014 A 
ATOM     14  C   UNL d   1      27.772 -11.257   4.965  0.00  0.00     0.039 A 
ATOM     15  C   UNL d   1      28.578 -13.940   5.115  0.00  0.00     0.001 A 
ATOM     16  C   UNL d   1      28.321 -13.163   6.318  0.00  0.00     0.002 A 
ATOM     17  C   UNL d   1      27.930 -11.876   6.289  0.00  0.00     0.030 A 
ATOM     18  N   UNL d   1      27.423 -10.055   4.696  0.00  0.00    -0.381 N 
ATOM     19  H   UNL d   1      27.191  -9.379   5.419  0.00  0.00     0.160 HD
ATOM     20  C   UNL d   1      25.946  -9.466   2.875  0.00  0.00     0.037 C 
ENDBRANCH   1   5
BRANCH   2  21
ATOM     21  C   UNL d   1      26.276 -15.984  -2.040  0.00  0.00     0.185 C 
BRANCH  21  22
ATOM     22  S   UNL d   1      24.457 -15.771  -1.960  0.00  0.00    -0.083 SA
BRANCH  22  23
ATOM     23  C   UNL d   1      23.738 -17.096  -1.123  0.00  0.00     0.167 A 
ATOM     24  N   UNL d   1      24.411 -18.151  -0.720  0.00  0.00    -0.235 NA
ATOM     25  C   UNL d   1      23.474 -19.013  -0.209  0.00  0.00     0.149 A 
ATOM     26  C   UNL d   1      22.204 -18.474  -0.292  0.00  0.00     0.062 A 
ATOM     27  N   UNL d   1      22.402 -17.244  -0.886  0.00  0.00    -0.333 N 
ATOM     28  H   UNL d   1      21.683 -16.582  -1.117  0.00  0.00     0.168 HD
BRANCH  26  29
ATOM     29  C   UNL d   1      20.916 -19.041   0.083  0.00  0.00    -0.008 A 
ATOM     30  C   UNL d   1      20.648 -19.341   1.425  0.00  0.00     0.014 A 
ATOM     31  C   UNL d   1      19.513 -20.078   1.774  0.00  0.00     0.001 A 
ATOM     32  C   UNL d   1      18.585 -20.430   0.797  0.00  0.00     0.000 A 
ATOM     33  C   UNL d   1      18.787 -20.035  -0.524  0.00  0.00     0.001 A 
ATOM     34  C   UNL d   1      19.972 -19.388  -0.890  0.00  0.00     0.014 A 
ENDBRANCH  26  29
ENDBRANCH  22  23
ENDBRANCH  21  22
ENDBRANCH   2  21
TORSDOF 5
ENDMDL
MODEL 4
REMARK VINA RESULT:    -9.240      7.182     10.615
REMARK INTER + INTRA:         -11.311
REMARK INTER:                 -10.732
REMARK INTRA:                  -0.580
REMARK CONF_INDEPENDENT:        1.492
REMARK UNBOUND:                -0.580
REMARK  5 active torsions:
REMARK  status: ('A' for Active; 'I' for Inactive)
REMARK    1  A    between atoms: C_14  and  N_15 
REMARK       I    between atoms: N_15  and  C_16 
REMARK    2  A    between atoms: C_16  and  C_18 
REMARK    3  A    between atoms: C_18  and  S_19 
REMARK    4  A    between atoms: S_19  and  C_20 
REMARK    5  A    between atoms: C_23  and  C_24 
ROOT
ATOM      1  N   UNL d   1      25.540 -11.778  -4.056  0.00  0.00    -0.305 N 
ATOM      2  C   UNL d   1      26.082 -10.723  -3.319  0.00  0.00     0.233 C 
ATOM      3  O   UNL d   1      27.014 -10.890  -2.531  0.00  0.00    -0.272 OA
ATOM      4  H   UNL d   1      24.780 -11.658  -4.713  0.00  0.00     0.171 HD
ENDROOT
BRANCH   1   5
ATOM      5  C   UNL d   1      26.062 -13.058  -3.883  0.00  0.00     0.173 A 
ATOM      6  S   UNL d   1      26.899 -13.761  -5.203  0.00  0.00    -0.061 SA
ATOM      7  C   UNL d   1      27.189 -15.190  -4.252  0.00  0.00     0.085 A 
ATOM      8  C   UNL d   1      26.601 -15.037  -3.014  0.00  0.00     0.075 A 
ATOM      9  C   UNL d   1      26.528 -15.997  -1.961  0.00  0.00     0.006 A 
ATOM     10  N   UNL d   1      25.986 -13.824  -2.818  0.00  0.00    -0.223 NA
ATOM     11  C   UNL d   1      25.435 -16.529  -1.387  0.00  0.00     0.001 A 
ATOM     12  C   UNL d   1      27.789 -16.505  -1.295  0.00  0.00     0.114 A 
ATOM     13  C   UNL d   1      24.023 -16.409  -1.580  0.00  0.00     0.014 A 
ATOM     14  C   UNL d   1      25.952 -17.435  -0.342  0.00  0.00     0.039 A 
ATOM     15  C   UNL d   1      23.201 -17.136  -0.804  0.00  0.00     0.001 A 
ATOM     16  C   UNL d   1      23.698 -18.032   0.229  0.00  0.00     0.002 A 
ATOM     17  C   UNL d   1      25.008 -18.201   0.485  0.00  0.00     0.030 A 
ATOM     18  N   UNL d   1      27.231 -17.444  -0.286  0.00  0.00    -0.381 N 
ATOM     19  H   UNL d   1      27.744 -18.003   0.390  0.00  0.00     0.160 HD
ATOM     20  C   UNL d   1      28.594 -15.463  -0.534  0.00  0.00     0.037 C 
ENDBRANCH   1   5
BRANCH   2  21
ATOM     21  C   UNL d   1      25.459  -9.310  -3.526  0.00  0.00     0.185 C 
BRANCH  21  22
ATOM     22  S   UNL d   1      25.095  -9.075  -5.308  0.00  0.00    -0.083 SA
BRANCH  22  23
ATOM     23  C   UNL d   1      23.968  -7.787  -5.521  0.00  0.00     0.167 A 
ATOM     24  N   UNL d   1      23.844  -6.784  -4.681  0.00  0.00    -0.235 NA
ATOM     25  C   UNL d   1      22.781  -6.048  -5.138  0.00  0.00     0.149 A 
ATOM     26  C   UNL d   1      22.246  -6.606  -6.284  0.00  0.00     0.062 A 
ATOM     27  N   UNL d   1      23.025  -7.723  -6.506  0.00  0.00    -0.333 N 
ATOM     28  H   UNL d   1      22.905  -8.382  -7.255  0.00  0.00     0.168 HD
BRANCH  26  29
ATOM     29  C   UNL d   1      21.098  -6.196  -7.081  0.00  0.00    -0.008 A 
ATOM     30  C   UNL d   1      20.042  -5.498  -6.481  0.00  0.00     0.014 A 
ATOM     31  C   UNL d   1      18.847  -5.288  -7.173  0.00  0.00     0.001 A 
ATOM     32  C   UNL d   1      18.736  -5.679  -8.505  0.00  0.00     0.000 A 
ATOM     33  C   UNL d   1      19.823  -6.270  -9.145  0.00  0.00     0.001 A 
ATOM     34  C   UNL d   1      20.982  -6.575  -8.423  0.00  0.00     0.014 A 
ENDBRANCH  26  29
ENDBRANCH  22  23
ENDBRANCH  21  22
ENDBRANCH   2  21
TORSDOF 5
ENDMDL
MODEL 5
REMARK VINA RESULT:    -8.922      3.685      4.913
REMARK INTER + INTRA:         -11.087
REMARK INTER:                 -10.413
REMARK INTRA:                  -0.674
REMARK CONF_INDEPENDENT:        1.492
REMARK UNBOUND:                -0.674
REMARK  5 active torsions:
REMARK  status: ('A' for Active; 'I' for Inactive)
REMARK    1  A    between atoms: C_14  and  N_15 
REMARK       I    between atoms: N_15  and  C_16 
REMARK    2  A    between atoms: C_16  and  C_18 
REMARK    3  A    between atoms: C_18  and  S_19 
REMARK    4  A    between atoms: S_19  and  C_20 
REMARK    5  A    between atoms: C_23  and  C_24 
ROOT
ATOM      1  N   UNL d   1      27.235 -15.198  -1.647  0.00  0.00    -0.305 N 
ATOM      2  C   UNL d   1      26.634 -15.426  -0.408  0.00  0.00     0.233 C 
ATOM      3  O   UNL d   1      25.501 -15.016  -0.147  0.00  0.00    -0.272 OA
ATOM      4  H   UNL d   1      28.160 -15.535  -1.881  0.00  0.00     0.171 HD
ENDROOT
BRANCH   1   5
ATOM      5  C   UNL d   1      26.536 -14.475  -2.611  0.00  0.00     0.173 A 
ATOM      6  S   UNL d   1      24.862 -14.795  -2.787  0.00  0.00    -0.061 SA
ATOM      7  C   UNL d   1      24.771 -13.602  -4.051  0.00  0.00     0.085 A 
ATOM      8  C   UNL d   1      26.026 -13.073  -4.265  0.00  0.00     0.075 A 
ATOM      9  C   UNL d   1      26.414 -12.129  -5.262  0.00  0.00     0.006 A 
ATOM     10  N   UNL d   1      27.004 -13.563  -3.433  0.00  0.00    -0.223 NA
ATOM     11  C   UNL d   1      27.320 -12.272  -6.245  0.00  0.00     0.001 A 
ATOM     12  C   UNL d   1      25.830 -10.732  -5.267  0.00  0.00     0.114 A 
ATOM     13  C   UNL d   1      28.174 -13.328  -6.696  0.00  0.00     0.014 A 
ATOM     14  C   UNL d   1      27.332 -10.975  -6.950  0.00  0.00     0.039 A 
ATOM     15  C   UNL d   1      28.962 -13.109  -7.763  0.00  0.00     0.001 A 
ATOM     16  C   UNL d   1      28.982 -11.835  -8.466  0.00  0.00     0.002 A 
ATOM     17  C   UNL d   1      28.220 -10.787  -8.106  0.00  0.00     0.030 A 
ATOM     18  N   UNL d   1      26.517 -10.130  -6.439  0.00  0.00    -0.381 N 
ATOM     19  H   UNL d   1      26.416  -9.184  -6.797  0.00  0.00     0.160 HD
ATOM     20  C   UNL d   1      26.173  -9.873  -4.060  0.00  0.00     0.037 C 
ENDBRANCH   1   5
BRANCH   2  21
ATOM     21  C   UNL d   1      27.454 -16.224   0.651  0.00  0.00     0.185 C 
BRANCH  21  22
ATOM     22  S   UNL d   1      26.901 -17.972   0.639  0.00  0.00    -0.083 SA
BRANCH  22  23
ATOM     23  C   UNL d   1      25.367 -18.106  -0.138  0.00  0.00     0.167 A 
ATOM     24  N   UNL d   1      25.131 -17.677  -1.357  0.00  0.00    -0.235 NA
ATOM     25  C   UNL d   1      23.787 -17.861  -1.559  0.00  0.00     0.149 A 
ATOM     26  C   UNL d   1      23.189 -18.421  -0.446  0.00  0.00     0.062 A 
ATOM     27  N   UNL d   1      24.225 -18.565   0.453  0.00  0.00    -0.333 N 
ATOM     28  H   UNL d   1      24.147 -18.930   1.386  0.00  0.00     0.168 HD
BRANCH  26  29
ATOM     29  C   UNL d   1      21.792 -18.750  -0.195  0.00  0.00    -0.008 A 
ATOM     30  C   UNL d   1      21.344 -18.951   1.117  0.00  0.00     0.014 A 
ATOM     31  C   UNL d   1      20.072 -19.473   1.360  0.00  0.00     0.001 A 
ATOM     32  C   UNL d   1      19.198 -19.700   0.300  0.00  0.00     0.000 A 
ATOM     33  C   UNL d   1      19.595 -19.394  -1.001  0.00  0.00     0.001 A 
ATOM     34  C   UNL d   1      20.904 -18.969  -1.254  0.00  0.00     0.014 A 
ENDBRANCH  26  29
ENDBRANCH  22  23
ENDBRANCH  21  22
ENDBRANCH   2  21
TORSDOF 5
ENDMDL
MODEL 6
REMARK VINA RESULT:    -8.293      5.023      8.903
REMARK INTER + INTRA:         -11.399
REMARK INTER:                  -9.785
REMARK INTRA:                  -1.615
REMARK CONF_INDEPENDENT:        1.492
REMARK UNBOUND:                -1.615
REMARK  5 active torsions:
REMARK  status: ('A' for Active; 'I' for Inactive)
REMARK    1  A    between atoms: C_14  and  N_15 
REMARK       I    between atoms: N_15  and  C_16 
REMARK    2  A    between atoms: C_16  and  C_18 
REMARK    3  A    between atoms: C_18  and  S_19 
REMARK    4  A    between atoms: S_19  and  C_20 
REMARK    5  A    between atoms: C_23  and  C_24 
ROOT
ATOM      1  N   UNL d   1      25.543 -11.313  -3.385  0.00  0.00    -0.305 N 
ATOM      2  C   UNL d   1      26.279 -10.365  -2.672  0.00  0.00     0.233 C 
ATOM      3  O   UNL d   1      27.310 -10.663  -2.064  0.00  0.00    -0.272 OA
ATOM      4  H   UNL d   1      24.700 -11.085  -3.897  0.00  0.00     0.171 HD
ENDROOT
BRANCH   1   5
ATOM      5  C   UNL d   1      25.981 -12.636  -3.398  0.00  0.00     0.173 A 
ATOM      6  S   UNL d   1      26.700 -13.222  -4.839  0.00  0.00    -0.061 SA
ATOM      7  C   UNL d   1      26.935 -14.773  -4.085  0.00  0.00     0.085 A 
ATOM      8  C   UNL d   1      26.422 -14.738  -2.806  0.00  0.00     0.075 A 
ATOM      9  C   UNL d   1      26.333 -15.813  -1.874  0.00  0.00     0.006 A 
ATOM     10  N   UNL d   1      25.905 -13.521  -2.430  0.00  0.00    -0.223 NA
ATOM     11  C   UNL d   1      25.235 -16.342  -1.305  0.00  0.00     0.001 A 
ATOM     12  C   UNL d   1      27.586 -16.480  -1.347  0.00  0.00     0.114 A 
ATOM     13  C   UNL d   1      23.827 -16.108  -1.400  0.00  0.00     0.014 A 
ATOM     14  C   UNL d   1      25.738 -17.401  -0.408  0.00  0.00     0.039 A 
ATOM     15  C   UNL d   1      22.995 -16.872  -0.671  0.00  0.00     0.001 A 
ATOM     16  C   UNL d   1      23.478 -17.919   0.217  0.00  0.00     0.002 A 
ATOM     17  C   UNL d   1      24.784 -18.201   0.374  0.00  0.00     0.030 A 
ATOM     18  N   UNL d   1      27.014 -17.499  -0.428  0.00  0.00    -0.381 N 
ATOM     19  H   UNL d   1      27.520 -18.169   0.145  0.00  0.00     0.160 HD
ATOM     20  C   UNL d   1      28.500 -15.594  -0.515  0.00  0.00     0.037 C 
ENDBRANCH   1   5
BRANCH   2  21
ATOM     21  C   UNL d   1      25.747  -8.900  -2.666  0.00  0.00     0.185 C 
BRANCH  21  22
ATOM     22  S   UNL d   1      26.555  -7.980  -1.301  0.00  0.00    -0.083 SA
BRANCH  22  23
ATOM     23  C   UNL d   1      26.329  -8.811   0.193  0.00  0.00     0.167 A 
ATOM     24  N   UNL d   1      25.530  -8.388   1.146  0.00  0.00    -0.235 NA
ATOM     25  C   UNL d   1      25.717  -9.251   2.195  0.00  0.00     0.149 A 
ATOM     26  C   UNL d   1      26.642 -10.227   1.877  0.00  0.00     0.062 A 
ATOM     27  N   UNL d   1      27.022  -9.919   0.587  0.00  0.00    -0.333 N 
ATOM     28  H   UNL d   1      27.703 -10.418   0.041  0.00  0.00     0.168 HD
BRANCH  26  29
ATOM     29  C   UNL d   1      27.177 -11.314   2.686  0.00  0.00    -0.008 A 
ATOM     30  C   UNL d   1      27.034 -12.641   2.260  0.00  0.00     0.014 A 
ATOM     31  C   UNL d   1      27.345 -13.699   3.117  0.00  0.00     0.001 A 
ATOM     32  C   UNL d   1      27.901 -13.441   4.368  0.00  0.00     0.000 A 
ATOM     33  C   UNL d   1      28.154 -12.126   4.754  0.00  0.00     0.001 A 
ATOM     34  C   UNL d   1      27.747 -11.064   3.939  0.00  0.00     0.014 A 
ENDBRANCH  26  29
ENDBRANCH  22  23
ENDBRANCH  21  22
ENDBRANCH   2  21
TORSDOF 5
ENDMDL
MODEL 7
REMARK VINA RESULT:    -8.134      6.629      9.901
REMARK INTER + INTRA:         -11.036
REMARK INTER:                  -9.626
REMARK INTRA:                  -1.411
REMARK CONF_INDEPENDENT:        1.492
REMARK UNBOUND:                -1.411
REMARK  5 active torsions:
REMARK  status: ('A' for Active; 'I' for Inactive)
REMARK    1  A    between atoms: C_14  and  N_15 
REMARK       I    between atoms: N_15  and  C_16 
REMARK    2  A    between atoms: C_16  and  C_18 
REMARK    3  A    between atoms: C_18  and  S_19 
REMARK    4  A    between atoms: S_19  and  C_20 
REMARK    5  A    between atoms: C_23  and  C_24 
ROOT
ATOM      1  N   UNL d   1      30.409 -18.026  -0.813  0.00  0.00    -0.305 N 
ATOM      2  C   UNL d   1      30.897 -18.346  -2.081  0.00  0.00     0.233 C 
ATOM      3  O   UNL d   1      30.470 -17.799  -3.100  0.00  0.00    -0.272 OA
ATOM      4  H   UNL d   1      30.753 -18.458   0.035  0.00  0.00     0.171 HD
ENDROOT
BRANCH   1   5
ATOM      5  C   UNL d   1      29.401 -17.070  -0.700  0.00  0.00     0.173 A 
ATOM      6  S   UNL d   1      29.810 -15.563   0.006  0.00  0.00    -0.061 SA
ATOM      7  C   UNL d   1      28.170 -15.021  -0.214  0.00  0.00     0.085 A 
ATOM      8  C   UNL d   1      27.429 -16.037  -0.780  0.00  0.00     0.075 A 
ATOM      9  C   UNL d   1      26.030 -16.045  -1.053  0.00  0.00     0.006 A 
ATOM     10  N   UNL d   1      28.143 -17.177  -1.063  0.00  0.00    -0.223 NA
ATOM     11  C   UNL d   1      25.087 -16.875  -0.575  0.00  0.00     0.001 A 
ATOM     12  C   UNL d   1      25.434 -15.066  -2.043  0.00  0.00     0.114 A 
ATOM     13  C   UNL d   1      25.067 -17.972   0.344  0.00  0.00     0.014 A 
ATOM     14  C   UNL d   1      23.829 -16.441  -1.216  0.00  0.00     0.039 A 
ATOM     15  C   UNL d   1      23.894 -18.574   0.605  0.00  0.00     0.001 A 
ATOM     16  C   UNL d   1      22.649 -18.155  -0.020  0.00  0.00     0.002 A 
ATOM     17  C   UNL d   1      22.576 -17.140  -0.900  0.00  0.00     0.030 A 
ATOM     18  N   UNL d   1      23.998 -15.449  -2.008  0.00  0.00    -0.381 N 
ATOM     19  H   UNL d   1      23.235 -15.039  -2.540  0.00  0.00     0.160 HD
ATOM     20  C   UNL d   1      25.901 -15.223  -3.482  0.00  0.00     0.037 C 
ENDBRANCH   1   5
BRANCH   2  21
ATOM     21  C   UNL d   1      32.010 -19.433  -2.168  0.00  0.00     0.185 C 
BRANCH  21  22
ATOM     22  S   UNL d   1      31.590 -20.807  -1.029  0.00  0.00    -0.083 SA
BRANCH  22  23
ATOM     23  C   UNL d   1      31.969 -20.371   0.596  0.00  0.00     0.167 A 
ATOM     24  N   UNL d   1      32.583 -19.257   0.924  0.00  0.00    -0.235 NA
ATOM     25  C   UNL d   1      32.795 -19.337   2.276  0.00  0.00     0.149 A 
ATOM     26  C   UNL d   1      32.295 -20.519   2.789  0.00  0.00     0.062 A 
ATOM     27  N   UNL d   1      31.773 -21.166   1.688  0.00  0.00    -0.333 N 
ATOM     28  H   UNL d   1      31.338 -22.072   1.691  0.00  0.00     0.168 HD
BRANCH  26  29
ATOM     29  C   UNL d   1      32.332 -21.044   4.147  0.00  0.00    -0.008 A 
ATOM     30  C   UNL d   1      31.137 -21.282   4.839  0.00  0.00     0.014 A 
ATOM     31  C   UNL d   1      31.155 -21.577   6.204  0.00  0.00     0.001 A 
ATOM     32  C   UNL d   1      32.370 -21.742   6.865  0.00  0.00     0.000 A 
ATOM     33  C   UNL d   1      33.564 -21.621   6.157  0.00  0.00     0.001 A 
ATOM     34  C   UNL d   1      33.548 -21.223   4.816  0.00  0.00     0.014 A 
ENDBRANCH  26  29
ENDBRANCH  22  23
ENDBRANCH  21  22
ENDBRANCH   2  21
TORSDOF 5
ENDMDL
MODEL 8
REMARK VINA RESULT:    -7.454      3.599      9.779
REMARK INTER + INTRA:         -10.885
REMARK INTER:                  -8.945
REMARK INTRA:                  -1.940
REMARK CONF_INDEPENDENT:        1.492
REMARK UNBOUND:                -1.940
REMARK  5 active torsions:
REMARK  status: ('A' for Active; 'I' for Inactive)
REMARK    1  A    between atoms: C_14  and  N_15 
REMARK       I    between atoms: N_15  and  C_16 
REMARK    2  A    between atoms: C_16  and  C_18 
REMARK    3  A    between atoms: C_18  and  S_19 
REMARK    4  A    between atoms: S_19  and  C_20 
REMARK    5  A    between atoms: C_23  and  C_24 
ROOT
ATOM      1  N   UNL d   1      25.265 -12.012  -3.724  0.00  0.00    -0.305 N 
ATOM      2  C   UNL d   1      26.076 -11.035  -3.145  0.00  0.00     0.233 C 
ATOM      3  O   UNL d   1      27.125 -11.320  -2.563  0.00  0.00    -0.272 OA
ATOM      4  H   UNL d   1      24.405 -11.796  -4.213  0.00  0.00     0.171 HD
ENDROOT
BRANCH   1   5
ATOM      5  C   UNL d   1      25.647 -13.348  -3.628  0.00  0.00     0.173 A 
ATOM      6  S   UNL d   1      26.326 -14.083  -5.020  0.00  0.00    -0.061 SA
ATOM      7  C   UNL d   1      26.504 -15.575  -4.140  0.00  0.00     0.085 A 
ATOM      8  C   UNL d   1      26.006 -15.411  -2.865  0.00  0.00     0.075 A 
ATOM      9  C   UNL d   1      25.882 -16.400  -1.845  0.00  0.00     0.006 A 
ATOM     10  N   UNL d   1      25.544 -14.146  -2.589  0.00  0.00    -0.223 NA
ATOM     11  C   UNL d   1      24.769 -16.832  -1.227  0.00  0.00     0.001 A 
ATOM     12  C   UNL d   1      27.112 -17.072  -1.273  0.00  0.00     0.114 A 
ATOM     13  C   UNL d   1      23.371 -16.548  -1.332  0.00  0.00     0.014 A 
ATOM     14  C   UNL d   1      25.236 -17.833  -0.247  0.00  0.00     0.039 A 
ATOM     15  C   UNL d   1      22.515 -17.211  -0.535  0.00  0.00     0.001 A 
ATOM     16  C   UNL d   1      22.964 -18.200   0.434  0.00  0.00     0.002 A 
ATOM     17  C   UNL d   1      24.258 -18.523   0.606  0.00  0.00     0.030 A 
ATOM     18  N   UNL d   1      26.507 -17.986  -0.268  0.00  0.00    -0.381 N 
ATOM     19  H   UNL d   1      26.990 -18.626   0.357  0.00  0.00     0.160 HD
ATOM     20  C   UNL d   1      28.070 -16.159  -0.524  0.00  0.00     0.037 C 
ENDBRANCH   1   5
BRANCH   2  21
ATOM     21  C   UNL d   1      25.605  -9.554  -3.256  0.00  0.00     0.185 C 
BRANCH  21  22
ATOM     22  S   UNL d   1      25.429  -9.117  -5.029  0.00  0.00    -0.083 SA
BRANCH  22  23
ATOM     23  C   UNL d   1      26.386 -10.173  -6.000  0.00  0.00     0.167 A 
ATOM     24  N   UNL d   1      26.148 -10.406  -7.271  0.00  0.00    -0.235 NA
ATOM     25  C   UNL d   1      27.048 -11.371  -7.645  0.00  0.00     0.149 A 
ATOM     26  C   UNL d   1      27.858 -11.732  -6.585  0.00  0.00     0.062 A 
ATOM     27  N   UNL d   1      27.410 -10.950  -5.541  0.00  0.00    -0.333 N 
ATOM     28  H   UNL d   1      27.767 -10.965  -4.601  0.00  0.00     0.168 HD
BRANCH  26  29
ATOM     29  C   UNL d   1      28.912 -12.735  -6.507  0.00  0.00    -0.008 A 
ATOM     30  C   UNL d   1      28.746 -13.976  -7.137  0.00  0.00     0.014 A 
ATOM     31  C   UNL d   1      29.643 -15.019  -6.895  0.00  0.00     0.001 A 
ATOM     32  C   UNL d   1      30.770 -14.799  -6.107  0.00  0.00     0.000 A 
ATOM     33  C   UNL d   1      31.003 -13.534  -5.572  0.00  0.00     0.001 A 
ATOM     34  C   UNL d   1      30.053 -12.520  -5.727  0.00  0.00     0.014 A 
ENDBRANCH  26  29
ENDBRANCH  22  23
ENDBRANCH  21  22
ENDBRANCH   2  21
TORSDOF 5
ENDMDL
MODEL 9
REMARK VINA RESULT:    -7.341      5.393      8.075
REMARK INTER + INTRA:         -11.161
REMARK INTER:                  -8.833
REMARK INTRA:                  -2.328
REMARK CONF_INDEPENDENT:        1.492
REMARK UNBOUND:                -2.328
REMARK  5 active torsions:
REMARK  status: ('A' for Active; 'I' for Inactive)
REMARK    1  A    between atoms: C_14  and  N_15 
REMARK       I    between atoms: N_15  and  C_16 
REMARK    2  A    between atoms: C_16  and  C_18 
REMARK    3  A    between atoms: C_18  and  S_19 
REMARK    4  A    between atoms: S_19  and  C_20 
REMARK    5  A    between atoms: C_23  and  C_24 
ROOT
ATOM      1  N   UNL d   1      28.342 -12.712  -2.544  0.00  0.00    -0.305 N 
ATOM      2  C   UNL d   1      27.331 -11.860  -2.096  0.00  0.00     0.233 C 
ATOM      3  O   UNL d   1      26.953 -11.857  -0.923  0.00  0.00    -0.272 OA
ATOM      4  H   UNL d   1      28.671 -12.722  -3.501  0.00  0.00     0.171 HD
ENDROOT
BRANCH   1   5
ATOM      5  C   UNL d   1      28.930 -13.592  -1.638  0.00  0.00     0.173 A 
ATOM      6  S   UNL d   1      29.378 -15.143  -2.213  0.00  0.00    -0.061 SA
ATOM      7  C   UNL d   1      29.969 -15.556  -0.629  0.00  0.00     0.085 A 
ATOM      8  C   UNL d   1      29.753 -14.494   0.225  0.00  0.00     0.075 A 
ATOM      9  C   UNL d   1      30.011 -14.438   1.627  0.00  0.00     0.006 A 
ATOM     10  N   UNL d   1      29.184 -13.391  -0.365  0.00  0.00    -0.223 NA
ATOM     11  C   UNL d   1      29.143 -14.225   2.631  0.00  0.00     0.001 A 
ATOM     12  C   UNL d   1      31.424 -14.569   2.154  0.00  0.00     0.114 A 
ATOM     13  C   UNL d   1      27.731 -14.016   2.729  0.00  0.00     0.014 A 
ATOM     14  C   UNL d   1      29.963 -14.243   3.859  0.00  0.00     0.039 A 
ATOM     15  C   UNL d   1      27.186 -13.850   3.946  0.00  0.00     0.001 A 
ATOM     16  C   UNL d   1      27.983 -13.866   5.163  0.00  0.00     0.002 A 
ATOM     17  C   UNL d   1      29.316 -14.047   5.164  0.00  0.00     0.030 A 
ATOM     18  N   UNL d   1      31.205 -14.442   3.619  0.00  0.00    -0.381 N 
ATOM     19  H   UNL d   1      31.905 -14.467   4.355  0.00  0.00     0.160 HD
ATOM     20  C   UNL d   1      32.381 -13.459   1.750  0.00  0.00     0.037 C 
ENDBRANCH   1   5
BRANCH   2  21
ATOM     21  C   UNL d   1      26.685 -10.902  -3.143  0.00  0.00     0.185 C 
BRANCH  21  22
ATOM     22  S   UNL d   1      25.651 -11.888  -4.292  0.00  0.00    -0.083 SA
BRANCH  22  23
ATOM     23  C   UNL d   1      25.673 -13.551  -3.836  0.00  0.00     0.167 A 
ATOM     24  N   UNL d   1      25.594 -14.541  -4.696  0.00  0.00    -0.235 NA
ATOM     25  C   UNL d   1      25.530 -15.683  -3.940  0.00  0.00     0.149 A 
ATOM     26  C   UNL d   1      25.578 -15.389  -2.590  0.00  0.00     0.062 A 
ATOM     27  N   UNL d   1      25.666 -14.013  -2.551  0.00  0.00    -0.333 N 
ATOM     28  H   UNL d   1      25.704 -13.451  -1.719  0.00  0.00     0.168 HD
BRANCH  26  29
ATOM     29  C   UNL d   1      25.498 -16.270  -1.433  0.00  0.00    -0.008 A 
ATOM     30  C   UNL d   1      26.611 -16.431  -0.596  0.00  0.00     0.014 A 
ATOM     31  C   UNL d   1      26.624 -17.427   0.383  0.00  0.00     0.001 A 
ATOM     32  C   UNL d   1      25.487 -18.200   0.605  0.00  0.00     0.000 A 
ATOM     33  C   UNL d   1      24.336 -17.968  -0.146  0.00  0.00     0.001 A 
ATOM     34  C   UNL d   1      24.356 -17.044  -1.195  0.00  0.00     0.014 A 
ENDBRANCH  26  29
ENDBRANCH  22  23
ENDBRANCH  21  22
ENDBRANCH   2  21
TORSDOF 5
ENDMDL
