MODEL 1
REMARK VINA RESULT:    -8.521      0.000      0.000
REMARK INTER + INTRA:         -12.323
REMARK INTER:                 -11.205
REMARK INTRA:                  -1.118
REMARK CONF_INDEPENDENT:        2.685
REMARK UNBOUND:                -1.118
REMARK  9 active torsions:
REMARK  status: ('A' for Active; 'I' for Inactive)
REMARK    1  A    between atoms: C_2  and  O_3 
REMARK    2  A    between atoms: O_3  and  C_4 
REMARK    3  A    between atoms: C_7  and  C_8 
REMARK    4  A    between atoms: C_11  and  C_12 
REMARK       I    between atoms: C_12  and  N_14 
REMARK    5  A    between atoms: N_14  and  N_15 
REMARK    6  A    between atoms: C_16  and  C_17 
REMARK    7  A    between atoms: C_19  and  O_20 
REMARK    8  A    between atoms: C_22  and  O_23 
REMARK    9  A    between atoms: C_26  and  O_27 
ROOT
ATOM      1  C   UNL d   1      27.649 -13.934   2.547  0.00  0.00     0.290 C 
ATOM      2  O   UNL d   1      27.265 -12.863   2.101  0.00  0.00    -0.264 OA
ATOM      3  N   UNL d   1      27.783 -15.107   1.764  0.00  0.00    -0.242 N 
ATOM      4  H   UNL d   1      28.515 -15.746   2.006  0.00  0.00     0.192 HD
ENDROOT
BRANCH   1   5
ATOM      5  C   UNL d   1      28.008 -14.060   3.962  0.00  0.00     0.127 A 
ATOM      6  N   UNL d   1      28.386 -15.272   4.511  0.00  0.00    -0.272 N 
ATOM      7  N   UNL d   1      28.801 -15.202   5.791  0.00  0.00    -0.173 NA
ATOM      8  H   UNL d   1      28.421 -16.179   4.051  0.00  0.00     0.189 HD
ATOM      9  C   UNL d   1      28.644 -13.916   6.122  0.00  0.00     0.095 A 
ATOM     10  C   UNL d   1      28.140 -13.161   5.012  0.00  0.00     0.003 A 
ATOM     11  C   UNL d   1      27.907 -11.703   5.069  0.00  0.00     0.053 C 
BRANCH   9  12
ATOM     12  C   UNL d   1      28.949 -13.404   7.463  0.00  0.00    -0.005 A 
ATOM     13  C   UNL d   1      28.161 -12.417   8.064  0.00  0.00     0.016 A 
ATOM     14  C   UNL d   1      28.504 -11.913   9.330  0.00  0.00     0.037 A 
ATOM     15  C   UNL d   1      29.591 -12.434  10.038  0.00  0.00     0.068 A 
ATOM     16  C   UNL d   1      30.342 -13.458   9.467  0.00  0.00     0.037 A 
ATOM     17  C   UNL d   1      30.030 -13.929   8.186  0.00  0.00     0.016 A 
BRANCH  15  18
ATOM     18  O   UNL d   1      29.777 -11.958  11.309  0.00  0.00    -0.352 OA
BRANCH  18  19
ATOM     19  C   UNL d   1      28.708 -12.200  12.230  0.00  0.00     0.171 C 
ATOM     20  C   UNL d   1      28.249 -13.640  12.073  0.00  0.00     0.034 C 
ENDBRANCH  18  19
ENDBRANCH  15  18
ENDBRANCH   9  12
ENDBRANCH   1   5
BRANCH   3  21
ATOM     21  N   UNL d   1      27.363 -15.155   0.448  0.00  0.00    -0.183 NA
ATOM     22  C   UNL d   1      27.968 -15.970  -0.367  0.00  0.00     0.153 C 
BRANCH  22  23
ATOM     23  C   UNL d   1      27.886 -15.769  -1.853  0.00  0.00     0.019 C 
ATOM     24  C   UNL d   1      26.659 -15.341  -2.403  0.00  0.00     0.055 C 
ATOM     25  C   UNL d   1      26.478 -15.240  -3.806  0.00  0.00     0.102 C 
ATOM     26  C   UNL d   1      27.569 -15.463  -4.662  0.00  0.00     0.104 C 
ATOM     27  C   UNL d   1      28.760 -15.934  -4.118  0.00  0.00     0.077 C 
ATOM     28  C   UNL d   1      28.932 -16.117  -2.733  0.00  0.00     0.082 C 
BRANCH  25  29
ATOM     29  O   UNL d   1      25.191 -14.940  -4.205  0.00  0.00    -0.353 OA
ATOM     30  C   UNL d   1      24.828 -13.554  -4.262  0.00  0.00     0.210 C 
ENDBRANCH  25  29
BRANCH  26  31
ATOM     31  O   UNL d   1      27.409 -15.193  -5.990  0.00  0.00    -0.353 OA
ATOM     32  C   UNL d   1      28.325 -14.356  -6.671  0.00  0.00     0.210 C 
ENDBRANCH  26  31
BRANCH  28  33
ATOM     33  O   UNL d   1      30.158 -16.693  -2.494  0.00  0.00    -0.355 OA
ATOM     34  C   UNL d   1      30.216 -17.804  -1.626  0.00  0.00     0.210 C 
ENDBRANCH  28  33
ENDBRANCH  22  23
ENDBRANCH   3  21
TORSDOF 9
ENDMDL
MODEL 2
REMARK VINA RESULT:    -7.738      0.757      2.308
REMARK INTER + INTRA:         -11.587
REMARK INTER:                 -10.423
REMARK INTRA:                  -1.164
REMARK CONF_INDEPENDENT:        2.685
REMARK UNBOUND:                -1.164
REMARK  9 active torsions:
REMARK  status: ('A' for Active; 'I' for Inactive)
REMARK    1  A    between atoms: C_2  and  O_3 
REMARK    2  A    between atoms: O_3  and  C_4 
REMARK    3  A    between atoms: C_7  and  C_8 
REMARK    4  A    between atoms: C_11  and  C_12 
REMARK       I    between atoms: C_12  and  N_14 
REMARK    5  A    between atoms: N_14  and  N_15 
REMARK    6  A    between atoms: C_16  and  C_17 
REMARK    7  A    between atoms: C_19  and  O_20 
REMARK    8  A    between atoms: C_22  and  O_23 
REMARK    9  A    between atoms: C_26  and  O_27 
ROOT
ATOM      1  C   UNL d   1      27.590 -13.830   2.503  0.00  0.00     0.290 C 
ATOM      2  O   UNL d   1      27.170 -12.762   2.086  0.00  0.00    -0.264 OA
ATOM      3  N   UNL d   1      27.794 -14.967   1.681  0.00  0.00    -0.242 N 
ATOM      4  H   UNL d   1      28.548 -15.582   1.918  0.00  0.00     0.192 HD
ENDROOT
BRANCH   1   5
ATOM      5  C   UNL d   1      27.922 -13.992   3.921  0.00  0.00     0.127 A 
ATOM      6  N   UNL d   1      28.218 -15.231   4.460  0.00  0.00    -0.272 N 
ATOM      7  N   UNL d   1      28.620 -15.200   5.747  0.00  0.00    -0.173 NA
ATOM      8  H   UNL d   1      28.203 -16.134   3.991  0.00  0.00     0.189 HD
ATOM      9  C   UNL d   1      28.537 -13.911   6.090  0.00  0.00     0.095 A 
ATOM     10  C   UNL d   1      28.095 -13.114   4.982  0.00  0.00     0.003 A 
ATOM     11  C   UNL d   1      27.951 -11.645   5.052  0.00  0.00     0.053 C 
BRANCH   9  12
ATOM     12  C   UNL d   1      28.855 -13.432   7.440  0.00  0.00    -0.005 A 
ATOM     13  C   UNL d   1      28.155 -12.370   8.022  0.00  0.00     0.016 A 
ATOM     14  C   UNL d   1      28.512 -11.903   9.298  0.00  0.00     0.037 A 
ATOM     15  C   UNL d   1      29.521 -12.532  10.035  0.00  0.00     0.068 A 
ATOM     16  C   UNL d   1      30.180 -13.626   9.482  0.00  0.00     0.037 A 
ATOM     17  C   UNL d   1      29.856 -14.064   8.191  0.00  0.00     0.016 A 
BRANCH  15  18
ATOM     18  O   UNL d   1      29.718 -12.077  11.312  0.00  0.00    -0.352 OA
BRANCH  18  19
ATOM     19  C   UNL d   1      28.644 -12.305  12.230  0.00  0.00     0.171 C 
ATOM     20  C   UNL d   1      28.183 -13.747  12.089  0.00  0.00     0.034 C 
ENDBRANCH  18  19
ENDBRANCH  15  18
ENDBRANCH   9  12
ENDBRANCH   1   5
BRANCH   3  21
ATOM     21  N   UNL d   1      27.407 -14.984   0.355  0.00  0.00    -0.183 NA
ATOM     22  C   UNL d   1      27.820 -15.962  -0.399  0.00  0.00     0.153 C 
BRANCH  22  23
ATOM     23  C   UNL d   1      27.824 -15.827  -1.895  0.00  0.00     0.019 C 
ATOM     24  C   UNL d   1      28.997 -16.184  -2.595  0.00  0.00     0.055 C 
ATOM     25  C   UNL d   1      29.110 -15.976  -3.993  0.00  0.00     0.102 C 
ATOM     26  C   UNL d   1      27.999 -15.510  -4.715  0.00  0.00     0.104 C 
ATOM     27  C   UNL d   1      26.865 -15.112  -4.013  0.00  0.00     0.077 C 
ATOM     28  C   UNL d   1      26.765 -15.236  -2.615  0.00  0.00     0.082 C 
BRANCH  25  29
ATOM     29  O   UNL d   1      30.357 -16.245  -4.521  0.00  0.00    -0.353 OA
ATOM     30  C   UNL d   1      30.418 -17.150  -5.631  0.00  0.00     0.210 C 
ENDBRANCH  25  29
BRANCH  26  31
ATOM     31  O   UNL d   1      28.084 -15.482  -6.077  0.00  0.00    -0.353 OA
ATOM     32  C   UNL d   1      28.432 -14.289  -6.753  0.00  0.00     0.210 C 
ENDBRANCH  26  31
BRANCH  28  33
ATOM     33  O   UNL d   1      25.590 -14.666  -2.185  0.00  0.00    -0.355 OA
ATOM     34  C   UNL d   1      24.743 -14.075  -3.145  0.00  0.00     0.210 C 
ENDBRANCH  28  33
ENDBRANCH  22  23
ENDBRANCH   3  21
TORSDOF 9
ENDMDL
MODEL 3
REMARK VINA RESULT:    -7.233      5.505     10.039
REMARK INTER + INTRA:         -11.006
REMARK INTER:                  -9.917
REMARK INTRA:                  -1.088
REMARK CONF_INDEPENDENT:        2.685
REMARK UNBOUND:                -1.088
REMARK  9 active torsions:
REMARK  status: ('A' for Active; 'I' for Inactive)
REMARK    1  A    between atoms: C_2  and  O_3 
REMARK    2  A    between atoms: O_3  and  C_4 
REMARK    3  A    between atoms: C_7  and  C_8 
REMARK    4  A    between atoms: C_11  and  C_12 
REMARK       I    between atoms: C_12  and  N_14 
REMARK    5  A    between atoms: N_14  and  N_15 
REMARK    6  A    between atoms: C_16  and  C_17 
REMARK    7  A    between atoms: C_19  and  O_20 
REMARK    8  A    between atoms: C_22  and  O_23 
REMARK    9  A    between atoms: C_26  and  O_27 
ROOT
ATOM      1  C   UNL d   1      29.232 -15.742  -0.127  0.00  0.00     0.290 C 
ATOM      2  O   UNL d   1      29.282 -14.646  -0.662  0.00  0.00    -0.264 OA
ATOM      3  N   UNL d   1      30.319 -16.324   0.572  0.00  0.00    -0.242 N 
ATOM      4  H   UNL d   1      30.107 -16.910   1.355  0.00  0.00     0.192 HD
ENDROOT
BRANCH   1   5
ATOM      5  C   UNL d   1      28.001 -16.535  -0.177  0.00  0.00     0.127 A 
ATOM      6  N   UNL d   1      27.971 -17.856   0.230  0.00  0.00    -0.272 N 
ATOM      7  N   UNL d   1      26.742 -18.412   0.238  0.00  0.00    -0.173 NA
ATOM      8  H   UNL d   1      28.750 -18.426   0.553  0.00  0.00     0.189 HD
ATOM      9  C   UNL d   1      25.939 -17.450  -0.229  0.00  0.00     0.095 A 
ATOM     10  C   UNL d   1      26.682 -16.256  -0.512  0.00  0.00     0.003 A 
ATOM     11  C   UNL d   1      26.054 -15.012  -1.002  0.00  0.00     0.053 C 
BRANCH   9  12
ATOM     12  C   UNL d   1      24.498 -17.649  -0.420  0.00  0.00    -0.005 A 
ATOM     13  C   UNL d   1      23.624 -16.567  -0.567  0.00  0.00     0.016 A 
ATOM     14  C   UNL d   1      22.243 -16.787  -0.702  0.00  0.00     0.037 A 
ATOM     15  C   UNL d   1      21.727 -18.085  -0.761  0.00  0.00     0.068 A 
ATOM     16  C   UNL d   1      22.601 -19.165  -0.674  0.00  0.00     0.037 A 
ATOM     17  C   UNL d   1      23.973 -18.947  -0.493  0.00  0.00     0.016 A 
BRANCH  15  18
ATOM     18  O   UNL d   1      20.384 -18.198  -1.008  0.00  0.00    -0.352 OA
BRANCH  18  19
ATOM     19  C   UNL d   1      19.836 -19.515  -0.894  0.00  0.00     0.171 C 
ATOM     20  C   UNL d   1      19.422 -19.745   0.550  0.00  0.00     0.034 C 
ENDBRANCH  18  19
ENDBRANCH  15  18
ENDBRANCH   9  12
ENDBRANCH   1   5
BRANCH   3  21
ATOM     21  N   UNL d   1      31.571 -15.738   0.589  0.00  0.00    -0.183 NA
ATOM     22  C   UNL d   1      32.342 -15.951   1.616  0.00  0.00     0.153 C 
BRANCH  22  23
ATOM     23  C   UNL d   1      33.488 -15.029   1.918  0.00  0.00     0.019 C 
ATOM     24  C   UNL d   1      33.236 -13.887   2.710  0.00  0.00     0.055 C 
ATOM     25  C   UNL d   1      34.244 -12.917   2.940  0.00  0.00     0.102 C 
ATOM     26  C   UNL d   1      35.546 -13.145   2.467  0.00  0.00     0.104 C 
ATOM     27  C   UNL d   1      35.775 -14.245   1.645  0.00  0.00     0.077 C 
ATOM     28  C   UNL d   1      34.765 -15.177   1.340  0.00  0.00     0.082 C 
BRANCH  25  29
ATOM     29  O   UNL d   1      33.821 -11.791   3.618  0.00  0.00    -0.353 OA
ATOM     30  C   UNL d   1      32.433 -11.719   3.970  0.00  0.00     0.210 C 
ENDBRANCH  25  29
BRANCH  26  31
ATOM     31  O   UNL d   1      36.530 -12.280   2.849  0.00  0.00    -0.353 OA
ATOM     32  C   UNL d   1      36.642 -11.005   2.247  0.00  0.00     0.210 C 
ENDBRANCH  26  31
BRANCH  28  33
ATOM     33  O   UNL d   1      35.241 -16.088   0.425  0.00  0.00    -0.355 OA
ATOM     34  C   UNL d   1      34.808 -15.980  -0.913  0.00  0.00     0.210 C 
ENDBRANCH  28  33
ENDBRANCH  22  23
ENDBRANCH   3  21
TORSDOF 9
ENDMDL
MODEL 4
REMARK VINA RESULT:    -7.219      1.790      2.220
REMARK INTER + INTRA:         -11.278
REMARK INTER:                  -9.904
REMARK INTRA:                  -1.375
REMARK CONF_INDEPENDENT:        2.685
REMARK UNBOUND:                -1.375
REMARK  9 active torsions:
REMARK  status: ('A' for Active; 'I' for Inactive)
REMARK    1  A    between atoms: C_2  and  O_3 
REMARK    2  A    between atoms: O_3  and  C_4 
REMARK    3  A    between atoms: C_7  and  C_8 
REMARK    4  A    between atoms: C_11  and  C_12 
REMARK       I    between atoms: C_12  and  N_14 
REMARK    5  A    between atoms: N_14  and  N_15 
REMARK    6  A    between atoms: C_16  and  C_17 
REMARK    7  A    between atoms: C_19  and  O_20 
REMARK    8  A    between atoms: C_22  and  O_23 
REMARK    9  A    between atoms: C_26  and  O_27 
ROOT
ATOM      1  C   UNL d   1      27.521 -12.674   3.184  0.00  0.00     0.290 C 
ATOM      2  O   UNL d   1      27.127 -11.669   2.614  0.00  0.00    -0.264 OA
ATOM      3  N   UNL d   1      27.628 -13.942   2.558  0.00  0.00    -0.242 N 
ATOM      4  H   UNL d   1      28.365 -14.548   2.859  0.00  0.00     0.192 HD
ENDROOT
BRANCH   1   5
ATOM      5  C   UNL d   1      27.925 -12.616   4.591  0.00  0.00     0.127 A 
ATOM      6  N   UNL d   1      27.790 -11.460   5.338  0.00  0.00    -0.272 N 
ATOM      7  N   UNL d   1      28.092 -11.599   6.645  0.00  0.00    -0.173 NA
ATOM      8  H   UNL d   1      27.458 -10.551   5.024  0.00  0.00     0.189 HD
ATOM      9  C   UNL d   1      28.491 -12.870   6.760  0.00  0.00     0.095 A 
ATOM     10  C   UNL d   1      28.414 -13.547   5.499  0.00  0.00     0.003 A 
ATOM     11  C   UNL d   1      28.752 -14.975   5.328  0.00  0.00     0.053 C 
BRANCH   9  12
ATOM     12  C   UNL d   1      28.952 -13.440   8.032  0.00  0.00    -0.005 A 
ATOM     13  C   UNL d   1      30.192 -14.077   8.141  0.00  0.00     0.016 A 
ATOM     14  C   UNL d   1      30.586 -14.653   9.360  0.00  0.00     0.037 A 
ATOM     15  C   UNL d   1      29.782 -14.542  10.498  0.00  0.00     0.068 A 
ATOM     16  C   UNL d   1      28.573 -13.857  10.408  0.00  0.00     0.037 A 
ATOM     17  C   UNL d   1      28.158 -13.322   9.182  0.00  0.00     0.016 A 
BRANCH  15  18
ATOM     18  O   UNL d   1      30.303 -15.036  11.665  0.00  0.00    -0.352 OA
BRANCH  18  19
ATOM     19  C   UNL d   1      30.954 -16.308  11.569  0.00  0.00     0.171 C 
ATOM     20  C   UNL d   1      32.427 -16.125  11.898  0.00  0.00     0.034 C 
ENDBRANCH  18  19
ENDBRANCH  15  18
ENDBRANCH   9  12
ENDBRANCH   1   5
BRANCH   3  21
ATOM     21  N   UNL d   1      27.165 -14.159   1.274  0.00  0.00    -0.183 NA
ATOM     22  C   UNL d   1      27.560 -15.229   0.645  0.00  0.00     0.153 C 
BRANCH  22  23
ATOM     23  C   UNL d   1      27.476 -15.313  -0.852  0.00  0.00     0.019 C 
ATOM     24  C   UNL d   1      26.253 -14.975  -1.473  0.00  0.00     0.055 C 
ATOM     25  C   UNL d   1      26.068 -15.140  -2.868  0.00  0.00     0.102 C 
ATOM     26  C   UNL d   1      27.151 -15.541  -3.668  0.00  0.00     0.104 C 
ATOM     27  C   UNL d   1      28.336 -15.921  -3.044  0.00  0.00     0.077 C 
ATOM     28  C   UNL d   1      28.511 -15.841  -1.650  0.00  0.00     0.082 C 
BRANCH  25  29
ATOM     29  O   UNL d   1      24.785 -14.897  -3.316  0.00  0.00    -0.353 OA
ATOM     30  C   UNL d   1      24.568 -13.698  -4.070  0.00  0.00     0.210 C 
ENDBRANCH  25  29
BRANCH  26  31
ATOM     31  O   UNL d   1      26.990 -15.526  -5.022  0.00  0.00    -0.353 OA
ATOM     32  C   UNL d   1      27.753 -14.649  -5.829  0.00  0.00     0.210 C 
ENDBRANCH  26  31
BRANCH  28  33
ATOM     33  O   UNL d   1      29.728 -16.383  -1.307  0.00  0.00    -0.355 OA
ATOM     34  C   UNL d   1      29.739 -17.554  -0.520  0.00  0.00     0.210 C 
ENDBRANCH  28  33
ENDBRANCH  22  23
ENDBRANCH   3  21
TORSDOF 9
ENDMDL
MODEL 5
REMARK VINA RESULT:    -7.144      5.597     10.378
REMARK INTER + INTRA:         -10.913
REMARK INTER:                  -9.828
REMARK INTRA:                  -1.084
REMARK CONF_INDEPENDENT:        2.685
REMARK UNBOUND:                -1.084
REMARK  9 active torsions:
REMARK  status: ('A' for Active; 'I' for Inactive)
REMARK    1  A    between atoms: C_2  and  O_3 
REMARK    2  A    between atoms: O_3  and  C_4 
REMARK    3  A    between atoms: C_7  and  C_8 
REMARK    4  A    between atoms: C_11  and  C_12 
REMARK       I    between atoms: C_12  and  N_14 
REMARK    5  A    between atoms: N_14  and  N_15 
REMARK    6  A    between atoms: C_16  and  C_17 
REMARK    7  A    between atoms: C_19  and  O_20 
REMARK    8  A    between atoms: C_22  and  O_23 
REMARK    9  A    between atoms: C_26  and  O_27 
ROOT
ATOM      1  C   UNL d   1      29.158 -15.783  -0.488  0.00  0.00     0.290 C 
ATOM      2  O   UNL d   1      29.392 -15.068  -1.450  0.00  0.00    -0.264 OA
ATOM      3  N   UNL d   1      30.032 -15.918   0.620  0.00  0.00    -0.242 N 
ATOM      4  H   UNL d   1      29.621 -16.073   1.519  0.00  0.00     0.192 HD
ENDROOT
BRANCH   1   5
ATOM      5  C   UNL d   1      27.916 -16.558  -0.426  0.00  0.00     0.127 A 
ATOM      6  N   UNL d   1      27.864 -17.798   0.184  0.00  0.00    -0.272 N 
ATOM      7  N   UNL d   1      26.627 -18.330   0.266  0.00  0.00    -0.173 NA
ATOM      8  H   UNL d   1      28.631 -18.319   0.603  0.00  0.00     0.189 HD
ATOM      9  C   UNL d   1      25.843 -17.444  -0.357  0.00  0.00     0.095 A 
ATOM     10  C   UNL d   1      26.605 -16.321  -0.817  0.00  0.00     0.003 A 
ATOM     11  C   UNL d   1      25.999 -15.162  -1.505  0.00  0.00     0.053 C 
BRANCH   9  12
ATOM     12  C   UNL d   1      24.401 -17.653  -0.530  0.00  0.00    -0.005 A 
ATOM     13  C   UNL d   1      23.844 -18.937  -0.548  0.00  0.00     0.016 A 
ATOM     14  C   UNL d   1      22.467 -19.107  -0.762  0.00  0.00     0.037 A 
ATOM     15  C   UNL d   1      21.620 -18.002  -0.892  0.00  0.00     0.068 A 
ATOM     16  C   UNL d   1      22.162 -16.722  -0.817  0.00  0.00     0.037 A 
ATOM     17  C   UNL d   1      23.542 -16.551  -0.649  0.00  0.00     0.016 A 
BRANCH  15  18
ATOM     18  O   UNL d   1      20.279 -18.268  -0.984  0.00  0.00    -0.352 OA
BRANCH  18  19
ATOM     19  C   UNL d   1      19.886 -19.613  -0.688  0.00  0.00     0.171 C 
ATOM     20  C   UNL d   1      19.525 -19.700   0.786  0.00  0.00     0.034 C 
ENDBRANCH  18  19
ENDBRANCH  15  18
ENDBRANCH   9  12
ENDBRANCH   1   5
BRANCH   3  21
ATOM     21  N   UNL d   1      31.287 -15.339   0.630  0.00  0.00    -0.183 NA
ATOM     22  C   UNL d   1      31.968 -15.356   1.740  0.00  0.00     0.153 C 
BRANCH  22  23
ATOM     23  C   UNL d   1      33.100 -14.394   1.959  0.00  0.00     0.019 C 
ATOM     24  C   UNL d   1      34.415 -14.906   2.003  0.00  0.00     0.055 C 
ATOM     25  C   UNL d   1      35.517 -14.073   2.318  0.00  0.00     0.102 C 
ATOM     26  C   UNL d   1      35.318 -12.693   2.481  0.00  0.00     0.104 C 
ATOM     27  C   UNL d   1      34.015 -12.203   2.488  0.00  0.00     0.077 C 
ATOM     28  C   UNL d   1      32.900 -13.030   2.257  0.00  0.00     0.082 C 
BRANCH  25  29
ATOM     29  O   UNL d   1      36.723 -14.733   2.456  0.00  0.00    -0.353 OA
ATOM     30  C   UNL d   1      36.680 -16.162   2.557  0.00  0.00     0.210 C 
ENDBRANCH  25  29
BRANCH  26  31
ATOM     31  O   UNL d   1      36.417 -11.895   2.614  0.00  0.00    -0.353 OA
ATOM     32  C   UNL d   1      36.534 -11.005   3.707  0.00  0.00     0.210 C 
ENDBRANCH  26  31
BRANCH  28  33
ATOM     33  O   UNL d   1      31.745 -12.305   2.433  0.00  0.00    -0.355 OA
ATOM     34  C   UNL d   1      31.724 -10.964   1.996  0.00  0.00     0.210 C 
ENDBRANCH  28  33
ENDBRANCH  22  23
ENDBRANCH   3  21
TORSDOF 9
ENDMDL
MODEL 6
REMARK VINA RESULT:    -7.121      1.565     12.011
REMARK INTER + INTRA:         -11.215
REMARK INTER:                  -9.806
REMARK INTRA:                  -1.409
REMARK CONF_INDEPENDENT:        2.685
REMARK UNBOUND:                -1.409
REMARK  9 active torsions:
REMARK  status: ('A' for Active; 'I' for Inactive)
REMARK    1  A    between atoms: C_2  and  O_3 
REMARK    2  A    between atoms: O_3  and  C_4 
REMARK    3  A    between atoms: C_7  and  C_8 
REMARK    4  A    between atoms: C_11  and  C_12 
REMARK       I    between atoms: C_12  and  N_14 
REMARK    5  A    between atoms: N_14  and  N_15 
REMARK    6  A    between atoms: C_16  and  C_17 
REMARK    7  A    between atoms: C_19  and  O_20 
REMARK    8  A    between atoms: C_22  and  O_23 
REMARK    9  A    between atoms: C_26  and  O_27 
ROOT
ATOM      1  C   UNL d   1      27.975 -13.734   3.037  0.00  0.00     0.290 C 
ATOM      2  O   UNL d   1      27.223 -12.815   3.319  0.00  0.00    -0.264 OA
ATOM      3  N   UNL d   1      28.956 -14.246   3.924  0.00  0.00    -0.242 N 
ATOM      4  H   UNL d   1      29.166 -15.223   3.870  0.00  0.00     0.192 HD
ENDROOT
BRANCH   1   5
ATOM      5  C   UNL d   1      27.894 -14.382   1.725  0.00  0.00     0.127 A 
ATOM      6  N   UNL d   1      27.780 -15.754   1.598  0.00  0.00    -0.272 N 
ATOM      7  N   UNL d   1      27.594 -16.186   0.334  0.00  0.00    -0.173 NA
ATOM      8  H   UNL d   1      27.782 -16.450   2.340  0.00  0.00     0.189 HD
ATOM      9  C   UNL d   1      27.640 -15.074  -0.407  0.00  0.00     0.095 A 
ATOM     10  C   UNL d   1      27.836 -13.917   0.418  0.00  0.00     0.003 A 
ATOM     11  C   UNL d   1      27.885 -12.542  -0.121  0.00  0.00     0.053 C 
BRANCH   9  12
ATOM     12  C   UNL d   1      27.516 -15.095  -1.869  0.00  0.00    -0.005 A 
ATOM     13  C   UNL d   1      28.639 -15.201  -2.697  0.00  0.00     0.016 A 
ATOM     14  C   UNL d   1      28.492 -15.171  -4.093  0.00  0.00     0.037 A 
ATOM     15  C   UNL d   1      27.225 -15.107  -4.680  0.00  0.00     0.068 A 
ATOM     16  C   UNL d   1      26.101 -15.061  -3.859  0.00  0.00     0.037 A 
ATOM     17  C   UNL d   1      26.248 -15.043  -2.466  0.00  0.00     0.016 A 
BRANCH  15  18
ATOM     18  O   UNL d   1      27.178 -15.199  -6.046  0.00  0.00    -0.352 OA
BRANCH  18  19
ATOM     19  C   UNL d   1      28.320 -14.693  -6.746  0.00  0.00     0.171 C 
ATOM     20  C   UNL d   1      28.254 -13.175  -6.750  0.00  0.00     0.034 C 
ENDBRANCH  18  19
ENDBRANCH  15  18
ENDBRANCH   9  12
ENDBRANCH   1   5
BRANCH   3  21
ATOM     21  N   UNL d   1      29.218 -13.647   5.141  0.00  0.00    -0.183 NA
ATOM     22  C   UNL d   1      29.102 -14.363   6.223  0.00  0.00     0.153 C 
BRANCH  22  23
ATOM     23  C   UNL d   1      28.931 -13.706   7.562  0.00  0.00     0.019 C 
ATOM     24  C   UNL d   1      29.262 -14.447   8.718  0.00  0.00     0.055 C 
ATOM     25  C   UNL d   1      29.020 -13.931  10.015  0.00  0.00     0.102 C 
ATOM     26  C   UNL d   1      28.545 -12.618  10.161  0.00  0.00     0.104 C 
ATOM     27  C   UNL d   1      28.173 -11.912   9.020  0.00  0.00     0.077 C 
ATOM     28  C   UNL d   1      28.331 -12.440   7.725  0.00  0.00     0.082 C 
BRANCH  25  29
ATOM     29  O   UNL d   1      29.267 -14.815  11.047  0.00  0.00    -0.353 OA
ATOM     30  C   UNL d   1      30.446 -15.625  10.949  0.00  0.00     0.210 C 
ENDBRANCH  25  29
BRANCH  26  31
ATOM     31  O   UNL d   1      28.484 -12.091  11.418  0.00  0.00    -0.353 OA
ATOM     32  C   UNL d   1      29.666 -11.849  12.157  0.00  0.00     0.210 C 
ENDBRANCH  26  31
BRANCH  28  33
ATOM     33  O   UNL d   1      27.780 -11.579   6.806  0.00  0.00    -0.355 OA
ATOM     34  C   UNL d   1      28.640 -10.704   6.109  0.00  0.00     0.210 C 
ENDBRANCH  28  33
ENDBRANCH  22  23
ENDBRANCH   3  21
TORSDOF 9
ENDMDL
MODEL 7
REMARK VINA RESULT:    -6.999      2.414      3.071
REMARK INTER + INTRA:         -11.106
REMARK INTER:                  -9.684
REMARK INTRA:                  -1.423
REMARK CONF_INDEPENDENT:        2.685
REMARK UNBOUND:                -1.423
REMARK  9 active torsions:
REMARK  status: ('A' for Active; 'I' for Inactive)
REMARK    1  A    between atoms: C_2  and  O_3 
REMARK    2  A    between atoms: O_3  and  C_4 
REMARK    3  A    between atoms: C_7  and  C_8 
REMARK    4  A    between atoms: C_11  and  C_12 
REMARK       I    between atoms: C_12  and  N_14 
REMARK    5  A    between atoms: N_14  and  N_15 
REMARK    6  A    between atoms: C_16  and  C_17 
REMARK    7  A    between atoms: C_19  and  O_20 
REMARK    8  A    between atoms: C_22  and  O_23 
REMARK    9  A    between atoms: C_26  and  O_27 
ROOT
ATOM      1  C   UNL d   1      27.469 -12.209   3.493  0.00  0.00     0.290 C 
ATOM      2  O   UNL d   1      26.996 -11.144   3.128  0.00  0.00    -0.264 OA
ATOM      3  N   UNL d   1      27.587 -13.344   2.652  0.00  0.00    -0.242 N 
ATOM      4  H   UNL d   1      28.367 -13.954   2.802  0.00  0.00     0.192 HD
ENDROOT
BRANCH   1   5
ATOM      5  C   UNL d   1      27.961 -12.370   4.864  0.00  0.00     0.127 A 
ATOM      6  N   UNL d   1      27.779 -11.387   5.820  0.00  0.00    -0.272 N 
ATOM      7  N   UNL d   1      28.179 -11.732   7.061  0.00  0.00    -0.173 NA
ATOM      8  H   UNL d   1      27.350 -10.472   5.699  0.00  0.00     0.189 HD
ATOM      9  C   UNL d   1      28.691 -12.959   6.916  0.00  0.00     0.095 A 
ATOM     10  C   UNL d   1      28.587 -13.399   5.555  0.00  0.00     0.003 A 
ATOM     11  C   UNL d   1      29.033 -14.733   5.102  0.00  0.00     0.053 C 
BRANCH   9  12
ATOM     12  C   UNL d   1      29.283 -13.703   8.033  0.00  0.00    -0.005 A 
ATOM     13  C   UNL d   1      28.531 -14.053   9.159  0.00  0.00     0.016 A 
ATOM     14  C   UNL d   1      29.138 -14.726  10.233  0.00  0.00     0.037 A 
ATOM     15  C   UNL d   1      30.478 -15.118  10.168  0.00  0.00     0.068 A 
ATOM     16  C   UNL d   1      31.214 -14.823   9.023  0.00  0.00     0.037 A 
ATOM     17  C   UNL d   1      30.624 -14.111   7.971  0.00  0.00     0.016 A 
BRANCH  15  18
ATOM     18  O   UNL d   1      30.947 -15.867  11.214  0.00  0.00    -0.352 OA
BRANCH  18  19
ATOM     19  C   UNL d   1      31.935 -15.241  12.039  0.00  0.00     0.171 C 
ATOM     20  C   UNL d   1      33.312 -15.588  11.495  0.00  0.00     0.034 C 
ENDBRANCH  18  19
ENDBRANCH  15  18
ENDBRANCH   9  12
ENDBRANCH   1   5
BRANCH   3  21
ATOM     21  N   UNL d   1      27.052 -13.365   1.379  0.00  0.00    -0.183 NA
ATOM     22  C   UNL d   1      26.440 -14.443   0.980  0.00  0.00     0.153 C 
BRANCH  22  23
ATOM     23  C   UNL d   1      26.235 -14.710  -0.483  0.00  0.00     0.019 C 
ATOM     24  C   UNL d   1      26.588 -13.700  -1.404  0.00  0.00     0.055 C 
ATOM     25  C   UNL d   1      26.316 -13.840  -2.788  0.00  0.00     0.102 C 
ATOM     26  C   UNL d   1      25.788 -15.048  -3.271  0.00  0.00     0.104 C 
ATOM     27  C   UNL d   1      25.394 -16.019  -2.354  0.00  0.00     0.077 C 
ATOM     28  C   UNL d   1      25.583 -15.863  -0.969  0.00  0.00     0.082 C 
BRANCH  25  29
ATOM     29  O   UNL d   1      26.593 -12.722  -3.550  0.00  0.00    -0.353 OA
ATOM     30  C   UNL d   1      25.530 -11.781  -3.745  0.00  0.00     0.210 C 
ENDBRANCH  25  29
BRANCH  26  31
ATOM     31  O   UNL d   1      25.697 -15.216  -4.622  0.00  0.00    -0.353 OA
ATOM     32  C   UNL d   1      26.854 -15.163  -5.435  0.00  0.00     0.210 C 
ENDBRANCH  26  31
BRANCH  28  33
ATOM     33  O   UNL d   1      25.003 -16.918  -0.304  0.00  0.00    -0.355 OA
ATOM     34  C   UNL d   1      23.769 -17.410  -0.778  0.00  0.00     0.210 C 
ENDBRANCH  28  33
ENDBRANCH  22  23
ENDBRANCH   3  21
TORSDOF 9
ENDMDL
MODEL 8
REMARK VINA RESULT:    -6.769      7.534      9.477
REMARK INTER + INTRA:         -10.716
REMARK INTER:                  -9.454
REMARK INTRA:                  -1.262
REMARK CONF_INDEPENDENT:        2.685
REMARK UNBOUND:                -1.262
REMARK  9 active torsions:
REMARK  status: ('A' for Active; 'I' for Inactive)
REMARK    1  A    between atoms: C_2  and  O_3 
REMARK    2  A    between atoms: O_3  and  C_4 
REMARK    3  A    between atoms: C_7  and  C_8 
REMARK    4  A    between atoms: C_11  and  C_12 
REMARK       I    between atoms: C_12  and  N_14 
REMARK    5  A    between atoms: N_14  and  N_15 
REMARK    6  A    between atoms: C_16  and  C_17 
REMARK    7  A    between atoms: C_19  and  O_20 
REMARK    8  A    between atoms: C_22  and  O_23 
REMARK    9  A    between atoms: C_26  and  O_27 
ROOT
ATOM      1  C   UNL d   1      28.960 -15.658  -2.577  0.00  0.00     0.290 C 
ATOM      2  O   UNL d   1      29.778 -15.049  -1.905  0.00  0.00    -0.264 OA
ATOM      3  N   UNL d   1      29.047 -15.792  -3.986  0.00  0.00    -0.242 N 
ATOM      4  H   UNL d   1      28.700 -16.638  -4.393  0.00  0.00     0.192 HD
ENDROOT
BRANCH   1   5
ATOM      5  C   UNL d   1      27.812 -16.306  -1.938  0.00  0.00     0.127 A 
ATOM      6  N   UNL d   1      27.946 -17.028  -0.765  0.00  0.00    -0.272 N 
ATOM      7  N   UNL d   1      26.782 -17.460  -0.239  0.00  0.00    -0.173 NA
ATOM      8  H   UNL d   1      28.801 -17.227  -0.251  0.00  0.00     0.189 HD
ATOM      9  C   UNL d   1      25.853 -17.062  -1.113  0.00  0.00     0.095 A 
ATOM     10  C   UNL d   1      26.449 -16.343  -2.201  0.00  0.00     0.003 A 
ATOM     11  C   UNL d   1      25.663 -15.745  -3.300  0.00  0.00     0.053 C 
BRANCH   9  12
ATOM     12  C   UNL d   1      24.427 -17.362  -0.941  0.00  0.00    -0.005 A 
ATOM     13  C   UNL d   1      23.447 -16.380  -1.113  0.00  0.00     0.016 A 
ATOM     14  C   UNL d   1      22.093 -16.686  -0.896  0.00  0.00     0.037 A 
ATOM     15  C   UNL d   1      21.696 -17.987  -0.574  0.00  0.00     0.068 A 
ATOM     16  C   UNL d   1      22.664 -18.981  -0.459  0.00  0.00     0.037 A 
ATOM     17  C   UNL d   1      24.018 -18.667  -0.629  0.00  0.00     0.016 A 
BRANCH  15  18
ATOM     18  O   UNL d   1      20.347 -18.212  -0.494  0.00  0.00    -0.352 OA
BRANCH  18  19
ATOM     19  C   UNL d   1      19.885 -19.449  -1.047  0.00  0.00     0.171 C 
ATOM     20  C   UNL d   1      18.947 -20.108  -0.048  0.00  0.00     0.034 C 
ENDBRANCH  18  19
ENDBRANCH  15  18
ENDBRANCH   9  12
ENDBRANCH   1   5
BRANCH   3  21
ATOM     21  N   UNL d   1      30.009 -15.128  -4.722  0.00  0.00    -0.183 NA
ATOM     22  C   UNL d   1      29.788 -14.920  -5.988  0.00  0.00     0.153 C 
BRANCH  22  23
ATOM     23  C   UNL d   1      30.923 -14.623  -6.925  0.00  0.00     0.019 C 
ATOM     24  C   UNL d   1      31.186 -13.275  -7.251  0.00  0.00     0.055 C 
ATOM     25  C   UNL d   1      32.167 -12.931  -8.215  0.00  0.00     0.102 C 
ATOM     26  C   UNL d   1      32.969 -13.938  -8.778  0.00  0.00     0.104 C 
ATOM     27  C   UNL d   1      32.670 -15.266  -8.492  0.00  0.00     0.077 C 
ATOM     28  C   UNL d   1      31.646 -15.631  -7.598  0.00  0.00     0.082 C 
BRANCH  25  29
ATOM     29  O   UNL d   1      32.224 -11.588  -8.530  0.00  0.00    -0.353 OA
ATOM     30  C   UNL d   1      32.081 -11.231  -9.911  0.00  0.00     0.210 C 
ENDBRANCH  25  29
BRANCH  26  31
ATOM     31  O   UNL d   1      34.013 -13.560  -9.570  0.00  0.00    -0.353 OA
ATOM     32  C   UNL d   1      34.942 -14.517 -10.044  0.00  0.00     0.210 C 
ENDBRANCH  26  31
BRANCH  28  33
ATOM     33  O   UNL d   1      31.502 -16.998  -7.595  0.00  0.00    -0.355 OA
ATOM     34  C   UNL d   1      31.326 -17.650  -6.356  0.00  0.00     0.210 C 
ENDBRANCH  28  33
ENDBRANCH  22  23
ENDBRANCH   3  21
TORSDOF 9
ENDMDL
MODEL 9
REMARK VINA RESULT:    -6.697      2.264     11.887
REMARK INTER + INTRA:         -10.807
REMARK INTER:                  -9.382
REMARK INTRA:                  -1.426
REMARK CONF_INDEPENDENT:        2.685
REMARK UNBOUND:                -1.426
REMARK  9 active torsions:
REMARK  status: ('A' for Active; 'I' for Inactive)
REMARK    1  A    between atoms: C_2  and  O_3 
REMARK    2  A    between atoms: O_3  and  C_4 
REMARK    3  A    between atoms: C_7  and  C_8 
REMARK    4  A    between atoms: C_11  and  C_12 
REMARK       I    between atoms: C_12  and  N_14 
REMARK    5  A    between atoms: N_14  and  N_15 
REMARK    6  A    between atoms: C_16  and  C_17 
REMARK    7  A    between atoms: C_19  and  O_20 
REMARK    8  A    between atoms: C_22  and  O_23 
REMARK    9  A    between atoms: C_26  and  O_27 
ROOT
ATOM      1  C   UNL d   1      28.099 -13.829   3.758  0.00  0.00     0.290 C 
ATOM      2  O   UNL d   1      27.257 -13.218   4.396  0.00  0.00    -0.264 OA
ATOM      3  N   UNL d   1      29.271 -14.383   4.333  0.00  0.00    -0.242 N 
ATOM      4  H   UNL d   1      29.628 -15.228   3.935  0.00  0.00     0.192 HD
ENDROOT
BRANCH   1   5
ATOM      5  C   UNL d   1      27.931 -14.033   2.317  0.00  0.00     0.127 A 
ATOM      6  N   UNL d   1      28.390 -15.176   1.686  0.00  0.00    -0.272 N 
ATOM      7  N   UNL d   1      28.054 -15.270   0.384  0.00  0.00    -0.173 NA
ATOM      8  H   UNL d   1      28.905 -15.950   2.099  0.00  0.00     0.189 HD
ATOM      9  C   UNL d   1      27.400 -14.133   0.127  0.00  0.00     0.095 A 
ATOM     10  C   UNL d   1      27.305 -13.319   1.303  0.00  0.00     0.003 A 
ATOM     11  C   UNL d   1      26.599 -12.022   1.332  0.00  0.00     0.053 C 
BRANCH   9  12
ATOM     12  C   UNL d   1      26.882 -13.805  -1.207  0.00  0.00    -0.005 A 
ATOM     13  C   UNL d   1      27.182 -12.589  -1.830  0.00  0.00     0.016 A 
ATOM     14  C   UNL d   1      26.635 -12.285  -3.087  0.00  0.00     0.037 A 
ATOM     15  C   UNL d   1      25.841 -13.213  -3.766  0.00  0.00     0.068 A 
ATOM     16  C   UNL d   1      25.588 -14.448  -3.175  0.00  0.00     0.037 A 
ATOM     17  C   UNL d   1      26.095 -14.735  -1.902  0.00  0.00     0.016 A 
BRANCH  15  18
ATOM     18  O   UNL d   1      25.448 -12.870  -5.033  0.00  0.00    -0.352 OA
BRANCH  18  19
ATOM     19  C   UNL d   1      25.905 -11.598  -5.506  0.00  0.00     0.171 C 
ATOM     20  C   UNL d   1      27.075 -11.823  -6.450  0.00  0.00     0.034 C 
ENDBRANCH  18  19
ENDBRANCH  15  18
ENDBRANCH   9  12
ENDBRANCH   1   5
BRANCH   3  21
ATOM     21  N   UNL d   1      29.609 -14.157   5.654  0.00  0.00    -0.183 NA
ATOM     22  C   UNL d   1      28.698 -14.337   6.567  0.00  0.00     0.153 C 
BRANCH  22  23
ATOM     23  C   UNL d   1      28.836 -13.706   7.922  0.00  0.00     0.019 C 
ATOM     24  C   UNL d   1      29.102 -14.545   9.026  0.00  0.00     0.055 C 
ATOM     25  C   UNL d   1      29.133 -14.032  10.347  0.00  0.00     0.102 C 
ATOM     26  C   UNL d   1      29.006 -12.649  10.557  0.00  0.00     0.104 C 
ATOM     27  C   UNL d   1      28.693 -11.836   9.471  0.00  0.00     0.077 C 
ATOM     28  C   UNL d   1      28.579 -12.340   8.163  0.00  0.00     0.082 C 
BRANCH  25  29
ATOM     29  O   UNL d   1      29.271 -14.985  11.337  0.00  0.00    -0.353 OA
ATOM     30  C   UNL d   1      30.598 -15.444  11.625  0.00  0.00     0.210 C 
ENDBRANCH  25  29
BRANCH  26  31
ATOM     31  O   UNL d   1      29.210 -12.168  11.817  0.00  0.00    -0.353 OA
ATOM     32  C   UNL d   1      30.311 -11.325  12.098  0.00  0.00     0.210 C 
ENDBRANCH  26  31
BRANCH  28  33
ATOM     33  O   UNL d   1      28.155 -11.341   7.319  0.00  0.00    -0.355 OA
ATOM     34  C   UNL d   1      29.116 -10.688   6.519  0.00  0.00     0.210 C 
ENDBRANCH  28  33
ENDBRANCH  22  23
ENDBRANCH   3  21
TORSDOF 9
ENDMDL
