MODEL 1
REMARK VINA RESULT:    -9.509      0.000      0.000
REMARK INTER + INTRA:         -13.625
REMARK INTER:                 -12.194
REMARK INTRA:                  -1.431
REMARK CONF_INDEPENDENT:        2.685
REMARK UNBOUND:                -1.431
REMARK  9 active torsions:
REMARK  status: ('A' for Active; 'I' for Inactive)
REMARK    1  A    between atoms: C_2  and  C_3 
REMARK    2  A    between atoms: C_3  and  N_4 
REMARK       I    between atoms: N_4  and  C_5 
REMARK    3  A    between atoms: C_5  and  C_7 
REMARK    4  A    between atoms: C_10  and  N_11 
REMARK       I    between atoms: N_11  and  C_12 
REMARK       I    between atoms: C_12  and  N_14 
REMARK    5  A    between atoms: N_14  and  C_15 
REMARK    6  A    between atoms: C_15  and  C_16 
REMARK    7  A    between atoms: C_16  and  N_17 
REMARK    8  A    between atoms: N_17  and  C_18 
REMARK    9  A    between atoms: C_21  and  N_22 
ROOT
ATOM      1  N   UNL d   1      27.205 -16.880   0.084  0.00  0.00    -0.309 N 
ATOM      2  C   UNL d   1      27.643 -15.642   0.537  0.00  0.00     0.320 C 
ATOM      3  O   UNL d   1      26.922 -14.719   0.910  0.00  0.00    -0.247 OA
ATOM      4  N   UNL d   1      29.008 -15.450   0.558  0.00  0.00    -0.341 N 
ATOM      5  H   UNL d   1      27.893 -17.548  -0.238  0.00  0.00     0.170 HD
ATOM      6  H   UNL d   1      29.650 -16.162   0.245  0.00  0.00     0.164 HD
ENDROOT
BRANCH   1   7
ATOM      7  C   UNL d   1      25.821 -17.245  -0.069  0.00  0.00     0.036 A 
ATOM      8  C   UNL d   1      25.379 -18.564   0.133  0.00  0.00     0.030 A 
ATOM      9  C   UNL d   1      24.029 -18.925  -0.130  0.00  0.00     0.019 A 
ATOM     10  C   UNL d   1      23.089 -17.967  -0.545  0.00  0.00     0.032 A 
ATOM     11  C   UNL d   1      23.513 -16.655  -0.695  0.00  0.00     0.019 A 
ATOM     12  C   UNL d   1      24.849 -16.312  -0.451  0.00  0.00     0.030 A 
BRANCH  10  13
ATOM     13  C   UNL d   1      21.638 -18.294  -0.672  0.00  0.00     0.251 C 
ATOM     14  N   UNL d   1      21.196 -19.494  -0.137  0.00  0.00    -0.353 N 
ATOM     15  H   UNL d   1      21.830 -20.072   0.397  0.00  0.00     0.163 HD
ATOM     16  O   UNL d   1      20.895 -17.505  -1.259  0.00  0.00    -0.268 OA
BRANCH  14  17
ATOM     17  C   UNL d   1      19.801 -19.873  -0.257  0.00  0.00     0.149 C 
BRANCH  17  18
ATOM     18  C   UNL d   1      19.326 -20.621   0.956  0.00  0.00    -0.018 C 
ATOM     19  C   UNL d   1      18.096 -21.153   1.036  0.00  0.00     0.008 C 
ENDBRANCH  17  18
ENDBRANCH  14  17
ENDBRANCH  10  13
ENDBRANCH   1   7
BRANCH   4  20
ATOM     20  C   UNL d   1      29.514 -14.159   1.063  0.00  0.00     0.144 C 
BRANCH  20  21
ATOM     21  C   UNL d   1      29.354 -13.946   2.575  0.00  0.00     0.139 C 
BRANCH  21  22
ATOM     22  N   UNL d   1      28.003 -13.532   2.954  0.00  0.00    -0.388 N 
ATOM     23  H   UNL d   1      27.272 -14.237   3.026  0.00  0.00     0.159 HD
BRANCH  22  24
ATOM     24  C   UNL d   1      27.574 -12.215   2.863  0.00  0.00     0.028 A 
ATOM     25  C   UNL d   1      27.150 -11.717   1.621  0.00  0.00     0.031 A 
ATOM     26  C   UNL d   1      26.713 -10.391   1.471  0.00  0.00     0.038 A 
ATOM     27  C   UNL d   1      26.639  -9.563   2.593  0.00  0.00     0.103 A 
ATOM     28  C   UNL d   1      27.058 -10.033   3.841  0.00  0.00     0.038 A 
ATOM     29  C   UNL d   1      27.514 -11.352   3.965  0.00  0.00     0.031 A 
BRANCH  27  30
ATOM     30  N   UNL d   1      26.061  -8.217   2.478  0.00  0.00    -0.116 N 
ATOM     31  O   UNL d   1      26.527  -7.324   3.200  0.00  0.00    -0.532 OA
ATOM     32  O   UNL d   1      25.154  -8.048   1.649  0.00  0.00    -0.532 OA
ENDBRANCH  27  30
ENDBRANCH  22  24
ENDBRANCH  21  22
ENDBRANCH  20  21
ENDBRANCH   4  20
TORSDOF 9
ENDMDL
MODEL 2
REMARK VINA RESULT:    -9.022      0.752      1.322
REMARK INTER + INTRA:         -13.256
REMARK INTER:                 -11.706
REMARK INTRA:                  -1.550
REMARK CONF_INDEPENDENT:        2.685
REMARK UNBOUND:                -1.550
REMARK  9 active torsions:
REMARK  status: ('A' for Active; 'I' for Inactive)
REMARK    1  A    between atoms: C_2  and  C_3 
REMARK    2  A    between atoms: C_3  and  N_4 
REMARK       I    between atoms: N_4  and  C_5 
REMARK    3  A    between atoms: C_5  and  C_7 
REMARK    4  A    between atoms: C_10  and  N_11 
REMARK       I    between atoms: N_11  and  C_12 
REMARK       I    between atoms: C_12  and  N_14 
REMARK    5  A    between atoms: N_14  and  C_15 
REMARK    6  A    between atoms: C_15  and  C_16 
REMARK    7  A    between atoms: C_16  and  N_17 
REMARK    8  A    between atoms: N_17  and  C_18 
REMARK    9  A    between atoms: C_21  and  N_22 
ROOT
ATOM      1  N   UNL d   1      27.113 -16.682  -0.380  0.00  0.00    -0.309 N 
ATOM      2  C   UNL d   1      27.518 -15.375  -0.138  0.00  0.00     0.320 C 
ATOM      3  O   UNL d   1      26.772 -14.419   0.067  0.00  0.00    -0.247 OA
ATOM      4  N   UNL d   1      28.878 -15.150  -0.137  0.00  0.00    -0.341 N 
ATOM      5  H   UNL d   1      27.819 -17.377  -0.578  0.00  0.00     0.170 HD
ATOM      6  H   UNL d   1      29.540 -15.889  -0.320  0.00  0.00     0.164 HD
ENDROOT
BRANCH   1   7
ATOM      7  C   UNL d   1      25.739 -17.100  -0.481  0.00  0.00     0.036 A 
ATOM      8  C   UNL d   1      24.810 -16.397  -1.267  0.00  0.00     0.030 A 
ATOM      9  C   UNL d   1      23.435 -16.761  -1.265  0.00  0.00     0.019 A 
ATOM     10  C   UNL d   1      22.977 -17.863  -0.523  0.00  0.00     0.032 A 
ATOM     11  C   UNL d   1      23.903 -18.588   0.213  0.00  0.00     0.019 A 
ATOM     12  C   UNL d   1      25.251 -18.211   0.219  0.00  0.00     0.030 A 
BRANCH  10  13
ATOM     13  C   UNL d   1      21.572 -18.354  -0.634  0.00  0.00     0.251 C 
ATOM     14  N   UNL d   1      21.272 -19.589  -0.081  0.00  0.00    -0.353 N 
ATOM     15  H   UNL d   1      21.971 -20.084   0.456  0.00  0.00     0.163 HD
ATOM     16  O   UNL d   1      20.741 -17.663  -1.227  0.00  0.00    -0.268 OA
BRANCH  14  17
ATOM     17  C   UNL d   1      19.929 -20.127  -0.185  0.00  0.00     0.149 C 
BRANCH  17  18
ATOM     18  C   UNL d   1      19.111 -19.806   1.032  0.00  0.00    -0.018 C 
ATOM     19  C   UNL d   1      19.539 -20.073   2.276  0.00  0.00     0.008 C 
ENDBRANCH  17  18
ENDBRANCH  14  17
ENDBRANCH  10  13
ENDBRANCH   1   7
BRANCH   4  20
ATOM     20  C   UNL d   1      29.349 -13.781   0.147  0.00  0.00     0.144 C 
BRANCH  20  21
ATOM     21  C   UNL d   1      29.291 -13.368   1.625  0.00  0.00     0.139 C 
BRANCH  21  22
ATOM     22  N   UNL d   1      27.942 -13.013   2.066  0.00  0.00    -0.388 N 
ATOM     23  H   UNL d   1      27.216 -13.726   2.059  0.00  0.00     0.159 HD
BRANCH  22  24
ATOM     24  C   UNL d   1      27.506 -11.698   2.143  0.00  0.00     0.028 A 
ATOM     25  C   UNL d   1      27.504 -10.908   0.983  0.00  0.00     0.031 A 
ATOM     26  C   UNL d   1      27.079  -9.570   1.006  0.00  0.00     0.038 A 
ATOM     27  C   UNL d   1      26.590  -9.026   2.195  0.00  0.00     0.103 A 
ATOM     28  C   UNL d   1      26.584  -9.790   3.365  0.00  0.00     0.038 A 
ATOM     29  C   UNL d   1      27.034 -11.116   3.327  0.00  0.00     0.031 A 
BRANCH  27  30
ATOM     30  N   UNL d   1      26.019  -7.672   2.206  0.00  0.00    -0.116 N 
ATOM     31  O   UNL d   1      25.157  -7.401   1.359  0.00  0.00    -0.532 OA
ATOM     32  O   UNL d   1      26.419  -6.884   3.077  0.00  0.00    -0.532 OA
ENDBRANCH  27  30
ENDBRANCH  22  24
ENDBRANCH  21  22
ENDBRANCH  20  21
ENDBRANCH   4  20
TORSDOF 9
ENDMDL
MODEL 3
REMARK VINA RESULT:    -8.844      2.431      2.979
REMARK INTER + INTRA:         -12.037
REMARK INTER:                 -11.528
REMARK INTRA:                  -0.509
REMARK CONF_INDEPENDENT:        2.685
REMARK UNBOUND:                -0.509
REMARK  9 active torsions:
REMARK  status: ('A' for Active; 'I' for Inactive)
REMARK    1  A    between atoms: C_2  and  C_3 
REMARK    2  A    between atoms: C_3  and  N_4 
REMARK       I    between atoms: N_4  and  C_5 
REMARK    3  A    between atoms: C_5  and  C_7 
REMARK    4  A    between atoms: C_10  and  N_11 
REMARK       I    between atoms: N_11  and  C_12 
REMARK       I    between atoms: C_12  and  N_14 
REMARK    5  A    between atoms: N_14  and  C_15 
REMARK    6  A    between atoms: C_15  and  C_16 
REMARK    7  A    between atoms: C_16  and  N_17 
REMARK    8  A    between atoms: N_17  and  C_18 
REMARK    9  A    between atoms: C_21  and  N_22 
ROOT
ATOM      1  N   UNL d   1      25.550 -15.643  -1.086  0.00  0.00    -0.309 N 
ATOM      2  C   UNL d   1      25.788 -14.887  -2.227  0.00  0.00     0.320 C 
ATOM      3  O   UNL d   1      25.084 -14.869  -3.235  0.00  0.00    -0.247 OA
ATOM      4  N   UNL d   1      26.920 -14.099  -2.211  0.00  0.00    -0.341 N 
ATOM      5  H   UNL d   1      26.225 -15.607  -0.334  0.00  0.00     0.170 HD
ATOM      6  H   UNL d   1      27.548 -14.088  -1.422  0.00  0.00     0.164 HD
ENDROOT
BRANCH   1   7
ATOM      7  C   UNL d   1      24.458 -16.569  -0.939  0.00  0.00     0.036 A 
ATOM      8  C   UNL d   1      24.675 -17.951  -0.810  0.00  0.00     0.030 A 
ATOM      9  C   UNL d   1      23.580 -18.857  -0.778  0.00  0.00     0.019 A 
ATOM     10  C   UNL d   1      22.253 -18.395  -0.819  0.00  0.00     0.032 A 
ATOM     11  C   UNL d   1      22.038 -17.027  -0.895  0.00  0.00     0.019 A 
ATOM     12  C   UNL d   1      23.123 -16.143  -0.944  0.00  0.00     0.030 A 
BRANCH  10  13
ATOM     13  C   UNL d   1      21.095 -19.316  -0.626  0.00  0.00     0.251 C 
ATOM     14  N   UNL d   1      20.933 -19.902   0.620  0.00  0.00    -0.353 N 
ATOM     15  H   UNL d   1      21.534 -19.631   1.385  0.00  0.00     0.163 HD
ATOM     16  O   UNL d   1      20.342 -19.540  -1.577  0.00  0.00    -0.268 OA
BRANCH  14  17
ATOM     17  C   UNL d   1      19.839 -20.826   0.853  0.00  0.00     0.149 C 
BRANCH  17  18
ATOM     18  C   UNL d   1      18.626 -20.460   0.047  0.00  0.00    -0.018 C 
ATOM     19  C   UNL d   1      17.536 -21.241  -0.005  0.00  0.00     0.008 C 
ENDBRANCH  17  18
ENDBRANCH  14  17
ENDBRANCH  10  13
ENDBRANCH   1   7
BRANCH   4  20
ATOM     20  C   UNL d   1      27.191 -13.259  -3.392  0.00  0.00     0.144 C 
BRANCH  20  21
ATOM     21  C   UNL d   1      27.134 -11.745  -3.138  0.00  0.00     0.139 C 
BRANCH  21  22
ATOM     22  N   UNL d   1      27.995 -11.318  -2.036  0.00  0.00    -0.388 N 
ATOM     23  H   UNL d   1      28.824 -11.866  -1.815  0.00  0.00     0.159 HD
BRANCH  22  24
ATOM     24  C   UNL d   1      27.566 -10.436  -1.053  0.00  0.00     0.028 A 
ATOM     25  C   UNL d   1      26.679  -9.404  -1.399  0.00  0.00     0.031 A 
ATOM     26  C   UNL d   1      26.219  -8.482  -0.447  0.00  0.00     0.038 A 
ATOM     27  C   UNL d   1      26.600  -8.627   0.888  0.00  0.00     0.103 A 
ATOM     28  C   UNL d   1      27.484  -9.644   1.259  0.00  0.00     0.038 A 
ATOM     29  C   UNL d   1      27.952 -10.540   0.289  0.00  0.00     0.031 A 
BRANCH  27  30
ATOM     30  N   UNL d   1      26.024  -7.751   1.918  0.00  0.00    -0.116 N 
ATOM     31  O   UNL d   1      25.156  -6.940   1.567  0.00  0.00    -0.532 OA
ATOM     32  O   UNL d   1      26.423  -7.891   3.084  0.00  0.00    -0.532 OA
ENDBRANCH  27  30
ENDBRANCH  22  24
ENDBRANCH  21  22
ENDBRANCH  20  21
ENDBRANCH   4  20
TORSDOF 9
ENDMDL
MODEL 4
REMARK VINA RESULT:    -8.596      4.526      5.373
REMARK INTER + INTRA:         -12.878
REMARK INTER:                 -11.281
REMARK INTRA:                  -1.597
REMARK CONF_INDEPENDENT:        2.685
REMARK UNBOUND:                -1.597
REMARK  9 active torsions:
REMARK  status: ('A' for Active; 'I' for Inactive)
REMARK    1  A    between atoms: C_2  and  C_3 
REMARK    2  A    between atoms: C_3  and  N_4 
REMARK       I    between atoms: N_4  and  C_5 
REMARK    3  A    between atoms: C_5  and  C_7 
REMARK    4  A    between atoms: C_10  and  N_11 
REMARK       I    between atoms: N_11  and  C_12 
REMARK       I    between atoms: C_12  and  N_14 
REMARK    5  A    between atoms: N_14  and  C_15 
REMARK    6  A    between atoms: C_15  and  C_16 
REMARK    7  A    between atoms: C_16  and  N_17 
REMARK    8  A    between atoms: N_17  and  C_18 
REMARK    9  A    between atoms: C_21  and  N_22 
ROOT
ATOM      1  N   UNL d   1      27.430 -16.785   0.425  0.00  0.00    -0.309 N 
ATOM      2  C   UNL d   1      28.466 -16.789  -0.500  0.00  0.00     0.320 C 
ATOM      3  O   UNL d   1      28.354 -17.030  -1.701  0.00  0.00    -0.247 OA
ATOM      4  N   UNL d   1      29.723 -16.503  -0.008  0.00  0.00    -0.341 N 
ATOM      5  H   UNL d   1      27.651 -16.614   1.397  0.00  0.00     0.170 HD
ATOM      6  H   UNL d   1      29.881 -16.319   0.970  0.00  0.00     0.164 HD
ENDROOT
BRANCH   1   7
ATOM      7  C   UNL d   1      26.064 -17.118   0.116  0.00  0.00     0.036 A 
ATOM      8  C   UNL d   1      25.268 -16.291  -0.693  0.00  0.00     0.030 A 
ATOM      9  C   UNL d   1      23.891 -16.581  -0.896  0.00  0.00     0.019 A 
ATOM     10  C   UNL d   1      23.302 -17.730  -0.340  0.00  0.00     0.032 A 
ATOM     11  C   UNL d   1      24.101 -18.575   0.417  0.00  0.00     0.019 A 
ATOM     12  C   UNL d   1      25.452 -18.270   0.625  0.00  0.00     0.030 A 
BRANCH  10  13
ATOM     13  C   UNL d   1      21.904 -18.135  -0.671  0.00  0.00     0.251 C 
ATOM     14  N   UNL d   1      21.498 -19.411  -0.316  0.00  0.00    -0.353 N 
ATOM     15  H   UNL d   1      22.110 -20.001   0.230  0.00  0.00     0.163 HD
ATOM     16  O   UNL d   1      21.174 -17.336  -1.263  0.00  0.00    -0.268 OA
BRANCH  14  17
ATOM     17  C   UNL d   1      20.158 -19.865  -0.639  0.00  0.00     0.149 C 
BRANCH  17  18
ATOM     18  C   UNL d   1      19.332 -20.072   0.597  0.00  0.00    -0.018 C 
ATOM     19  C   UNL d   1      19.772 -19.735   1.820  0.00  0.00     0.008 C 
ENDBRANCH  17  18
ENDBRANCH  14  17
ENDBRANCH  10  13
ENDBRANCH   1   7
BRANCH   4  20
ATOM     20  C   UNL d   1      30.845 -16.469  -0.965  0.00  0.00     0.144 C 
BRANCH  20  21
ATOM     21  C   UNL d   1      31.545 -15.108  -1.095  0.00  0.00     0.139 C 
BRANCH  21  22
ATOM     22  N   UNL d   1      31.051 -14.317  -2.223  0.00  0.00    -0.388 N 
ATOM     23  H   UNL d   1      31.458 -13.400  -2.398  0.00  0.00     0.159 HD
BRANCH  22  24
ATOM     24  C   UNL d   1      29.832 -14.572  -2.836  0.00  0.00     0.028 A 
ATOM     25  C   UNL d   1      28.665 -14.005  -2.301  0.00  0.00     0.031 A 
ATOM     26  C   UNL d   1      27.406 -14.236  -2.876  0.00  0.00     0.038 A 
ATOM     27  C   UNL d   1      27.315 -14.997  -4.044  0.00  0.00     0.103 A 
ATOM     28  C   UNL d   1      28.461 -15.575  -4.595  0.00  0.00     0.038 A 
ATOM     29  C   UNL d   1      29.706 -15.352  -3.992  0.00  0.00     0.031 A 
BRANCH  27  30
ATOM     30  N   UNL d   1      26.024 -15.138  -4.732  0.00  0.00    -0.116 N 
ATOM     31  O   UNL d   1      25.994 -15.814  -5.770  0.00  0.00    -0.532 OA
ATOM     32  O   UNL d   1      25.035 -14.590  -4.222  0.00  0.00    -0.532 OA
ENDBRANCH  27  30
ENDBRANCH  22  24
ENDBRANCH  21  22
ENDBRANCH  20  21
ENDBRANCH   4  20
TORSDOF 9
ENDMDL
MODEL 5
REMARK VINA RESULT:    -8.579      3.786     10.186
REMARK INTER + INTRA:         -12.120
REMARK INTER:                 -11.264
REMARK INTRA:                  -0.856
REMARK CONF_INDEPENDENT:        2.685
REMARK UNBOUND:                -0.856
REMARK  9 active torsions:
REMARK  status: ('A' for Active; 'I' for Inactive)
REMARK    1  A    between atoms: C_2  and  C_3 
REMARK    2  A    between atoms: C_3  and  N_4 
REMARK       I    between atoms: N_4  and  C_5 
REMARK    3  A    between atoms: C_5  and  C_7 
REMARK    4  A    between atoms: C_10  and  N_11 
REMARK       I    between atoms: N_11  and  C_12 
REMARK       I    between atoms: C_12  and  N_14 
REMARK    5  A    between atoms: N_14  and  C_15 
REMARK    6  A    between atoms: C_15  and  C_16 
REMARK    7  A    between atoms: C_16  and  N_17 
REMARK    8  A    between atoms: N_17  and  C_18 
REMARK    9  A    between atoms: C_21  and  N_22 
ROOT
ATOM      1  N   UNL d   1      28.722 -14.780   3.367  0.00  0.00    -0.309 N 
ATOM      2  C   UNL d   1      27.892 -14.478   2.295  0.00  0.00     0.320 C 
ATOM      3  O   UNL d   1      27.017 -13.614   2.287  0.00  0.00    -0.247 OA
ATOM      4  N   UNL d   1      28.077 -15.227   1.152  0.00  0.00    -0.341 N 
ATOM      5  H   UNL d   1      29.378 -15.544   3.270  0.00  0.00     0.170 HD
ATOM      6  H   UNL d   1      28.763 -15.964   1.105  0.00  0.00     0.164 HD
ENDROOT
BRANCH   1   7
ATOM      7  C   UNL d   1      28.639 -14.152   4.660  0.00  0.00     0.036 A 
ATOM      8  C   UNL d   1      28.538 -12.757   4.797  0.00  0.00     0.030 A 
ATOM      9  C   UNL d   1      28.570 -12.150   6.082  0.00  0.00     0.019 A 
ATOM     10  C   UNL d   1      28.646 -12.927   7.250  0.00  0.00     0.032 A 
ATOM     11  C   UNL d   1      28.693 -14.307   7.117  0.00  0.00     0.019 A 
ATOM     12  C   UNL d   1      28.680 -14.895   5.846  0.00  0.00     0.030 A 
BRANCH  10  13
ATOM     13  C   UNL d   1      28.519 -12.319   8.608  0.00  0.00     0.251 C 
ATOM     14  N   UNL d   1      28.316 -13.171   9.682  0.00  0.00    -0.353 N 
ATOM     15  H   UNL d   1      28.348 -14.172   9.546  0.00  0.00     0.163 HD
ATOM     16  O   UNL d   1      28.576 -11.093   8.722  0.00  0.00    -0.268 OA
BRANCH  14  17
ATOM     17  C   UNL d   1      28.158 -12.630  11.019  0.00  0.00     0.149 C 
BRANCH  17  18
ATOM     18  C   UNL d   1      29.133 -13.246  11.982  0.00  0.00    -0.018 C 
ATOM     19  C   UNL d   1      30.273 -13.827  11.577  0.00  0.00     0.008 C 
ENDBRANCH  17  18
ENDBRANCH  14  17
ENDBRANCH  10  13
ENDBRANCH   1   7
BRANCH   4  20
ATOM     20  C   UNL d   1      27.235 -14.916  -0.019  0.00  0.00     0.144 C 
BRANCH  20  21
ATOM     21  C   UNL d   1      26.666 -16.139  -0.752  0.00  0.00     0.139 C 
BRANCH  21  22
ATOM     22  N   UNL d   1      25.929 -17.044   0.131  0.00  0.00    -0.388 N 
ATOM     23  H   UNL d   1      26.445 -17.598   0.811  0.00  0.00     0.159 HD
BRANCH  22  24
ATOM     24  C   UNL d   1      24.634 -17.462  -0.142  0.00  0.00     0.028 A 
ATOM     25  C   UNL d   1      23.663 -16.506  -0.481  0.00  0.00     0.031 A 
ATOM     26  C   UNL d   1      22.338 -16.873  -0.759  0.00  0.00     0.038 A 
ATOM     27  C   UNL d   1      21.986 -18.224  -0.761  0.00  0.00     0.103 A 
ATOM     28  C   UNL d   1      22.933 -19.195  -0.425  0.00  0.00     0.038 A 
ATOM     29  C   UNL d   1      24.245 -18.807  -0.126  0.00  0.00     0.031 A 
BRANCH  27  30
ATOM     30  N   UNL d   1      20.638 -18.634  -1.180  0.00  0.00    -0.116 N 
ATOM     31  O   UNL d   1      19.693 -17.885  -0.896  0.00  0.00    -0.532 OA
ATOM     32  O   UNL d   1      20.528 -19.695  -1.812  0.00  0.00    -0.532 OA
ENDBRANCH  27  30
ENDBRANCH  22  24
ENDBRANCH  21  22
ENDBRANCH  20  21
ENDBRANCH   4  20
TORSDOF 9
ENDMDL
MODEL 6
REMARK VINA RESULT:    -8.520      3.016      4.970
REMARK INTER + INTRA:         -13.048
REMARK INTER:                 -11.205
REMARK INTRA:                  -1.843
REMARK CONF_INDEPENDENT:        2.685
REMARK UNBOUND:                -1.843
REMARK  9 active torsions:
REMARK  status: ('A' for Active; 'I' for Inactive)
REMARK    1  A    between atoms: C_2  and  C_3 
REMARK    2  A    between atoms: C_3  and  N_4 
REMARK       I    between atoms: N_4  and  C_5 
REMARK    3  A    between atoms: C_5  and  C_7 
REMARK    4  A    between atoms: C_10  and  N_11 
REMARK       I    between atoms: N_11  and  C_12 
REMARK       I    between atoms: C_12  and  N_14 
REMARK    5  A    between atoms: N_14  and  C_15 
REMARK    6  A    between atoms: C_15  and  C_16 
REMARK    7  A    between atoms: C_16  and  N_17 
REMARK    8  A    between atoms: N_17  and  C_18 
REMARK    9  A    between atoms: C_21  and  N_22 
ROOT
ATOM      1  N   UNL d   1      26.961 -16.844  -0.121  0.00  0.00    -0.309 N 
ATOM      2  C   UNL d   1      27.403 -15.651   0.439  0.00  0.00     0.320 C 
ATOM      3  O   UNL d   1      26.690 -14.797   0.962  0.00  0.00    -0.247 OA
ATOM      4  N   UNL d   1      28.762 -15.422   0.390  0.00  0.00    -0.341 N 
ATOM      5  H   UNL d   1      27.640 -17.450  -0.561  0.00  0.00     0.170 HD
ATOM      6  H   UNL d   1      29.396 -16.075  -0.045  0.00  0.00     0.164 HD
ENDROOT
BRANCH   1   7
ATOM      7  C   UNL d   1      25.578 -17.230  -0.219  0.00  0.00     0.036 A 
ATOM      8  C   UNL d   1      25.154 -18.535   0.083  0.00  0.00     0.030 A 
ATOM      9  C   UNL d   1      23.803 -18.926  -0.128  0.00  0.00     0.019 A 
ATOM     10  C   UNL d   1      22.845 -18.007  -0.589  0.00  0.00     0.032 A 
ATOM     11  C   UNL d   1      23.253 -16.705  -0.838  0.00  0.00     0.019 A 
ATOM     12  C   UNL d   1      24.589 -16.334  -0.645  0.00  0.00     0.030 A 
BRANCH  10  13
ATOM     13  C   UNL d   1      21.396 -18.355  -0.663  0.00  0.00     0.251 C 
ATOM     14  N   UNL d   1      20.978 -19.526  -0.049  0.00  0.00    -0.353 N 
ATOM     15  H   UNL d   1      21.630 -20.065   0.503  0.00  0.00     0.163 HD
ATOM     16  O   UNL d   1      20.631 -17.609  -1.279  0.00  0.00    -0.268 OA
BRANCH  14  17
ATOM     17  C   UNL d   1      19.585 -19.925  -0.115  0.00  0.00     0.149 C 
BRANCH  17  18
ATOM     18  C   UNL d   1      19.265 -20.979   0.905  0.00  0.00    -0.018 C 
ATOM     19  C   UNL d   1      18.730 -20.683   2.101  0.00  0.00     0.008 C 
ENDBRANCH  17  18
ENDBRANCH  14  17
ENDBRANCH  10  13
ENDBRANCH   1   7
BRANCH   4  20
ATOM     20  C   UNL d   1      29.274 -14.181   1.001  0.00  0.00     0.144 C 
BRANCH  20  21
ATOM     21  C   UNL d   1      29.012 -12.903   0.191  0.00  0.00     0.139 C 
BRANCH  21  22
ATOM     22  N   UNL d   1      27.691 -12.884  -0.437  0.00  0.00    -0.388 N 
ATOM     23  H   UNL d   1      26.871 -12.723   0.144  0.00  0.00     0.159 HD
BRANCH  22  24
ATOM     24  C   UNL d   1      27.454 -13.428  -1.692  0.00  0.00     0.028 A 
ATOM     25  C   UNL d   1      28.545 -13.758  -2.512  0.00  0.00     0.031 A 
ATOM     26  C   UNL d   1      28.362 -14.304  -3.792  0.00  0.00     0.038 A 
ATOM     27  C   UNL d   1      27.069 -14.584  -4.240  0.00  0.00     0.103 A 
ATOM     28  C   UNL d   1      25.967 -14.263  -3.444  0.00  0.00     0.038 A 
ATOM     29  C   UNL d   1      26.169 -13.696  -2.179  0.00  0.00     0.031 A 
BRANCH  27  30
ATOM     30  N   UNL d   1      26.868 -15.276  -5.520  0.00  0.00    -0.116 N 
ATOM     31  O   UNL d   1      25.789 -15.858  -5.699  0.00  0.00    -0.532 OA
ATOM     32  O   UNL d   1      27.781 -15.219  -6.358  0.00  0.00    -0.532 OA
ENDBRANCH  27  30
ENDBRANCH  22  24
ENDBRANCH  21  22
ENDBRANCH  20  21
ENDBRANCH   4  20
TORSDOF 9
ENDMDL
MODEL 7
REMARK VINA RESULT:    -8.397      2.951      3.535
REMARK INTER + INTRA:         -12.365
REMARK INTER:                 -11.082
REMARK INTRA:                  -1.284
REMARK CONF_INDEPENDENT:        2.685
REMARK UNBOUND:                -1.284
REMARK  9 active torsions:
REMARK  status: ('A' for Active; 'I' for Inactive)
REMARK    1  A    between atoms: C_2  and  C_3 
REMARK    2  A    between atoms: C_3  and  N_4 
REMARK       I    between atoms: N_4  and  C_5 
REMARK    3  A    between atoms: C_5  and  C_7 
REMARK    4  A    between atoms: C_10  and  N_11 
REMARK       I    between atoms: N_11  and  C_12 
REMARK       I    between atoms: C_12  and  N_14 
REMARK    5  A    between atoms: N_14  and  C_15 
REMARK    6  A    between atoms: C_15  and  C_16 
REMARK    7  A    between atoms: C_16  and  N_17 
REMARK    8  A    between atoms: N_17  and  C_18 
REMARK    9  A    between atoms: C_21  and  N_22 
ROOT
ATOM      1  N   UNL d   1      27.079 -16.283  -0.749  0.00  0.00    -0.309 N 
ATOM      2  C   UNL d   1      27.806 -15.901   0.372  0.00  0.00     0.320 C 
ATOM      3  O   UNL d   1      27.425 -15.993   1.537  0.00  0.00    -0.247 OA
ATOM      4  N   UNL d   1      29.057 -15.372   0.136  0.00  0.00    -0.341 N 
ATOM      5  H   UNL d   1      27.480 -16.119  -1.663  0.00  0.00     0.170 HD
ATOM      6  H   UNL d   1      29.415 -15.251  -0.799  0.00  0.00     0.164 HD
ENDROOT
BRANCH   1   7
ATOM      7  C   UNL d   1      25.735 -16.797  -0.709  0.00  0.00     0.036 A 
ATOM      8  C   UNL d   1      25.448 -18.070  -0.189  0.00  0.00     0.030 A 
ATOM      9  C   UNL d   1      24.131 -18.603  -0.260  0.00  0.00     0.019 A 
ATOM     10  C   UNL d   1      23.073 -17.853  -0.801  0.00  0.00     0.032 A 
ATOM     11  C   UNL d   1      23.346 -16.576  -1.268  0.00  0.00     0.019 A 
ATOM     12  C   UNL d   1      24.650 -16.067  -1.210  0.00  0.00     0.030 A 
BRANCH  10  13
ATOM     13  C   UNL d   1      21.660 -18.331  -0.739  0.00  0.00     0.251 C 
ATOM     14  N   UNL d   1      21.419 -19.565  -0.155  0.00  0.00    -0.353 N 
ATOM     15  H   UNL d   1      22.174 -20.068   0.290  0.00  0.00     0.163 HD
ATOM     16  O   UNL d   1      20.769 -17.630  -1.222  0.00  0.00    -0.268 OA
BRANCH  14  17
ATOM     17  C   UNL d   1      20.068 -20.088  -0.093  0.00  0.00     0.149 C 
BRANCH  17  18
ATOM     18  C   UNL d   1      19.655 -20.385   1.319  0.00  0.00    -0.018 C 
ATOM     19  C   UNL d   1      18.415 -20.792   1.635  0.00  0.00     0.008 C 
ENDBRANCH  17  18
ENDBRANCH  14  17
ENDBRANCH  10  13
ENDBRANCH   1   7
BRANCH   4  20
ATOM     20  C   UNL d   1      29.871 -14.983   1.303  0.00  0.00     0.144 C 
BRANCH  20  21
ATOM     21  C   UNL d   1      29.175 -14.040   2.294  0.00  0.00     0.139 C 
BRANCH  21  22
ATOM     22  N   UNL d   1      28.712 -14.722   3.503  0.00  0.00    -0.388 N 
ATOM     23  H   UNL d   1      28.192 -15.592   3.411  0.00  0.00     0.159 HD
BRANCH  22  24
ATOM     24  C   UNL d   1      28.616 -14.081   4.730  0.00  0.00     0.028 A 
ATOM     25  C   UNL d   1      29.386 -14.546   5.808  0.00  0.00     0.031 A 
ATOM     26  C   UNL d   1      29.323 -13.939   7.072  0.00  0.00     0.038 A 
ATOM     27  C   UNL d   1      28.523 -12.808   7.250  0.00  0.00     0.103 A 
ATOM     28  C   UNL d   1      27.744 -12.327   6.195  0.00  0.00     0.038 A 
ATOM     29  C   UNL d   1      27.803 -12.961   4.947  0.00  0.00     0.031 A 
BRANCH  27  30
ATOM     30  N   UNL d   1      28.548 -12.084   8.528  0.00  0.00    -0.116 N 
ATOM     31  O   UNL d   1      28.104 -12.663   9.530  0.00  0.00    -0.532 OA
ATOM     32  O   UNL d   1      29.031 -10.942   8.535  0.00  0.00    -0.532 OA
ENDBRANCH  27  30
ENDBRANCH  22  24
ENDBRANCH  21  22
ENDBRANCH  20  21
ENDBRANCH   4  20
TORSDOF 9
ENDMDL
MODEL 8
REMARK VINA RESULT:    -8.321      5.520      8.520
REMARK INTER + INTRA:         -12.387
REMARK INTER:                 -11.006
REMARK INTRA:                  -1.381
REMARK CONF_INDEPENDENT:        2.685
REMARK UNBOUND:                -1.381
REMARK  9 active torsions:
REMARK  status: ('A' for Active; 'I' for Inactive)
REMARK    1  A    between atoms: C_2  and  C_3 
REMARK    2  A    between atoms: C_3  and  N_4 
REMARK       I    between atoms: N_4  and  C_5 
REMARK    3  A    between atoms: C_5  and  C_7 
REMARK    4  A    between atoms: C_10  and  N_11 
REMARK       I    between atoms: N_11  and  C_12 
REMARK       I    between atoms: C_12  and  N_14 
REMARK    5  A    between atoms: N_14  and  C_15 
REMARK    6  A    between atoms: C_15  and  C_16 
REMARK    7  A    between atoms: C_16  and  N_17 
REMARK    8  A    between atoms: N_17  and  C_18 
REMARK    9  A    between atoms: C_21  and  N_22 
ROOT
ATOM      1  N   UNL d   1      27.316 -17.081   0.150  0.00  0.00    -0.309 N 
ATOM      2  C   UNL d   1      28.251 -16.838  -0.849  0.00  0.00     0.320 C 
ATOM      3  O   UNL d   1      28.012 -16.768  -2.053  0.00  0.00    -0.247 OA
ATOM      4  N   UNL d   1      29.555 -16.670  -0.434  0.00  0.00    -0.341 N 
ATOM      5  H   UNL d   1      27.640 -17.159   1.105  0.00  0.00     0.170 HD
ATOM      6  H   UNL d   1      29.817 -16.737   0.537  0.00  0.00     0.164 HD
ENDROOT
BRANCH   1   7
ATOM      7  C   UNL d   1      25.921 -17.343  -0.090  0.00  0.00     0.036 A 
ATOM      8  C   UNL d   1      25.070 -16.366  -0.633  0.00  0.00     0.030 A 
ATOM      9  C   UNL d   1      23.675 -16.608  -0.758  0.00  0.00     0.019 A 
ATOM     10  C   UNL d   1      23.117 -17.846  -0.397  0.00  0.00     0.032 A 
ATOM     11  C   UNL d   1      23.966 -18.829   0.091  0.00  0.00     0.019 A 
ATOM     12  C   UNL d   1      25.336 -18.575   0.228  0.00  0.00     0.030 A 
BRANCH  10  13
ATOM     13  C   UNL d   1      21.687 -18.173  -0.670  0.00  0.00     0.251 C 
ATOM     14  N   UNL d   1      21.214 -19.408  -0.255  0.00  0.00    -0.353 N 
ATOM     15  H   UNL d   1      21.806 -20.016   0.294  0.00  0.00     0.163 HD
ATOM     16  O   UNL d   1      20.989 -17.352  -1.268  0.00  0.00    -0.268 OA
BRANCH  14  17
ATOM     17  C   UNL d   1      19.839 -19.787  -0.520  0.00  0.00     0.149 C 
BRANCH  17  18
ATOM     18  C   UNL d   1      19.100 -20.106   0.748  0.00  0.00    -0.018 C 
ATOM     19  C   UNL d   1      18.601 -21.327   1.000  0.00  0.00     0.008 C 
ENDBRANCH  17  18
ENDBRANCH  14  17
ENDBRANCH  10  13
ENDBRANCH   1   7
BRANCH   4  20
ATOM     20  C   UNL d   1      30.573 -16.380  -1.463  0.00  0.00     0.144 C 
BRANCH  20  21
ATOM     21  C   UNL d   1      30.753 -17.475  -2.523  0.00  0.00     0.139 C 
BRANCH  21  22
ATOM     22  N   UNL d   1      30.078 -17.168  -3.784  0.00  0.00    -0.388 N 
ATOM     23  H   UNL d   1      29.208 -16.639  -3.762  0.00  0.00     0.159 HD
BRANCH  22  24
ATOM     24  C   UNL d   1      30.347 -17.854  -4.960  0.00  0.00     0.028 A 
ATOM     25  C   UNL d   1      30.409 -19.256  -4.936  0.00  0.00     0.031 A 
ATOM     26  C   UNL d   1      30.685 -19.999  -6.094  0.00  0.00     0.038 A 
ATOM     27  C   UNL d   1      30.840 -19.336  -7.313  0.00  0.00     0.103 A 
ATOM     28  C   UNL d   1      30.786 -17.940  -7.365  0.00  0.00     0.038 A 
ATOM     29  C   UNL d   1      30.534 -17.215  -6.192  0.00  0.00     0.031 A 
BRANCH  27  30
ATOM     30  N   UNL d   1      30.997 -20.105  -8.555  0.00  0.00    -0.116 N 
ATOM     31  O   UNL d   1      30.402 -19.702  -9.564  0.00  0.00    -0.532 OA
ATOM     32  O   UNL d   1      31.734 -21.102  -8.528  0.00  0.00    -0.532 OA
ENDBRANCH  27  30
ENDBRANCH  22  24
ENDBRANCH  21  22
ENDBRANCH  20  21
ENDBRANCH   4  20
TORSDOF 9
ENDMDL
MODEL 9
REMARK VINA RESULT:    -7.923      3.384      9.643
REMARK INTER + INTRA:         -12.031
REMARK INTER:                 -10.608
REMARK INTRA:                  -1.423
REMARK CONF_INDEPENDENT:        2.685
REMARK UNBOUND:                -1.423
REMARK  9 active torsions:
REMARK  status: ('A' for Active; 'I' for Inactive)
REMARK    1  A    between atoms: C_2  and  C_3 
REMARK    2  A    between atoms: C_3  and  N_4 
REMARK       I    between atoms: N_4  and  C_5 
REMARK    3  A    between atoms: C_5  and  C_7 
REMARK    4  A    between atoms: C_10  and  N_11 
REMARK       I    between atoms: N_11  and  C_12 
REMARK       I    between atoms: C_12  and  N_14 
REMARK    5  A    between atoms: N_14  and  C_15 
REMARK    6  A    between atoms: C_15  and  C_16 
REMARK    7  A    between atoms: C_16  and  N_17 
REMARK    8  A    between atoms: N_17  and  C_18 
REMARK    9  A    between atoms: C_21  and  N_22 
ROOT
ATOM      1  N   UNL d   1      29.291 -14.654   1.869  0.00  0.00    -0.309 N 
ATOM      2  C   UNL d   1      28.247 -15.032   1.034  0.00  0.00     0.320 C 
ATOM      3  O   UNL d   1      27.058 -15.064   1.344  0.00  0.00    -0.247 OA
ATOM      4  N   UNL d   1      28.596 -15.406  -0.247  0.00  0.00    -0.341 N 
ATOM      5  H   UNL d   1      30.237 -14.709   1.514  0.00  0.00     0.170 HD
ATOM      6  H   UNL d   1      29.556 -15.422  -0.553  0.00  0.00     0.164 HD
ENDROOT
BRANCH   1   7
ATOM      7  C   UNL d   1      29.134 -14.292   3.253  0.00  0.00     0.036 A 
ATOM      8  C   UNL d   1      30.017 -14.756   4.242  0.00  0.00     0.030 A 
ATOM      9  C   UNL d   1      29.779 -14.477   5.616  0.00  0.00     0.019 A 
ATOM     10  C   UNL d   1      28.689 -13.686   6.018  0.00  0.00     0.032 A 
ATOM     11  C   UNL d   1      27.846 -13.185   5.037  0.00  0.00     0.019 A 
ATOM     12  C   UNL d   1      28.078 -13.480   3.688  0.00  0.00     0.030 A 
BRANCH  10  13
ATOM     13  C   UNL d   1      28.514 -13.252   7.435  0.00  0.00     0.251 C 
ATOM     14  N   UNL d   1      29.078 -14.039   8.428  0.00  0.00    -0.353 N 
ATOM     15  H   UNL d   1      29.662 -14.825   8.177  0.00  0.00     0.163 HD
ATOM     16  O   UNL d   1      27.864 -12.232   7.673  0.00  0.00    -0.268 OA
BRANCH  14  17
ATOM     17  C   UNL d   1      28.915 -13.677   9.823  0.00  0.00     0.149 C 
BRANCH  17  18
ATOM     18  C   UNL d   1      29.361 -14.783  10.735  0.00  0.00    -0.018 C 
ATOM     19  C   UNL d   1      30.250 -15.714  10.355  0.00  0.00     0.008 C 
ENDBRANCH  17  18
ENDBRANCH  14  17
ENDBRANCH  10  13
ENDBRANCH   1   7
BRANCH   4  20
ATOM     20  C   UNL d   1      27.511 -15.785  -1.173  0.00  0.00     0.144 C 
BRANCH  20  21
ATOM     21  C   UNL d   1      26.844 -17.135  -0.872  0.00  0.00     0.139 C 
BRANCH  21  22
ATOM     22  N   UNL d   1      25.745 -17.028   0.088  0.00  0.00    -0.388 N 
ATOM     23  H   UNL d   1      25.962 -16.887   1.073  0.00  0.00     0.159 HD
BRANCH  22  24
ATOM     24  C   UNL d   1      24.460 -17.468  -0.198  0.00  0.00     0.028 A 
ATOM     25  C   UNL d   1      23.474 -16.527  -0.534  0.00  0.00     0.031 A 
ATOM     26  C   UNL d   1      22.157 -16.916  -0.826  0.00  0.00     0.038 A 
ATOM     27  C   UNL d   1      21.831 -18.273  -0.843  0.00  0.00     0.103 A 
ATOM     28  C   UNL d   1      22.793 -19.230  -0.510  0.00  0.00     0.038 A 
ATOM     29  C   UNL d   1      24.097 -18.820  -0.198  0.00  0.00     0.031 A 
BRANCH  27  30
ATOM     30  N   UNL d   1      20.494 -18.704  -1.275  0.00  0.00    -0.116 N 
ATOM     31  O   UNL d   1      20.416 -19.701  -2.006  0.00  0.00    -0.532 OA
ATOM     32  O   UNL d   1      19.519 -18.057  -0.864  0.00  0.00    -0.532 OA
ENDBRANCH  27  30
ENDBRANCH  22  24
ENDBRANCH  21  22
ENDBRANCH  20  21
ENDBRANCH   4  20
TORSDOF 9
ENDMDL
