MODEL 1
REMARK VINA RESULT:   -31.252      0.000      0.000
REMARK INTER + INTRA:         -34.231
REMARK INTER:                 -33.340
REMARK INTRA:                  -0.891
REMARK CONF_INDEPENDENT:        2.088
REMARK UNBOUND:                -0.891
REMARK  7 active torsions:
REMARK  status: ('A' for Active; 'I' for Inactive)
REMARK    1  A    between atoms: C_2  and  C_3 
REMARK    2  A    between atoms: C_2  and  N_11 
REMARK    3  A    between atoms: C_3  and  C_4 
REMARK    4  A    between atoms: C_7  and  O_8 
REMARK       I    between atoms: N_11  and  C_12 
REMARK       I    between atoms: C_12  and  N_14 
REMARK    5  A    between atoms: N_14  and  N_15 
REMARK    6  A    between atoms: N_15  and  C_16 
REMARK    7  A    between atoms: C_19  and  N_20 
ROOT
ATOM      1  N   UNL d   1      27.660 -15.365   1.502  0.00  0.00    -0.338 N 
ATOM      2  C   UNL d   1      26.729 -15.463   0.485  0.00  0.00     0.331 C 
ATOM      3  O   UNL d   1      25.908 -14.577   0.238  0.00  0.00    -0.246 OA
ATOM      4  N   UNL d   1      26.796 -16.632  -0.257  0.00  0.00    -0.267 N 
ATOM      5  H   UNL d   1      28.232 -16.163   1.732  0.00  0.00     0.164 HD
ATOM      6  H   UNL d   1      27.488 -17.354  -0.111  0.00  0.00     0.186 HD
ENDROOT
BRANCH   1   7
ATOM      7  C   UNL d   1      27.670 -14.210   2.424  0.00  0.00     0.086 C 
ATOM      8  C   UNL d   1      28.503 -14.485   3.692  0.00  0.00     0.032 C 
BRANCH   7   9
ATOM      9  C   UNL d   1      28.198 -12.930   1.731  0.00  0.00     0.063 C 
BRANCH   9  10
ATOM     10  C   UNL d   1      27.825 -11.632   2.417  0.00  0.00    -0.056 A 
ATOM     11  C   UNL d   1      26.744 -10.844   1.983  0.00  0.00     0.010 A 
ATOM     12  C   UNL d   1      26.379  -9.686   2.667  0.00  0.00     0.037 A 
ATOM     13  C   UNL d   1      27.129  -9.284   3.763  0.00  0.00     0.065 A 
ATOM     14  C   UNL d   1      28.233 -10.019   4.177  0.00  0.00     0.037 A 
ATOM     15  C   UNL d   1      28.582 -11.192   3.509  0.00  0.00     0.010 A 
BRANCH  13  16
ATOM     16  O   UNL d   1      26.815  -8.162   4.469  0.00  0.00    -0.361 OA
ATOM     17  H   UNL d   1      26.417  -8.429   5.313  0.00  0.00     0.217 HD
ENDBRANCH  13  16
ENDBRANCH   9  10
ENDBRANCH   7   9
ENDBRANCH   1   7
BRANCH   4  18
ATOM     18  N   UNL d   1      25.802 -16.817  -1.277  0.00  0.00    -0.183 NA
ATOM     19  H   UNL d   1      26.194 -17.299  -2.092  0.00  0.00     0.154 HD
BRANCH  18  20
ATOM     20  C   UNL d   1      24.572 -17.401  -0.877  0.00  0.00     0.143 A 
ATOM     21  C   UNL d   1      23.462 -16.589  -0.670  0.00  0.00     0.051 A 
ATOM     22  C   UNL d   1      22.192 -17.143  -0.436  0.00  0.00     0.058 A 
ATOM     23  C   UNL d   1      22.066 -18.520  -0.347  0.00  0.00     0.172 A 
ATOM     24  N   UNL d   1      23.152 -19.309  -0.499  0.00  0.00    -0.129 NA
ATOM     25  N   UNL d   1      24.404 -18.739  -0.814  0.00  0.00    -0.135 NA
BRANCH  23  26
ATOM     26  N   UNL d   1      20.787 -19.099  -0.109  0.00  0.00    -0.225 N 
ATOM     27  C   UNL d   1      20.299 -19.569   1.099  0.00  0.00     0.122 A 
ATOM     28  C   UNL d   1      19.044 -20.081   0.858  0.00  0.00     0.040 A 
ATOM     29  C   UNL d   1      18.872 -19.943  -0.528  0.00  0.00     0.141 A 
ATOM     30  N   UNL d   1      19.900 -19.325  -1.115  0.00  0.00    -0.179 NA
ENDBRANCH  23  26
ENDBRANCH  18  20
ENDBRANCH   4  18
TORSDOF 7
ENDMDL
MODEL 2
REMARK VINA RESULT:   -31.245      2.191      2.979
REMARK INTER + INTRA:         -34.848
REMARK INTER:                 -33.333
REMARK INTRA:                  -1.516
REMARK CONF_INDEPENDENT:        2.088
REMARK UNBOUND:                -1.516
REMARK  7 active torsions:
REMARK  status: ('A' for Active; 'I' for Inactive)
REMARK    1  A    between atoms: C_2  and  C_3 
REMARK    2  A    between atoms: C_2  and  N_11 
REMARK    3  A    between atoms: C_3  and  C_4 
REMARK    4  A    between atoms: C_7  and  O_8 
REMARK       I    between atoms: N_11  and  C_12 
REMARK       I    between atoms: C_12  and  N_14 
REMARK    5  A    between atoms: N_14  and  N_15 
REMARK    6  A    between atoms: N_15  and  C_16 
REMARK    7  A    between atoms: C_19  and  N_20 
ROOT
ATOM      1  N   UNL d   1      26.990 -13.880   0.908  0.00  0.00    -0.338 N 
ATOM      2  C   UNL d   1      26.868 -15.183   0.461  0.00  0.00     0.331 C 
ATOM      3  O   UNL d   1      27.582 -16.103   0.870  0.00  0.00    -0.246 OA
ATOM      4  N   UNL d   1      25.867 -15.388  -0.475  0.00  0.00    -0.267 N 
ATOM      5  H   UNL d   1      26.460 -13.149   0.460  0.00  0.00     0.164 HD
ATOM      6  H   UNL d   1      25.236 -14.665  -0.793  0.00  0.00     0.186 HD
ENDROOT
BRANCH   1   7
ATOM      7  C   UNL d   1      28.056 -13.490   1.854  0.00  0.00     0.086 C 
ATOM      8  C   UNL d   1      29.170 -12.673   1.169  0.00  0.00     0.032 C 
BRANCH   7   9
ATOM      9  C   UNL d   1      27.492 -12.686   3.051  0.00  0.00     0.063 C 
BRANCH   9  10
ATOM     10  C   UNL d   1      27.967 -13.150   4.413  0.00  0.00    -0.056 A 
ATOM     11  C   UNL d   1      28.570 -14.405   4.604  0.00  0.00     0.010 A 
ATOM     12  C   UNL d   1      29.057 -14.786   5.854  0.00  0.00     0.037 A 
ATOM     13  C   UNL d   1      28.894 -13.928   6.931  0.00  0.00     0.065 A 
ATOM     14  C   UNL d   1      28.254 -12.704   6.776  0.00  0.00     0.037 A 
ATOM     15  C   UNL d   1      27.791 -12.312   5.521  0.00  0.00     0.010 A 
BRANCH  13  16
ATOM     16  O   UNL d   1      29.353 -14.249   8.173  0.00  0.00    -0.361 OA
ATOM     17  H   UNL d   1      29.551 -15.199   8.193  0.00  0.00     0.217 HD
ENDBRANCH  13  16
ENDBRANCH   9  10
ENDBRANCH   7   9
ENDBRANCH   1   7
BRANCH   4  18
ATOM     18  N   UNL d   1      25.749 -16.708  -1.028  0.00  0.00    -0.183 NA
ATOM     19  H   UNL d   1      26.497 -17.320  -0.686  0.00  0.00     0.154 HD
BRANCH  18  20
ATOM     20  C   UNL d   1      24.482 -17.338  -0.924  0.00  0.00     0.143 A 
ATOM     21  C   UNL d   1      24.406 -18.668  -0.523  0.00  0.00     0.051 A 
ATOM     22  C   UNL d   1      23.168 -19.273  -0.250  0.00  0.00     0.058 A 
ATOM     23  C   UNL d   1      22.006 -18.546  -0.449  0.00  0.00     0.172 A 
ATOM     24  N   UNL d   1      22.075 -17.269  -0.885  0.00  0.00    -0.129 NA
ATOM     25  N   UNL d   1      23.330 -16.651  -1.077  0.00  0.00    -0.135 NA
BRANCH  23  26
ATOM     26  N   UNL d   1      20.742 -19.144  -0.179  0.00  0.00    -0.225 N 
ATOM     27  C   UNL d   1      20.315 -19.678   1.026  0.00  0.00     0.122 A 
ATOM     28  C   UNL d   1      19.052 -20.184   0.820  0.00  0.00     0.040 A 
ATOM     29  C   UNL d   1      18.812 -19.975  -0.547  0.00  0.00     0.141 A 
ATOM     30  N   UNL d   1      19.808 -19.322  -1.150  0.00  0.00    -0.179 NA
ENDBRANCH  23  26
ENDBRANCH  18  20
ENDBRANCH   4  18
TORSDOF 7
ENDMDL
MODEL 3
REMARK VINA RESULT:   -31.106      4.347      5.226
REMARK INTER + INTRA:         -34.604
REMARK INTER:                 -33.194
REMARK INTRA:                  -1.410
REMARK CONF_INDEPENDENT:        2.088
REMARK UNBOUND:                -1.410
REMARK  7 active torsions:
REMARK  status: ('A' for Active; 'I' for Inactive)
REMARK    1  A    between atoms: C_2  and  C_3 
REMARK    2  A    between atoms: C_2  and  N_11 
REMARK    3  A    between atoms: C_3  and  C_4 
REMARK    4  A    between atoms: C_7  and  O_8 
REMARK       I    between atoms: N_11  and  C_12 
REMARK       I    between atoms: C_12  and  N_14 
REMARK    5  A    between atoms: N_14  and  N_15 
REMARK    6  A    between atoms: N_15  and  C_16 
REMARK    7  A    between atoms: C_19  and  N_20 
ROOT
ATOM      1  N   UNL d   1      27.144 -15.158  -3.837  0.00  0.00    -0.338 N 
ATOM      2  C   UNL d   1      26.391 -15.106  -2.679  0.00  0.00     0.331 C 
ATOM      3  O   UNL d   1      25.887 -14.063  -2.252  0.00  0.00    -0.246 OA
ATOM      4  N   UNL d   1      26.226 -16.321  -2.033  0.00  0.00    -0.267 N 
ATOM      5  H   UNL d   1      27.626 -16.010  -4.079  0.00  0.00     0.164 HD
ATOM      6  H   UNL d   1      26.585 -17.199  -2.384  0.00  0.00     0.186 HD
ENDROOT
BRANCH   1   7
ATOM      7  C   UNL d   1      27.467 -13.933  -4.598  0.00  0.00     0.086 C 
ATOM      8  C   UNL d   1      28.511 -14.194  -5.703  0.00  0.00     0.032 C 
BRANCH   7   9
ATOM      9  C   UNL d   1      26.201 -13.301  -5.228  0.00  0.00     0.063 C 
BRANCH   9  10
ATOM     10  C   UNL d   1      25.990 -11.837  -4.905  0.00  0.00    -0.056 A 
ATOM     11  C   UNL d   1      25.904 -10.857  -5.910  0.00  0.00     0.010 A 
ATOM     12  C   UNL d   1      25.646  -9.524  -5.592  0.00  0.00     0.037 A 
ATOM     13  C   UNL d   1      25.523  -9.158  -4.260  0.00  0.00     0.065 A 
ATOM     14  C   UNL d   1      25.657 -10.101  -3.248  0.00  0.00     0.037 A 
ATOM     15  C   UNL d   1      25.888 -11.439  -3.567  0.00  0.00     0.010 A 
BRANCH  13  16
ATOM     16  O   UNL d   1      25.269  -7.871  -3.895  0.00  0.00    -0.361 OA
ATOM     17  H   UNL d   1      24.408  -7.840  -3.446  0.00  0.00     0.217 HD
ENDBRANCH  13  16
ENDBRANCH   9  10
ENDBRANCH   7   9
ENDBRANCH   1   7
BRANCH   4  18
ATOM     18  N   UNL d   1      25.515 -16.308  -0.786  0.00  0.00    -0.183 NA
ATOM     19  H   UNL d   1      25.401 -15.352  -0.436  0.00  0.00     0.154 HD
BRANCH  18  20
ATOM     20  C   UNL d   1      24.292 -17.024  -0.735  0.00  0.00     0.143 A 
ATOM     21  C   UNL d   1      24.304 -18.388  -0.464  0.00  0.00     0.051 A 
ATOM     22  C   UNL d   1      23.110 -19.094  -0.243  0.00  0.00     0.058 A 
ATOM     23  C   UNL d   1      21.902 -18.427  -0.365  0.00  0.00     0.172 A 
ATOM     24  N   UNL d   1      21.886 -17.113  -0.678  0.00  0.00    -0.129 NA
ATOM     25  N   UNL d   1      23.097 -16.401  -0.816  0.00  0.00    -0.135 NA
BRANCH  23  26
ATOM     26  N   UNL d   1      20.681 -19.128  -0.147  0.00  0.00    -0.225 N 
ATOM     27  C   UNL d   1      20.277 -19.750   1.023  0.00  0.00     0.122 A 
ATOM     28  C   UNL d   1      19.058 -20.335   0.770  0.00  0.00     0.040 A 
ATOM     29  C   UNL d   1      18.823 -20.077  -0.589  0.00  0.00     0.141 A 
ATOM     30  N   UNL d   1      19.777 -19.325  -1.142  0.00  0.00    -0.179 NA
ENDBRANCH  23  26
ENDBRANCH  18  20
ENDBRANCH   4  18
TORSDOF 7
ENDMDL
MODEL 4
REMARK VINA RESULT:   -30.974      4.832      7.239
REMARK INTER + INTRA:         -34.586
REMARK INTER:                 -33.062
REMARK INTRA:                  -1.523
REMARK CONF_INDEPENDENT:        2.088
REMARK UNBOUND:                -1.523
REMARK  7 active torsions:
REMARK  status: ('A' for Active; 'I' for Inactive)
REMARK    1  A    between atoms: C_2  and  C_3 
REMARK    2  A    between atoms: C_2  and  N_11 
REMARK    3  A    between atoms: C_3  and  C_4 
REMARK    4  A    between atoms: C_7  and  O_8 
REMARK       I    between atoms: N_11  and  C_12 
REMARK       I    between atoms: C_12  and  N_14 
REMARK    5  A    between atoms: N_14  and  N_15 
REMARK    6  A    between atoms: N_15  and  C_16 
REMARK    7  A    between atoms: C_19  and  N_20 
ROOT
ATOM      1  N   UNL d   1      29.318 -17.732  -0.707  0.00  0.00    -0.338 N 
ATOM      2  C   UNL d   1      28.183 -17.119  -1.205  0.00  0.00     0.331 C 
ATOM      3  O   UNL d   1      28.200 -16.368  -2.184  0.00  0.00    -0.246 OA
ATOM      4  N   UNL d   1      27.011 -17.425  -0.532  0.00  0.00    -0.267 N 
ATOM      5  H   UNL d   1      29.266 -18.244   0.160  0.00  0.00     0.164 HD
ATOM      6  H   UNL d   1      26.957 -18.074   0.241  0.00  0.00     0.186 HD
ENDROOT
BRANCH   1   7
ATOM      7  C   UNL d   1      30.653 -17.451  -1.273  0.00  0.00     0.086 C 
ATOM      8  C   UNL d   1      31.593 -16.788  -0.246  0.00  0.00     0.032 C 
BRANCH   7   9
ATOM      9  C   UNL d   1      31.322 -18.734  -1.826  0.00  0.00     0.063 C 
BRANCH   9  10
ATOM     10  C   UNL d   1      31.035 -19.027  -3.284  0.00  0.00    -0.056 A 
ATOM     11  C   UNL d   1      31.142 -20.323  -3.818  0.00  0.00     0.010 A 
ATOM     12  C   UNL d   1      30.811 -20.581  -5.148  0.00  0.00     0.037 A 
ATOM     13  C   UNL d   1      30.419 -19.529  -5.963  0.00  0.00     0.065 A 
ATOM     14  C   UNL d   1      30.357 -18.231  -5.469  0.00  0.00     0.037 A 
ATOM     15  C   UNL d   1      30.662 -17.977  -4.132  0.00  0.00     0.010 A 
BRANCH  13  16
ATOM     16  O   UNL d   1      30.083 -19.725  -7.268  0.00  0.00    -0.361 OA
ATOM     17  H   UNL d   1      29.311 -20.313  -7.304  0.00  0.00     0.217 HD
ENDBRANCH  13  16
ENDBRANCH   9  10
ENDBRANCH   7   9
ENDBRANCH   1   7
BRANCH   4  18
ATOM     18  N   UNL d   1      25.816 -16.755  -0.963  0.00  0.00    -0.183 NA
ATOM     19  H   UNL d   1      25.865 -16.516  -1.958  0.00  0.00     0.154 HD
BRANCH  18  20
ATOM     20  C   UNL d   1      24.580 -17.376  -0.645  0.00  0.00     0.143 A 
ATOM     21  C   UNL d   1      23.399 -16.649  -0.746  0.00  0.00     0.051 A 
ATOM     22  C   UNL d   1      22.149 -17.272  -0.600  0.00  0.00     0.058 A 
ATOM     23  C   UNL d   1      22.103 -18.621  -0.285  0.00  0.00     0.172 A 
ATOM     24  N   UNL d   1      23.250 -19.319  -0.137  0.00  0.00    -0.129 NA
ATOM     25  N   UNL d   1      24.495 -18.695  -0.367  0.00  0.00    -0.135 NA
BRANCH  23  26
ATOM     26  N   UNL d   1      20.844 -19.269  -0.131  0.00  0.00    -0.225 N 
ATOM     27  C   UNL d   1      20.429 -20.033   0.947  0.00  0.00     0.122 A 
ATOM     28  C   UNL d   1      19.167 -20.497   0.653  0.00  0.00     0.040 A 
ATOM     29  C   UNL d   1      18.917 -20.025  -0.645  0.00  0.00     0.141 A 
ATOM     30  N   UNL d   1      19.905 -19.260  -1.114  0.00  0.00    -0.179 NA
ENDBRANCH  23  26
ENDBRANCH  18  20
ENDBRANCH   4  18
TORSDOF 7
ENDMDL
MODEL 5
REMARK VINA RESULT:   -30.910      4.786      6.333
REMARK INTER + INTRA:         -34.373
REMARK INTER:                 -32.998
REMARK INTRA:                  -1.375
REMARK CONF_INDEPENDENT:        2.088
REMARK UNBOUND:                -1.375
REMARK  7 active torsions:
REMARK  status: ('A' for Active; 'I' for Inactive)
REMARK    1  A    between atoms: C_2  and  C_3 
REMARK    2  A    between atoms: C_2  and  N_11 
REMARK    3  A    between atoms: C_3  and  C_4 
REMARK    4  A    between atoms: C_7  and  O_8 
REMARK       I    between atoms: N_11  and  C_12 
REMARK       I    between atoms: C_12  and  N_14 
REMARK    5  A    between atoms: N_14  and  N_15 
REMARK    6  A    between atoms: N_15  and  C_16 
REMARK    7  A    between atoms: C_19  and  N_20 
ROOT
ATOM      1  N   UNL d   1      29.040 -17.590  -0.754  0.00  0.00    -0.338 N 
ATOM      2  C   UNL d   1      27.908 -16.909  -1.160  0.00  0.00     0.331 C 
ATOM      3  O   UNL d   1      27.911 -16.090  -2.084  0.00  0.00    -0.246 OA
ATOM      4  N   UNL d   1      26.753 -17.225  -0.462  0.00  0.00    -0.267 N 
ATOM      5  H   UNL d   1      29.006 -18.161   0.076  0.00  0.00     0.164 HD
ATOM      6  H   UNL d   1      26.709 -17.925   0.266  0.00  0.00     0.186 HD
ENDROOT
BRANCH   1   7
ATOM      7  C   UNL d   1      30.361 -17.310  -1.356  0.00  0.00     0.086 C 
ATOM      8  C   UNL d   1      31.520 -17.661  -0.401  0.00  0.00     0.032 C 
BRANCH   7   9
ATOM      9  C   UNL d   1      30.552 -18.067  -2.694  0.00  0.00     0.063 C 
BRANCH   9  10
ATOM     10  C   UNL d   1      30.429 -17.209  -3.935  0.00  0.00    -0.056 A 
ATOM     11  C   UNL d   1      30.598 -17.739  -5.227  0.00  0.00     0.010 A 
ATOM     12  C   UNL d   1      30.417 -16.945  -6.358  0.00  0.00     0.037 A 
ATOM     13  C   UNL d   1      30.116 -15.600  -6.199  0.00  0.00     0.065 A 
ATOM     14  C   UNL d   1      29.996 -15.043  -4.931  0.00  0.00     0.037 A 
ATOM     15  C   UNL d   1      30.150 -15.844  -3.799  0.00  0.00     0.010 A 
BRANCH  13  16
ATOM     16  O   UNL d   1      29.927 -14.780  -7.270  0.00  0.00    -0.361 OA
ATOM     17  H   UNL d   1      29.341 -15.226  -7.902  0.00  0.00     0.217 HD
ENDBRANCH  13  16
ENDBRANCH   9  10
ENDBRANCH   7   9
ENDBRANCH   1   7
BRANCH   4  18
ATOM     18  N   UNL d   1      25.566 -16.489  -0.794  0.00  0.00    -0.183 NA
ATOM     19  H   UNL d   1      25.671 -16.004  -1.690  0.00  0.00     0.154 HD
BRANCH  18  20
ATOM     20  C   UNL d   1      24.336 -17.193  -0.732  0.00  0.00     0.143 A 
ATOM     21  C   UNL d   1      24.331 -18.539  -0.380  0.00  0.00     0.051 A 
ATOM     22  C   UNL d   1      23.127 -19.224  -0.147  0.00  0.00     0.058 A 
ATOM     23  C   UNL d   1      21.927 -18.558  -0.339  0.00  0.00     0.172 A 
ATOM     24  N   UNL d   1      21.928 -17.265  -0.730  0.00  0.00    -0.129 NA
ATOM     25  N   UNL d   1      23.148 -16.569  -0.880  0.00  0.00    -0.135 NA
BRANCH  23  26
ATOM     26  N   UNL d   1      20.696 -19.236  -0.110  0.00  0.00    -0.225 N 
ATOM     27  C   UNL d   1      20.341 -19.956   1.019  0.00  0.00     0.122 A 
ATOM     28  C   UNL d   1      19.087 -20.475   0.791  0.00  0.00     0.040 A 
ATOM     29  C   UNL d   1      18.779 -20.078  -0.520  0.00  0.00     0.141 A 
ATOM     30  N   UNL d   1      19.726 -19.307  -1.059  0.00  0.00    -0.179 NA
ENDBRANCH  23  26
ENDBRANCH  18  20
ENDBRANCH   4  18
TORSDOF 7
ENDMDL
MODEL 6
REMARK VINA RESULT:   -30.776      3.025      4.007
REMARK INTER + INTRA:         -34.337
REMARK INTER:                 -32.864
REMARK INTRA:                  -1.473
REMARK CONF_INDEPENDENT:        2.088
REMARK UNBOUND:                -1.473
REMARK  7 active torsions:
REMARK  status: ('A' for Active; 'I' for Inactive)
REMARK    1  A    between atoms: C_2  and  C_3 
REMARK    2  A    between atoms: C_2  and  N_11 
REMARK    3  A    between atoms: C_3  and  C_4 
REMARK    4  A    between atoms: C_7  and  O_8 
REMARK       I    between atoms: N_11  and  C_12 
REMARK       I    between atoms: C_12  and  N_14 
REMARK    5  A    between atoms: N_14  and  N_15 
REMARK    6  A    between atoms: N_15  and  C_16 
REMARK    7  A    between atoms: C_19  and  N_20 
ROOT
ATOM      1  N   UNL d   1      29.100 -17.599  -0.509  0.00  0.00    -0.338 N 
ATOM      2  C   UNL d   1      28.004 -16.998  -1.097  0.00  0.00     0.331 C 
ATOM      3  O   UNL d   1      28.062 -16.406  -2.178  0.00  0.00    -0.246 OA
ATOM      4  N   UNL d   1      26.819 -17.121  -0.388  0.00  0.00    -0.267 N 
ATOM      5  H   UNL d   1      29.023 -17.969   0.426  0.00  0.00     0.164 HD
ATOM      6  H   UNL d   1      26.730 -17.641   0.475  0.00  0.00     0.186 HD
ENDROOT
BRANCH   1   7
ATOM      7  C   UNL d   1      30.447 -17.493  -1.108  0.00  0.00     0.086 C 
ATOM      8  C   UNL d   1      30.456 -17.906  -2.593  0.00  0.00     0.032 C 
BRANCH   7   9
ATOM      9  C   UNL d   1      31.024 -16.062  -0.971  0.00  0.00     0.063 C 
BRANCH   9  10
ATOM     10  C   UNL d   1      30.915 -15.460   0.415  0.00  0.00    -0.056 A 
ATOM     11  C   UNL d   1      29.773 -14.756   0.834  0.00  0.00     0.010 A 
ATOM     12  C   UNL d   1      29.669 -14.265   2.135  0.00  0.00     0.037 A 
ATOM     13  C   UNL d   1      30.734 -14.434   3.008  0.00  0.00     0.065 A 
ATOM     14  C   UNL d   1      31.894 -15.080   2.598  0.00  0.00     0.037 A 
ATOM     15  C   UNL d   1      31.987 -15.595   1.305  0.00  0.00     0.010 A 
BRANCH  13  16
ATOM     16  O   UNL d   1      30.684 -13.976   4.290  0.00  0.00    -0.361 OA
ATOM     17  H   UNL d   1      31.527 -14.181   4.724  0.00  0.00     0.217 HD
ENDBRANCH  13  16
ENDBRANCH   9  10
ENDBRANCH   7   9
ENDBRANCH   1   7
BRANCH   4  18
ATOM     18  N   UNL d   1      25.666 -16.450  -0.919  0.00  0.00    -0.183 NA
ATOM     19  H   UNL d   1      25.839 -16.117  -1.872  0.00  0.00     0.154 HD
BRANCH  18  20
ATOM     20  C   UNL d   1      24.426 -17.134  -0.830  0.00  0.00     0.143 A 
ATOM     21  C   UNL d   1      24.407 -18.477  -0.470  0.00  0.00     0.051 A 
ATOM     22  C   UNL d   1      23.197 -19.141  -0.212  0.00  0.00     0.058 A 
ATOM     23  C   UNL d   1      22.004 -18.457  -0.385  0.00  0.00     0.172 A 
ATOM     24  N   UNL d   1      22.019 -17.167  -0.784  0.00  0.00    -0.129 NA
ATOM     25  N   UNL d   1      23.246 -16.492  -0.960  0.00  0.00    -0.135 NA
BRANCH  23  26
ATOM     26  N   UNL d   1      20.767 -19.115  -0.130  0.00  0.00    -0.225 N 
ATOM     27  C   UNL d   1      20.359 -19.682   1.066  0.00  0.00     0.122 A 
ATOM     28  C   UNL d   1      19.121 -20.242   0.846  0.00  0.00     0.040 A 
ATOM     29  C   UNL d   1      18.879 -20.029  -0.520  0.00  0.00     0.141 A 
ATOM     30  N   UNL d   1      19.848 -19.324  -1.109  0.00  0.00    -0.179 NA
ENDBRANCH  23  26
ENDBRANCH  18  20
ENDBRANCH   4  18
TORSDOF 7
ENDMDL
MODEL 7
REMARK VINA RESULT:   -30.682      4.235      5.173
REMARK INTER + INTRA:         -34.316
REMARK INTER:                 -32.770
REMARK INTRA:                  -1.545
REMARK CONF_INDEPENDENT:        2.088
REMARK UNBOUND:                -1.545
REMARK  7 active torsions:
REMARK  status: ('A' for Active; 'I' for Inactive)
REMARK    1  A    between atoms: C_2  and  C_3 
REMARK    2  A    between atoms: C_2  and  N_11 
REMARK    3  A    between atoms: C_3  and  C_4 
REMARK    4  A    between atoms: C_7  and  O_8 
REMARK       I    between atoms: N_11  and  C_12 
REMARK       I    between atoms: C_12  and  N_14 
REMARK    5  A    between atoms: N_14  and  N_15 
REMARK    6  A    between atoms: N_15  and  C_16 
REMARK    7  A    between atoms: C_19  and  N_20 
ROOT
ATOM      1  N   UNL d   1      28.852 -16.522  -2.098  0.00  0.00    -0.338 N 
ATOM      2  C   UNL d   1      27.861 -16.115  -1.225  0.00  0.00     0.331 C 
ATOM      3  O   UNL d   1      27.814 -14.979  -0.745  0.00  0.00    -0.246 OA
ATOM      4  N   UNL d   1      26.905 -17.076  -0.936  0.00  0.00    -0.267 N 
ATOM      5  H   UNL d   1      28.907 -17.491  -2.371  0.00  0.00     0.164 HD
ATOM      6  H   UNL d   1      26.890 -17.998  -1.351  0.00  0.00     0.186 HD
ENDROOT
BRANCH   1   7
ATOM      7  C   UNL d   1      29.980 -15.634  -2.447  0.00  0.00     0.086 C 
ATOM      8  C   UNL d   1      31.263 -16.424  -2.773  0.00  0.00     0.032 C 
BRANCH   7   9
ATOM      9  C   UNL d   1      29.632 -14.708  -3.640  0.00  0.00     0.063 C 
BRANCH   9  10
ATOM     10  C   UNL d   1      28.151 -14.476  -3.857  0.00  0.00    -0.056 A 
ATOM     11  C   UNL d   1      27.416 -15.198  -4.814  0.00  0.00     0.010 A 
ATOM     12  C   UNL d   1      26.041 -15.013  -4.953  0.00  0.00     0.037 A 
ATOM     13  C   UNL d   1      25.404 -14.065  -4.166  0.00  0.00     0.065 A 
ATOM     14  C   UNL d   1      26.121 -13.302  -3.250  0.00  0.00     0.037 A 
ATOM     15  C   UNL d   1      27.491 -13.506  -3.093  0.00  0.00     0.010 A 
BRANCH  13  16
ATOM     16  O   UNL d   1      24.063 -13.845  -4.260  0.00  0.00    -0.361 OA
ATOM     17  H   UNL d   1      23.763 -14.134  -5.136  0.00  0.00     0.217 HD
ENDBRANCH  13  16
ENDBRANCH   9  10
ENDBRANCH   7   9
ENDBRANCH   1   7
BRANCH   4  18
ATOM     18  N   UNL d   1      25.897 -16.728   0.025  0.00  0.00    -0.183 NA
ATOM     19  H   UNL d   1      25.825 -15.711   0.132  0.00  0.00     0.154 HD
BRANCH  18  20
ATOM     20  C   UNL d   1      24.618 -17.319  -0.142  0.00  0.00     0.143 A 
ATOM     21  C   UNL d   1      24.497 -18.705  -0.148  0.00  0.00     0.051 A 
ATOM     22  C   UNL d   1      23.236 -19.322  -0.145  0.00  0.00     0.058 A 
ATOM     23  C   UNL d   1      22.100 -18.531  -0.204  0.00  0.00     0.172 A 
ATOM     24  N   UNL d   1      22.216 -17.186  -0.249  0.00  0.00    -0.129 NA
ATOM     25  N   UNL d   1      23.488 -16.581  -0.169  0.00  0.00    -0.135 NA
BRANCH  23  26
ATOM     26  N   UNL d   1      20.812 -19.140  -0.204  0.00  0.00    -0.225 N 
ATOM     27  C   UNL d   1      20.335 -20.074   0.700  0.00  0.00     0.122 A 
ATOM     28  C   UNL d   1      19.065 -20.418   0.296  0.00  0.00     0.040 A 
ATOM     29  C   UNL d   1      18.873 -19.699  -0.895  0.00  0.00     0.141 A 
ATOM     30  N   UNL d   1      19.904 -18.903  -1.187  0.00  0.00    -0.179 NA
ENDBRANCH  23  26
ENDBRANCH  18  20
ENDBRANCH   4  18
TORSDOF 7
ENDMDL
MODEL 8
REMARK VINA RESULT:   -30.414      4.625      6.595
REMARK INTER + INTRA:         -33.998
REMARK INTER:                 -32.502
REMARK INTRA:                  -1.496
REMARK CONF_INDEPENDENT:        2.088
REMARK UNBOUND:                -1.496
REMARK  7 active torsions:
REMARK  status: ('A' for Active; 'I' for Inactive)
REMARK    1  A    between atoms: C_2  and  C_3 
REMARK    2  A    between atoms: C_2  and  N_11 
REMARK    3  A    between atoms: C_3  and  C_4 
REMARK    4  A    between atoms: C_7  and  O_8 
REMARK       I    between atoms: N_11  and  C_12 
REMARK       I    between atoms: C_12  and  N_14 
REMARK    5  A    between atoms: N_14  and  N_15 
REMARK    6  A    between atoms: N_15  and  C_16 
REMARK    7  A    between atoms: C_19  and  N_20 
ROOT
ATOM      1  N   UNL d   1      29.311 -17.506  -0.649  0.00  0.00    -0.338 N 
ATOM      2  C   UNL d   1      28.175 -16.901  -1.153  0.00  0.00     0.331 C 
ATOM      3  O   UNL d   1      28.208 -16.042  -2.038  0.00  0.00    -0.246 OA
ATOM      4  N   UNL d   1      26.983 -17.344  -0.602  0.00  0.00    -0.267 N 
ATOM      5  H   UNL d   1      29.236 -18.118   0.150  0.00  0.00     0.164 HD
ATOM      6  H   UNL d   1      26.920 -18.081   0.088  0.00  0.00     0.186 HD
ENDROOT
BRANCH   1   7
ATOM      7  C   UNL d   1      30.660 -17.091  -1.085  0.00  0.00     0.086 C 
ATOM      8  C   UNL d   1      31.369 -16.217  -0.031  0.00  0.00     0.032 C 
BRANCH   7   9
ATOM      9  C   UNL d   1      31.552 -18.311  -1.424  0.00  0.00     0.063 C 
BRANCH   9  10
ATOM     10  C   UNL d   1      31.602 -19.382  -0.355  0.00  0.00    -0.056 A 
ATOM     11  C   UNL d   1      32.437 -19.273   0.771  0.00  0.00     0.010 A 
ATOM     12  C   UNL d   1      32.420 -20.241   1.774  0.00  0.00     0.037 A 
ATOM     13  C   UNL d   1      31.601 -21.351   1.628  0.00  0.00     0.065 A 
ATOM     14  C   UNL d   1      30.806 -21.505   0.498  0.00  0.00     0.037 A 
ATOM     15  C   UNL d   1      30.804 -20.524  -0.493  0.00  0.00     0.010 A 
BRANCH  13  16
ATOM     16  O   UNL d   1      31.544 -22.325   2.579  0.00  0.00    -0.361 OA
ATOM     17  H   UNL d   1      32.438 -22.466   2.931  0.00  0.00     0.217 HD
ENDBRANCH  13  16
ENDBRANCH   9  10
ENDBRANCH   7   9
ENDBRANCH   1   7
BRANCH   4  18
ATOM     18  N   UNL d   1      25.779 -16.694  -1.037  0.00  0.00    -0.183 NA
ATOM     19  H   UNL d   1      25.815 -16.484  -2.040  0.00  0.00     0.154 HD
BRANCH  18  20
ATOM     20  C   UNL d   1      24.552 -17.311  -0.684  0.00  0.00     0.143 A 
ATOM     21  C   UNL d   1      23.353 -16.654  -0.944  0.00  0.00     0.051 A 
ATOM     22  C   UNL d   1      22.119 -17.300  -0.761  0.00  0.00     0.058 A 
ATOM     23  C   UNL d   1      22.102 -18.588  -0.253  0.00  0.00     0.172 A 
ATOM     24  N   UNL d   1      23.263 -19.210   0.047  0.00  0.00    -0.129 NA
ATOM     25  N   UNL d   1      24.497 -18.577  -0.219  0.00  0.00    -0.135 NA
BRANCH  23  26
ATOM     26  N   UNL d   1      20.860 -19.257  -0.060  0.00  0.00    -0.225 N 
ATOM     27  C   UNL d   1      20.478 -19.998   1.046  0.00  0.00     0.122 A 
ATOM     28  C   UNL d   1      19.222 -20.496   0.786  0.00  0.00     0.040 A 
ATOM     29  C   UNL d   1      18.941 -20.067  -0.520  0.00  0.00     0.141 A 
ATOM     30  N   UNL d   1      19.905 -19.295  -1.026  0.00  0.00    -0.179 NA
ENDBRANCH  23  26
ENDBRANCH  18  20
ENDBRANCH   4  18
TORSDOF 7
ENDMDL
MODEL 9
REMARK VINA RESULT:   -30.162      4.776      6.714
REMARK INTER + INTRA:         -33.922
REMARK INTER:                 -32.250
REMARK INTRA:                  -1.673
REMARK CONF_INDEPENDENT:        2.088
REMARK UNBOUND:                -1.673
REMARK  7 active torsions:
REMARK  status: ('A' for Active; 'I' for Inactive)
REMARK    1  A    between atoms: C_2  and  C_3 
REMARK    2  A    between atoms: C_2  and  N_11 
REMARK    3  A    between atoms: C_3  and  C_4 
REMARK    4  A    between atoms: C_7  and  O_8 
REMARK       I    between atoms: N_11  and  C_12 
REMARK       I    between atoms: C_12  and  N_14 
REMARK    5  A    between atoms: N_14  and  N_15 
REMARK    6  A    between atoms: N_15  and  C_16 
REMARK    7  A    between atoms: C_19  and  N_20 
ROOT
ATOM      1  N   UNL d   1      26.243 -14.550  -4.601  0.00  0.00    -0.338 N 
ATOM      2  C   UNL d   1      26.115 -14.889  -3.267  0.00  0.00     0.331 C 
ATOM      3  O   UNL d   1      26.412 -14.122  -2.347  0.00  0.00    -0.246 OA
ATOM      4  N   UNL d   1      25.609 -16.158  -3.032  0.00  0.00    -0.267 N 
ATOM      5  H   UNL d   1      26.094 -15.252  -5.309  0.00  0.00     0.164 HD
ATOM      6  H   UNL d   1      25.311 -16.790  -3.763  0.00  0.00     0.186 HD
ENDROOT
BRANCH   1   7
ATOM      7  C   UNL d   1      26.834 -13.259  -5.011  0.00  0.00     0.086 C 
ATOM      8  C   UNL d   1      26.212 -12.068  -4.254  0.00  0.00     0.032 C 
BRANCH   7   9
ATOM      9  C   UNL d   1      28.370 -13.245  -4.815  0.00  0.00     0.063 C 
BRANCH   9  10
ATOM     10  C   UNL d   1      29.073 -14.534  -5.184  0.00  0.00    -0.056 A 
ATOM     11  C   UNL d   1      29.447 -15.483  -4.216  0.00  0.00     0.010 A 
ATOM     12  C   UNL d   1      30.036 -16.692  -4.585  0.00  0.00     0.037 A 
ATOM     13  C   UNL d   1      30.299 -16.933  -5.926  0.00  0.00     0.065 A 
ATOM     14  C   UNL d   1      29.987 -15.987  -6.894  0.00  0.00     0.037 A 
ATOM     15  C   UNL d   1      29.373 -14.789  -6.528  0.00  0.00     0.010 A 
BRANCH  13  16
ATOM     16  O   UNL d   1      30.871 -18.098  -6.341  0.00  0.00    -0.361 OA
ATOM     17  H   UNL d   1      30.303 -18.836  -6.069  0.00  0.00     0.217 HD
ENDBRANCH  13  16
ENDBRANCH   9  10
ENDBRANCH   7   9
ENDBRANCH   1   7
BRANCH   4  18
ATOM     18  N   UNL d   1      25.527 -16.587  -1.664  0.00  0.00    -0.183 NA
ATOM     19  H   UNL d   1      25.675 -15.803  -1.022  0.00  0.00     0.154 HD
BRANCH  18  20
ATOM     20  C   UNL d   1      24.387 -17.346  -1.296  0.00  0.00     0.143 A 
ATOM     21  C   UNL d   1      23.715 -17.047  -0.115  0.00  0.00     0.051 A 
ATOM     22  C   UNL d   1      22.492 -17.664   0.199  0.00  0.00     0.058 A 
ATOM     23  C   UNL d   1      21.988 -18.632  -0.654  0.00  0.00     0.172 A 
ATOM     24  N   UNL d   1      22.665 -18.960  -1.777  0.00  0.00    -0.129 NA
ATOM     25  N   UNL d   1      23.850 -18.272  -2.118  0.00  0.00    -0.135 NA
BRANCH  23  26
ATOM     26  N   UNL d   1      20.751 -19.269  -0.351  0.00  0.00    -0.225 N 
ATOM     27  C   UNL d   1      20.434 -19.958   0.808  0.00  0.00     0.122 A 
ATOM     28  C   UNL d   1      19.154 -20.441   0.654  0.00  0.00     0.040 A 
ATOM     29  C   UNL d   1      18.792 -20.058  -0.647  0.00  0.00     0.141 A 
ATOM     30  N   UNL d   1      19.732 -19.325  -1.248  0.00  0.00    -0.179 NA
ENDBRANCH  23  26
ENDBRANCH  18  20
ENDBRANCH   4  18
TORSDOF 7
ENDMDL
