MODEL 1
REMARK VINA RESULT:    -7.765      0.000      0.000
REMARK INTER + INTRA:         -10.098
REMARK INTER:                  -8.958
REMARK INTRA:                  -1.139
REMARK CONF_INDEPENDENT:        1.193
REMARK UNBOUND:                -1.139
REMARK  4 active torsions:
REMARK  status: ('A' for Active; 'I' for Inactive)
REMARK    1  A    between atoms: C_5  and  C_6 
REMARK       I    between atoms: C_6  and  N_8 
REMARK    2  A    between atoms: N_8  and  N_9 
REMARK       I    between atoms: N_9  and  C_10 
REMARK    3  A    between atoms: C_10  and  C_12 
REMARK    4  A    between atoms: C_16  and  O_17 
ROOT
ATOM      1  C   UNL d   1      23.104 -17.316  -0.432  0.00  0.00     0.272 C 
ATOM      2  O   UNL d   1      22.271 -16.448  -0.703  0.00  0.00    -0.266 OA
ATOM      3  N   UNL d   1      22.764 -18.490   0.247  0.00  0.00    -0.263 N 
ATOM      4  H   UNL d   1      23.418 -19.227   0.493  0.00  0.00     0.190 HD
ENDROOT
BRANCH   1   5
ATOM      5  C   UNL d   1      24.542 -17.103  -0.854  0.00  0.00     0.066 A 
ATOM      6  C   UNL d   1      24.883 -16.282  -1.940  0.00  0.00     0.020 A 
ATOM      7  C   UNL d   1      26.225 -16.073  -2.309  0.00  0.00     0.008 A 
ATOM      8  C   UNL d   1      27.267 -16.672  -1.596  0.00  0.00    -0.059 A 
ATOM      9  C   UNL d   1      28.710 -16.450  -1.950  0.00  0.00     0.048 C 
ATOM     10  C   UNL d   1      26.943 -17.501  -0.520  0.00  0.00     0.044 A 
ATOM     11  C   UNL d   1      25.605 -17.720  -0.158  0.00  0.00     0.082 A 
BRANCH  11  12
ATOM     12  O   UNL d   1      25.437 -18.569   0.907  0.00  0.00    -0.360 OA
ATOM     13  H   UNL d   1      26.253 -18.550   1.449  0.00  0.00     0.217 HD
ENDBRANCH  11  12
ENDBRANCH   1   5
BRANCH   3  14
ATOM     14  N   UNL d   1      21.411 -18.744   0.612  0.00  0.00    -0.267 N 
ATOM     15  C   UNL d   1      20.534 -19.344  -0.286  0.00  0.00     0.240 C 
ATOM     16  O   UNL d   1      20.834 -19.652  -1.441  0.00  0.00    -0.271 OA
ATOM     17  H   UNL d   1      21.151 -18.533   1.572  0.00  0.00     0.190 HD
BRANCH  15  18
ATOM     18  C   UNL d   1      19.169 -19.626   0.281  0.00  0.00     0.083 A 
ATOM     19  C   UNL d   1      18.712 -19.499   1.729  0.00  0.00     0.019 A 
ATOM     20  C   UNL d   1      19.056 -20.855   1.188  0.00  0.00    -0.005 A 
ATOM     21  C   UNL d   1      18.068 -21.950   0.980  0.00  0.00     0.011 C 
ENDBRANCH  15  18
ENDBRANCH   3  14
TORSDOF 4
ENDMDL
MODEL 2
REMARK VINA RESULT:    -7.451      1.206      1.619
REMARK INTER + INTRA:         -10.313
REMARK INTER:                  -8.644
REMARK INTRA:                  -1.669
REMARK CONF_INDEPENDENT:        1.193
REMARK UNBOUND:                -1.669
REMARK  4 active torsions:
REMARK  status: ('A' for Active; 'I' for Inactive)
REMARK    1  A    between atoms: C_5  and  C_6 
REMARK       I    between atoms: C_6  and  N_8 
REMARK    2  A    between atoms: N_8  and  N_9 
REMARK       I    between atoms: N_9  and  C_10 
REMARK    3  A    between atoms: C_10  and  C_12 
REMARK    4  A    between atoms: C_16  and  O_17 
ROOT
ATOM      1  C   UNL d   1      23.852 -17.955  -0.152  0.00  0.00     0.272 C 
ATOM      2  O   UNL d   1      24.202 -18.301   0.979  0.00  0.00    -0.266 OA
ATOM      3  N   UNL d   1      22.654 -18.388  -0.728  0.00  0.00    -0.263 N 
ATOM      4  H   UNL d   1      22.331 -18.131  -1.656  0.00  0.00     0.190 HD
ENDROOT
BRANCH   1   5
ATOM      5  C   UNL d   1      24.750 -17.023  -0.939  0.00  0.00     0.066 A 
ATOM      6  C   UNL d   1      24.230 -16.022  -1.774  0.00  0.00     0.020 A 
ATOM      7  C   UNL d   1      25.075 -15.147  -2.483  0.00  0.00     0.008 A 
ATOM      8  C   UNL d   1      26.464 -15.241  -2.369  0.00  0.00    -0.059 A 
ATOM      9  C   UNL d   1      27.391 -14.308  -3.093  0.00  0.00     0.048 C 
ATOM     10  C   UNL d   1      26.995 -16.240  -1.550  0.00  0.00     0.044 A 
ATOM     11  C   UNL d   1      26.156 -17.122  -0.853  0.00  0.00     0.082 A 
BRANCH  11  12
ATOM     12  O   UNL d   1      26.817 -18.061  -0.103  0.00  0.00    -0.360 OA
ATOM     13  H   UNL d   1      26.351 -18.156   0.754  0.00  0.00     0.217 HD
ENDBRANCH  11  12
ENDBRANCH   1   5
BRANCH   3  14
ATOM     14  N   UNL d   1      21.764 -19.223   0.006  0.00  0.00    -0.267 N 
ATOM     15  C   UNL d   1      20.631 -19.758  -0.599  0.00  0.00     0.240 C 
ATOM     16  O   UNL d   1      20.297 -19.527  -1.762  0.00  0.00    -0.271 OA
ATOM     17  H   UNL d   1      22.039 -19.458   0.957  0.00  0.00     0.190 HD
BRANCH  15  18
ATOM     18  C   UNL d   1      19.844 -20.690   0.282  0.00  0.00     0.083 A 
ATOM     19  C   UNL d   1      18.329 -20.825   0.387  0.00  0.00     0.019 A 
ATOM     20  C   UNL d   1      19.067 -20.038   1.429  0.00  0.00    -0.005 A 
ATOM     21  C   UNL d   1      19.195 -20.450   2.855  0.00  0.00     0.011 C 
ENDBRANCH  15  18
ENDBRANCH   3  14
TORSDOF 4
ENDMDL
MODEL 3
REMARK VINA RESULT:    -7.146      1.344      7.559
REMARK INTER + INTRA:          -9.945
REMARK INTER:                  -8.339
REMARK INTRA:                  -1.606
REMARK CONF_INDEPENDENT:        1.193
REMARK UNBOUND:                -1.606
REMARK  4 active torsions:
REMARK  status: ('A' for Active; 'I' for Inactive)
REMARK    1  A    between atoms: C_5  and  C_6 
REMARK       I    between atoms: C_6  and  N_8 
REMARK    2  A    between atoms: N_8  and  N_9 
REMARK       I    between atoms: N_9  and  C_10 
REMARK    3  A    between atoms: C_10  and  C_12 
REMARK    4  A    between atoms: C_16  and  O_17 
ROOT
ATOM      1  C   UNL d   1      21.970 -18.300  -0.346  0.00  0.00     0.272 C 
ATOM      2  O   UNL d   1      21.710 -17.429  -1.181  0.00  0.00    -0.266 OA
ATOM      3  N   UNL d   1      23.271 -18.528   0.113  0.00  0.00    -0.263 N 
ATOM      4  H   UNL d   1      23.529 -19.235   0.795  0.00  0.00     0.190 HD
ENDROOT
BRANCH   1   5
ATOM      5  C   UNL d   1      20.840 -19.144   0.203  0.00  0.00     0.066 A 
ATOM      6  C   UNL d   1      20.658 -19.335   1.582  0.00  0.00     0.020 A 
ATOM      7  C   UNL d   1      19.590 -20.103   2.081  0.00  0.00     0.008 A 
ATOM      8  C   UNL d   1      18.666 -20.695   1.216  0.00  0.00    -0.059 A 
ATOM      9  C   UNL d   1      17.502 -21.500   1.718  0.00  0.00     0.048 C 
ATOM     10  C   UNL d   1      18.841 -20.523  -0.159  0.00  0.00     0.044 A 
ATOM     11  C   UNL d   1      19.912 -19.768  -0.660  0.00  0.00     0.082 A 
BRANCH  11  12
ATOM     12  O   UNL d   1      19.968 -19.700  -2.029  0.00  0.00    -0.360 OA
ATOM     13  H   UNL d   1      20.532 -18.939  -2.278  0.00  0.00     0.217 HD
ENDBRANCH  11  12
ENDBRANCH   1   5
BRANCH   3  14
ATOM     14  N   UNL d   1      24.349 -17.716  -0.345  0.00  0.00    -0.267 N 
ATOM     15  C   UNL d   1      25.613 -17.826   0.226  0.00  0.00     0.240 C 
ATOM     16  O   UNL d   1      25.881 -18.574   1.167  0.00  0.00    -0.271 OA
ATOM     17  H   UNL d   1      24.160 -17.118  -1.146  0.00  0.00     0.190 HD
BRANCH  15  18
ATOM     18  C   UNL d   1      26.661 -16.968  -0.428  0.00  0.00     0.083 A 
ATOM     19  C   UNL d   1      28.162 -16.958  -0.166  0.00  0.00     0.019 A 
ATOM     20  C   UNL d   1      27.305 -15.897   0.456  0.00  0.00    -0.005 A 
ATOM     21  C   UNL d   1      27.366 -14.453   0.096  0.00  0.00     0.011 C 
ENDBRANCH  15  18
ENDBRANCH   3  14
TORSDOF 4
ENDMDL
MODEL 4
REMARK VINA RESULT:    -7.101      1.289      2.311
REMARK INTER + INTRA:          -9.895
REMARK INTER:                  -8.294
REMARK INTRA:                  -1.601
REMARK CONF_INDEPENDENT:        1.193
REMARK UNBOUND:                -1.601
REMARK  4 active torsions:
REMARK  status: ('A' for Active; 'I' for Inactive)
REMARK    1  A    between atoms: C_5  and  C_6 
REMARK       I    between atoms: C_6  and  N_8 
REMARK    2  A    between atoms: N_8  and  N_9 
REMARK       I    between atoms: N_9  and  C_10 
REMARK    3  A    between atoms: C_10  and  C_12 
REMARK    4  A    between atoms: C_16  and  O_17 
ROOT
ATOM      1  C   UNL d   1      24.614 -17.895  -0.305  0.00  0.00     0.272 C 
ATOM      2  O   UNL d   1      25.016 -18.574   0.644  0.00  0.00    -0.266 OA
ATOM      3  N   UNL d   1      23.342 -18.068  -0.859  0.00  0.00    -0.263 N 
ATOM      4  H   UNL d   1      22.975 -17.534  -1.641  0.00  0.00     0.190 HD
ENDROOT
BRANCH   1   5
ATOM      5  C   UNL d   1      25.529 -16.836  -0.882  0.00  0.00     0.066 A 
ATOM      6  C   UNL d   1      26.919 -16.873  -0.694  0.00  0.00     0.020 A 
ATOM      7  C   UNL d   1      27.762 -15.895  -1.254  0.00  0.00     0.008 A 
ATOM      8  C   UNL d   1      27.239 -14.856  -2.028  0.00  0.00    -0.059 A 
ATOM      9  C   UNL d   1      28.113 -13.811  -2.660  0.00  0.00     0.048 C 
ATOM     10  C   UNL d   1      25.856 -14.800  -2.215  0.00  0.00     0.044 A 
ATOM     11  C   UNL d   1      25.013 -15.766  -1.647  0.00  0.00     0.082 A 
BRANCH  11  12
ATOM     12  O   UNL d   1      23.678 -15.574  -1.899  0.00  0.00    -0.360 OA
ATOM     13  H   UNL d   1      23.169 -15.883  -1.121  0.00  0.00     0.217 HD
ENDBRANCH  11  12
ENDBRANCH   1   5
BRANCH   3  14
ATOM     14  N   UNL d   1      22.439 -19.020  -0.306  0.00  0.00    -0.267 N 
ATOM     15  C   UNL d   1      21.077 -18.952  -0.584  0.00  0.00     0.240 C 
ATOM     16  O   UNL d   1      20.558 -18.070  -1.270  0.00  0.00    -0.271 OA
ATOM     17  H   UNL d   1      22.850 -19.779   0.232  0.00  0.00     0.190 HD
BRANCH  15  18
ATOM     18  C   UNL d   1      20.273 -20.081   0.000  0.00  0.00     0.083 A 
ATOM     19  C   UNL d   1      18.769 -20.311  -0.102  0.00  0.00     0.019 A 
ATOM     20  C   UNL d   1      19.334 -19.714   1.153  0.00  0.00    -0.005 A 
ATOM     21  C   UNL d   1      19.342 -20.399   2.476  0.00  0.00     0.011 C 
ENDBRANCH  15  18
ENDBRANCH   3  14
TORSDOF 4
ENDMDL
MODEL 5
REMARK VINA RESULT:    -7.055      1.583      7.379
REMARK INTER + INTRA:          -9.216
REMARK INTER:                  -8.248
REMARK INTRA:                  -0.968
REMARK CONF_INDEPENDENT:        1.193
REMARK UNBOUND:                -0.968
REMARK  4 active torsions:
REMARK  status: ('A' for Active; 'I' for Inactive)
REMARK    1  A    between atoms: C_5  and  C_6 
REMARK       I    between atoms: C_6  and  N_8 
REMARK    2  A    between atoms: N_8  and  N_9 
REMARK       I    between atoms: N_9  and  C_10 
REMARK    3  A    between atoms: C_10  and  C_12 
REMARK    4  A    between atoms: C_16  and  O_17 
ROOT
ATOM      1  C   UNL d   1      22.550 -18.310  -1.089  0.00  0.00     0.272 C 
ATOM      2  O   UNL d   1      23.071 -18.924  -2.024  0.00  0.00    -0.266 OA
ATOM      3  N   UNL d   1      22.978 -17.035  -0.705  0.00  0.00    -0.263 N 
ATOM      4  H   UNL d   1      22.580 -16.497   0.059  0.00  0.00     0.190 HD
ENDROOT
BRANCH   1   5
ATOM      5  C   UNL d   1      21.406 -18.956  -0.339  0.00  0.00     0.066 A 
ATOM      6  C   UNL d   1      21.339 -18.950   1.063  0.00  0.00     0.020 A 
ATOM      7  C   UNL d   1      20.258 -19.535   1.748  0.00  0.00     0.008 A 
ATOM      8  C   UNL d   1      19.206 -20.135   1.051  0.00  0.00    -0.059 A 
ATOM      9  C   UNL d   1      18.027 -20.746   1.753  0.00  0.00     0.048 C 
ATOM     10  C   UNL d   1      19.264 -20.158  -0.344  0.00  0.00     0.044 A 
ATOM     11  C   UNL d   1      20.347 -19.587  -1.030  0.00  0.00     0.082 A 
BRANCH  11  12
ATOM     12  O   UNL d   1      20.278 -19.700  -2.395  0.00  0.00    -0.360 OA
ATOM     13  H   UNL d   1      21.188 -19.649  -2.756  0.00  0.00     0.217 HD
ENDBRANCH  11  12
ENDBRANCH   1   5
BRANCH   3  14
ATOM     14  N   UNL d   1      24.017 -16.378  -1.423  0.00  0.00    -0.267 N 
ATOM     15  C   UNL d   1      25.354 -16.655  -1.152  0.00  0.00     0.240 C 
ATOM     16  O   UNL d   1      25.731 -17.431  -0.272  0.00  0.00    -0.271 OA
ATOM     17  H   UNL d   1      23.729 -15.761  -2.181  0.00  0.00     0.190 HD
BRANCH  15  18
ATOM     18  C   UNL d   1      26.325 -15.948  -2.057  0.00  0.00     0.083 A 
ATOM     19  C   UNL d   1      26.875 -14.533  -1.919  0.00  0.00     0.019 A 
ATOM     20  C   UNL d   1      25.758 -14.793  -2.886  0.00  0.00    -0.005 A 
ATOM     21  C   UNL d   1      25.891 -14.692  -4.366  0.00  0.00     0.011 C 
ENDBRANCH  15  18
ENDBRANCH   3  14
TORSDOF 4
ENDMDL
MODEL 6
REMARK VINA RESULT:    -6.157      3.435      4.995
REMARK INTER + INTRA:          -9.037
REMARK INTER:                  -7.350
REMARK INTRA:                  -1.687
REMARK CONF_INDEPENDENT:        1.193
REMARK UNBOUND:                -1.687
REMARK  4 active torsions:
REMARK  status: ('A' for Active; 'I' for Inactive)
REMARK    1  A    between atoms: C_5  and  C_6 
REMARK       I    between atoms: C_6  and  N_8 
REMARK    2  A    between atoms: N_8  and  N_9 
REMARK       I    between atoms: N_9  and  C_10 
REMARK    3  A    between atoms: C_10  and  C_12 
REMARK    4  A    between atoms: C_16  and  O_17 
ROOT
ATOM      1  C   UNL d   1      25.917 -15.440  -2.760  0.00  0.00     0.272 C 
ATOM      2  O   UNL d   1      26.753 -16.325  -2.555  0.00  0.00    -0.266 OA
ATOM      3  N   UNL d   1      24.607 -15.528  -2.280  0.00  0.00    -0.263 N 
ATOM      4  H   UNL d   1      23.888 -14.826  -2.429  0.00  0.00     0.190 HD
ENDROOT
BRANCH   1   5
ATOM      5  C   UNL d   1      26.329 -14.217  -3.550  0.00  0.00     0.066 A 
ATOM      6  C   UNL d   1      27.666 -13.796  -3.623  0.00  0.00     0.020 A 
ATOM      7  C   UNL d   1      28.040 -12.670  -4.381  0.00  0.00     0.008 A 
ATOM      8  C   UNL d   1      27.090 -11.938  -5.096  0.00  0.00    -0.059 A 
ATOM      9  C   UNL d   1      27.460 -10.747  -5.932  0.00  0.00     0.048 C 
ATOM     10  C   UNL d   1      25.753 -12.339  -5.024  0.00  0.00     0.044 A 
ATOM     11  C   UNL d   1      25.376 -13.453  -4.259  0.00  0.00     0.082 A 
BRANCH  11  12
ATOM     12  O   UNL d   1      24.030 -13.718  -4.268  0.00  0.00    -0.360 OA
ATOM     13  H   UNL d   1      23.625 -13.238  -5.020  0.00  0.00     0.217 HD
ENDBRANCH  11  12
ENDBRANCH   1   5
BRANCH   3  14
ATOM     14  N   UNL d   1      24.202 -16.641  -1.489  0.00  0.00    -0.267 N 
ATOM     15  C   UNL d   1      22.958 -16.655  -0.866  0.00  0.00     0.240 C 
ATOM     16  O   UNL d   1      22.155 -15.722  -0.911  0.00  0.00    -0.271 OA
ATOM     17  H   UNL d   1      24.833 -17.439  -1.468  0.00  0.00     0.190 HD
BRANCH  15  18
ATOM     18  C   UNL d   1      22.645 -17.937  -0.144  0.00  0.00     0.083 A 
ATOM     19  C   UNL d   1      23.069 -19.352  -0.520  0.00  0.00     0.019 A 
ATOM     20  C   UNL d   1      21.681 -18.892  -0.852  0.00  0.00    -0.005 A 
ATOM     21  C   UNL d   1      20.446 -19.438  -0.225  0.00  0.00     0.011 C 
ENDBRANCH  15  18
ENDBRANCH   3  14
TORSDOF 4
ENDMDL
MODEL 7
REMARK VINA RESULT:    -6.043      4.276      5.968
REMARK INTER + INTRA:          -8.910
REMARK INTER:                  -7.237
REMARK INTRA:                  -1.673
REMARK CONF_INDEPENDENT:        1.193
REMARK UNBOUND:                -1.673
REMARK  4 active torsions:
REMARK  status: ('A' for Active; 'I' for Inactive)
REMARK    1  A    between atoms: C_5  and  C_6 
REMARK       I    between atoms: C_6  and  N_8 
REMARK    2  A    between atoms: N_8  and  N_9 
REMARK       I    between atoms: N_9  and  C_10 
REMARK    3  A    between atoms: C_10  and  C_12 
REMARK    4  A    between atoms: C_16  and  O_17 
ROOT
ATOM      1  C   UNL d   1      25.405 -14.488  -4.096  0.00  0.00     0.272 C 
ATOM      2  O   UNL d   1      24.256 -14.072  -4.262  0.00  0.00    -0.266 OA
ATOM      3  N   UNL d   1      25.726 -15.418  -3.103  0.00  0.00    -0.263 N 
ATOM      4  H   UNL d   1      26.658 -15.783  -2.930  0.00  0.00     0.190 HD
ENDROOT
BRANCH   1   5
ATOM      5  C   UNL d   1      26.503 -13.979  -5.005  0.00  0.00     0.066 A 
ATOM      6  C   UNL d   1      27.503 -14.825  -5.509  0.00  0.00     0.020 A 
ATOM      7  C   UNL d   1      28.505 -14.344  -6.372  0.00  0.00     0.008 A 
ATOM      8  C   UNL d   1      28.531 -13.004  -6.765  0.00  0.00    -0.059 A 
ATOM      9  C   UNL d   1      29.572 -12.465  -7.704  0.00  0.00     0.048 C 
ATOM     10  C   UNL d   1      27.548 -12.147  -6.264  0.00  0.00     0.044 A 
ATOM     11  C   UNL d   1      26.555 -12.621  -5.393  0.00  0.00     0.082 A 
BRANCH  11  12
ATOM     12  O   UNL d   1      25.668 -11.665  -4.968  0.00  0.00    -0.360 OA
ATOM     13  H   UNL d   1      24.780 -12.073  -4.905  0.00  0.00     0.217 HD
ENDBRANCH  11  12
ENDBRANCH   1   5
BRANCH   3  14
ATOM     14  N   UNL d   1      24.708 -15.956  -2.265  0.00  0.00    -0.267 N 
ATOM     15  C   UNL d   1      25.004 -16.947  -1.334  0.00  0.00     0.240 C 
ATOM     16  O   UNL d   1      26.120 -17.450  -1.195  0.00  0.00    -0.271 OA
ATOM     17  H   UNL d   1      23.786 -15.530  -2.335  0.00  0.00     0.190 HD
BRANCH  15  18
ATOM     18  C   UNL d   1      23.841 -17.344  -0.466  0.00  0.00     0.083 A 
ATOM     19  C   UNL d   1      23.714 -18.572   0.428  0.00  0.00     0.019 A 
ATOM     20  C   UNL d   1      23.051 -18.575  -0.917  0.00  0.00    -0.005 A 
ATOM     21  C   UNL d   1      21.576 -18.583  -1.123  0.00  0.00     0.011 C 
ENDBRANCH  15  18
ENDBRANCH   3  14
TORSDOF 4
ENDMDL
MODEL 8
REMARK VINA RESULT:    -5.788      3.728      8.258
REMARK INTER + INTRA:          -8.552
REMARK INTER:                  -6.981
REMARK INTRA:                  -1.571
REMARK CONF_INDEPENDENT:        1.193
REMARK UNBOUND:                -1.571
REMARK  4 active torsions:
REMARK  status: ('A' for Active; 'I' for Inactive)
REMARK    1  A    between atoms: C_5  and  C_6 
REMARK       I    between atoms: C_6  and  N_8 
REMARK    2  A    between atoms: N_8  and  N_9 
REMARK       I    between atoms: N_9  and  C_10 
REMARK    3  A    between atoms: C_10  and  C_12 
REMARK    4  A    between atoms: C_16  and  O_17 
ROOT
ATOM      1  C   UNL d   1      26.059 -16.131  -1.637  0.00  0.00     0.272 C 
ATOM      2  O   UNL d   1      26.991 -15.834  -0.885  0.00  0.00    -0.266 OA
ATOM      3  N   UNL d   1      26.088 -15.850  -3.006  0.00  0.00    -0.263 N 
ATOM      4  H   UNL d   1      25.342 -16.073  -3.659  0.00  0.00     0.190 HD
ENDROOT
BRANCH   1   5
ATOM      5  C   UNL d   1      24.848 -16.829  -1.057  0.00  0.00     0.066 A 
ATOM      6  C   UNL d   1      23.544 -16.355  -1.271  0.00  0.00     0.020 A 
ATOM      7  C   UNL d   1      22.424 -17.026  -0.745  0.00  0.00     0.008 A 
ATOM      8  C   UNL d   1      22.574 -18.197   0.002  0.00  0.00    -0.059 A 
ATOM      9  C   UNL d   1      21.398 -18.949   0.556  0.00  0.00     0.048 C 
ATOM     10  C   UNL d   1      23.867 -18.675   0.232  0.00  0.00     0.044 A 
ATOM     11  C   UNL d   1      24.985 -18.001  -0.280  0.00  0.00     0.082 A 
BRANCH  11  12
ATOM     12  O   UNL d   1      26.190 -18.575   0.040  0.00  0.00    -0.360 OA
ATOM     13  H   UNL d   1      26.899 -17.922  -0.133  0.00  0.00     0.217 HD
ENDBRANCH  11  12
ENDBRANCH   1   5
BRANCH   3  14
ATOM     14  N   UNL d   1      27.234 -15.240  -3.592  0.00  0.00    -0.267 N 
ATOM     15  C   UNL d   1      27.350 -15.126  -4.974  0.00  0.00     0.240 C 
ATOM     16  O   UNL d   1      26.522 -15.565  -5.773  0.00  0.00    -0.271 OA
ATOM     17  H   UNL d   1      27.913 -14.837  -2.951  0.00  0.00     0.190 HD
BRANCH  15  18
ATOM     18  C   UNL d   1      28.573 -14.379  -5.430  0.00  0.00     0.083 A 
ATOM     19  C   UNL d   1      28.768 -13.600  -6.726  0.00  0.00     0.019 A 
ATOM     20  C   UNL d   1      29.332 -14.985  -6.613  0.00  0.00    -0.005 A 
ATOM     21  C   UNL d   1      30.789 -15.297  -6.591  0.00  0.00     0.011 C 
ENDBRANCH  15  18
ENDBRANCH   3  14
TORSDOF 4
ENDMDL
MODEL 9
REMARK VINA RESULT:    -5.479      5.535      8.751
REMARK INTER + INTRA:          -8.356
REMARK INTER:                  -6.673
REMARK INTRA:                  -1.683
REMARK CONF_INDEPENDENT:        1.193
REMARK UNBOUND:                -1.683
REMARK  4 active torsions:
REMARK  status: ('A' for Active; 'I' for Inactive)
REMARK    1  A    between atoms: C_5  and  C_6 
REMARK       I    between atoms: C_6  and  N_8 
REMARK    2  A    between atoms: N_8  and  N_9 
REMARK       I    between atoms: N_9  and  C_10 
REMARK    3  A    between atoms: C_10  and  C_12 
REMARK    4  A    between atoms: C_16  and  O_17 
ROOT
ATOM      1  C   UNL d   1      25.128 -14.137  -3.287  0.00  0.00     0.272 C 
ATOM      2  O   UNL d   1      24.431 -14.450  -4.255  0.00  0.00    -0.266 OA
ATOM      3  N   UNL d   1      25.646 -12.848  -3.126  0.00  0.00    -0.263 N 
ATOM      4  H   UNL d   1      26.226 -12.550  -2.348  0.00  0.00     0.190 HD
ENDROOT
BRANCH   1   5
ATOM      5  C   UNL d   1      25.426 -15.183  -2.235  0.00  0.00     0.066 A 
ATOM      6  C   UNL d   1      24.579 -16.282  -2.020  0.00  0.00     0.020 A 
ATOM      7  C   UNL d   1      24.878 -17.261  -1.054  0.00  0.00     0.008 A 
ATOM      8  C   UNL d   1      26.039 -17.176  -0.281  0.00  0.00    -0.059 A 
ATOM      9  C   UNL d   1      26.398 -18.217   0.740  0.00  0.00     0.048 C 
ATOM     10  C   UNL d   1      26.886 -16.082  -0.477  0.00  0.00     0.044 A 
ATOM     11  C   UNL d   1      26.583 -15.098  -1.430  0.00  0.00     0.082 A 
BRANCH  11  12
ATOM     12  O   UNL d   1      27.495 -14.076  -1.499  0.00  0.00    -0.360 OA
ATOM     13  H   UNL d   1      28.238 -14.282  -0.894  0.00  0.00     0.217 HD
ENDBRANCH  11  12
ENDBRANCH   1   5
BRANCH   3  14
ATOM     14  N   UNL d   1      25.341 -11.827  -4.071  0.00  0.00    -0.267 N 
ATOM     15  C   UNL d   1      25.877 -10.550  -3.935  0.00  0.00     0.240 C 
ATOM     16  O   UNL d   1      26.595 -10.201  -2.997  0.00  0.00    -0.271 OA
ATOM     17  H   UNL d   1      24.780 -12.102  -4.875  0.00  0.00     0.190 HD
BRANCH  15  18
ATOM     18  C   UNL d   1      25.533  -9.614  -5.062  0.00  0.00     0.083 A 
ATOM     19  C   UNL d   1      26.021  -8.186  -5.276  0.00  0.00     0.019 A 
ATOM     20  C   UNL d   1      24.656  -8.413  -4.698  0.00  0.00    -0.005 A 
ATOM     21  C   UNL d   1      23.384  -8.075  -5.395  0.00  0.00     0.011 C 
ENDBRANCH  15  18
ENDBRANCH   3  14
TORSDOF 4
ENDMDL
