MODEL 1
REMARK VINA RESULT:    -8.925      0.000      0.000
REMARK INTER + INTRA:         -10.515
REMARK INTER:                 -10.118
REMARK INTRA:                  -0.397
REMARK CONF_INDEPENDENT:        1.193
REMARK UNBOUND:                -0.397
REMARK  4 active torsions:
REMARK  status: ('A' for Active; 'I' for Inactive)
REMARK    1  A    between atoms: C_7  and  N_8 
REMARK    2  A    between atoms: C_17  and  C_18 
REMARK       I    between atoms: C_18  and  N_20 
REMARK    3  A    between atoms: N_20  and  C_21 
REMARK    4  A    between atoms: C_28  and  N_29 
ROOT
ATOM      1  C   UNL d   1      28.344 -11.496  -3.276  0.00  0.00     0.310 C 
ATOM      2  N   UNL d   1      27.850 -12.806  -2.851  0.00  0.00     0.088 N 
ATOM      3  C   UNL d   1      26.455 -12.675  -2.452  0.00  0.00     0.277 C 
ATOM      4  C   UNL d   1      25.910 -14.059  -2.200  0.00  0.00     0.070 C 
ATOM      5  C   UNL d   1      26.756 -14.923  -1.297  0.00  0.00    -0.029 A 
ATOM      6  C   UNL d   1      28.103 -14.569  -1.056  0.00  0.00     0.021 A 
ATOM      7  C   UNL d   1      28.916 -15.346  -0.194  0.00  0.00     0.113 A 
ATOM      8  N   UNL d   1      28.366 -16.473   0.334  0.00  0.00    -0.336 N 
ATOM      9  C   UNL d   1      27.054 -16.842   0.085  0.00  0.00     0.089 A 
ATOM     10  S   UNL d   1      26.220 -18.223   0.733  0.00  0.00    -0.064 SA
ATOM     11  C   UNL d   1      24.745 -17.865  -0.097  0.00  0.00     0.102 A 
ATOM     12  C   UNL d   1      24.917 -16.696  -0.827  0.00  0.00     0.062 A 
ATOM     13  C   UNL d   1      26.220 -16.098  -0.727  0.00  0.00     0.033 A 
ATOM     14  C   UNL d   1      28.635 -13.302  -1.716  0.00  0.00     0.315 C 
ATOM     15  H   UNL d   1      28.927 -17.022   0.978  0.00  0.00     0.168 HD
ENDROOT
BRANCH  11  16
ATOM     16  C   UNL d   1      23.471 -18.637  -0.103  0.00  0.00     0.265 C 
ATOM     17  O   UNL d   1      23.400 -19.667  -0.800  0.00  0.00    -0.267 OA
ATOM     18  N   UNL d   1      22.345 -18.216   0.606  0.00  0.00    -0.322 N 
ATOM     19  H   UNL d   1      22.300 -17.254   0.906  0.00  0.00     0.169 HD
BRANCH  18  20
ATOM     20  C   UNL d   1      21.113 -18.951   0.529  0.00  0.00     0.035 C 
ATOM     21  C   UNL d   1      20.470 -19.139  -0.700  0.00  0.00     0.031 C 
ATOM     22  C   UNL d   1      19.395 -20.041  -0.802  0.00  0.00     0.026 C 
ATOM     23  C   UNL d   1      18.788 -20.540   0.346  0.00  0.00     0.034 C 
ATOM     24 CL   UNL d   1      17.346 -21.472   0.230  0.00  0.00    -0.084 Cl
ATOM     25  C   UNL d   1      19.330 -20.249   1.591  0.00  0.00     0.026 C 
ATOM     26  C   UNL d   1      20.533 -19.530   1.671  0.00  0.00     0.031 C 
ENDBRANCH  18  20
ENDBRANCH  11  16
BRANCH  12  27
ATOM     27  N   UNL d   1      23.919 -16.170  -1.573  0.00  0.00    -0.397 N 
ATOM     28  H   UNL d   1      22.938 -16.251  -1.278  0.00  0.00     0.156 HD
ATOM     29  H   UNL d   1      23.980 -15.838  -2.526  0.00  0.00     0.156 HD
ENDBRANCH  12  27
BRANCH   7  30
ATOM     30  N   UNL d   1      30.182 -14.937   0.196  0.00  0.00    -0.363 N 
ATOM     31  C   UNL d   1      31.403 -15.430  -0.500  0.00  0.00     0.150 C 
ATOM     32  C   UNL d   1      32.401 -16.082   0.482  0.00  0.00     0.187 C 
ATOM     33  O   UNL d   1      32.740 -15.163   1.525  0.00  0.00    -0.388 OA
ATOM     34  C   UNL d   1      31.570 -14.802   2.276  0.00  0.00     0.187 C 
ATOM     35  C   UNL d   1      30.512 -14.103   1.378  0.00  0.00     0.150 C 
ENDBRANCH   7  30
TORSDOF 4
ENDMDL
MODEL 2
REMARK VINA RESULT:    -8.828      2.154      4.080
REMARK INTER + INTRA:         -10.970
REMARK INTER:                 -10.021
REMARK INTRA:                  -0.949
REMARK CONF_INDEPENDENT:        1.193
REMARK UNBOUND:                -0.949
REMARK  4 active torsions:
REMARK  status: ('A' for Active; 'I' for Inactive)
REMARK    1  A    between atoms: C_7  and  N_8 
REMARK    2  A    between atoms: C_17  and  C_18 
REMARK       I    between atoms: C_18  and  N_20 
REMARK    3  A    between atoms: N_20  and  C_21 
REMARK    4  A    between atoms: C_28  and  N_29 
ROOT
ATOM      1  C   UNL d   1      32.195 -15.494  -0.079  0.00  0.00     0.310 C 
ATOM      2  N   UNL d   1      30.735 -15.587  -0.100  0.00  0.00     0.088 N 
ATOM      3  C   UNL d   1      30.355 -16.990  -0.198  0.00  0.00     0.277 C 
ATOM      4  C   UNL d   1      28.859 -17.082  -0.028  0.00  0.00     0.070 C 
ATOM      5  C   UNL d   1      28.060 -16.140  -0.895  0.00  0.00    -0.029 A 
ATOM      6  C   UNL d   1      28.701 -15.034  -1.498  0.00  0.00     0.021 A 
ATOM      7  C   UNL d   1      27.983 -14.146  -2.337  0.00  0.00     0.113 A 
ATOM      8  N   UNL d   1      26.649 -14.366  -2.482  0.00  0.00    -0.336 N 
ATOM      9  C   UNL d   1      26.006 -15.434  -1.877  0.00  0.00     0.089 A 
ATOM     10  S   UNL d   1      24.325 -15.854  -2.020  0.00  0.00    -0.064 SA
ATOM     11  C   UNL d   1      24.461 -17.227  -0.976  0.00  0.00     0.102 A 
ATOM     12  C   UNL d   1      25.783 -17.343  -0.563  0.00  0.00     0.062 A 
ATOM     13  C   UNL d   1      26.673 -16.338  -1.073  0.00  0.00     0.033 A 
ATOM     14  C   UNL d   1      30.195 -14.857  -1.252  0.00  0.00     0.315 C 
ATOM     15  H   UNL d   1      26.129 -13.757  -3.105  0.00  0.00     0.168 HD
ENDROOT
BRANCH  11  16
ATOM     16  C   UNL d   1      23.392 -18.162  -0.526  0.00  0.00     0.265 C 
ATOM     17  O   UNL d   1      23.717 -19.302  -0.145  0.00  0.00    -0.267 OA
ATOM     18  N   UNL d   1      22.040 -17.818  -0.566  0.00  0.00    -0.322 N 
ATOM     19  H   UNL d   1      21.760 -17.041  -1.147  0.00  0.00     0.169 HD
BRANCH  18  20
ATOM     20  C   UNL d   1      21.030 -18.764  -0.183  0.00  0.00     0.035 C 
ATOM     21  C   UNL d   1      21.029 -19.325   1.100  0.00  0.00     0.031 C 
ATOM     22  C   UNL d   1      19.921 -20.071   1.542  0.00  0.00     0.026 C 
ATOM     23  C   UNL d   1      18.952 -20.490   0.634  0.00  0.00     0.034 C 
ATOM     24 CL   UNL d   1      17.712 -21.576   1.128  0.00  0.00    -0.084 Cl
ATOM     25  C   UNL d   1      19.013 -20.057  -0.683  0.00  0.00     0.026 C 
ATOM     26  C   UNL d   1      19.998 -19.133  -1.063  0.00  0.00     0.031 C 
ENDBRANCH  18  20
ENDBRANCH  11  16
BRANCH  12  27
ATOM     27  N   UNL d   1      26.186 -18.339   0.258  0.00  0.00    -0.397 N 
ATOM     28  H   UNL d   1      25.532 -19.069   0.567  0.00  0.00     0.156 HD
ATOM     29  H   UNL d   1      27.045 -18.380   0.790  0.00  0.00     0.156 HD
ENDBRANCH  12  27
BRANCH   7  30
ATOM     30  N   UNL d   1      28.614 -13.155  -3.074  0.00  0.00    -0.363 N 
ATOM     31  C   UNL d   1      28.192 -11.731  -2.975  0.00  0.00     0.150 C 
ATOM     32  C   UNL d   1      27.833 -11.139  -4.356  0.00  0.00     0.187 C 
ATOM     33  O   UNL d   1      28.934 -11.287  -5.258  0.00  0.00    -0.388 OA
ATOM     34  C   UNL d   1      29.241 -12.677  -5.451  0.00  0.00     0.187 C 
ATOM     35  C   UNL d   1      29.651 -13.359  -4.116  0.00  0.00     0.150 C 
ENDBRANCH   7  30
TORSDOF 4
ENDMDL
MODEL 3
REMARK VINA RESULT:    -8.663      2.048      3.702
REMARK INTER + INTRA:         -10.824
REMARK INTER:                  -9.856
REMARK INTRA:                  -0.968
REMARK CONF_INDEPENDENT:        1.193
REMARK UNBOUND:                -0.968
REMARK  4 active torsions:
REMARK  status: ('A' for Active; 'I' for Inactive)
REMARK    1  A    between atoms: C_7  and  N_8 
REMARK    2  A    between atoms: C_17  and  C_18 
REMARK       I    between atoms: C_18  and  N_20 
REMARK    3  A    between atoms: N_20  and  C_21 
REMARK    4  A    between atoms: C_28  and  N_29 
ROOT
ATOM      1  C   UNL d   1      32.334 -15.931  -0.360  0.00  0.00     0.310 C 
ATOM      2  N   UNL d   1      30.871 -15.975  -0.328  0.00  0.00     0.088 N 
ATOM      3  C   UNL d   1      30.437 -17.350  -0.534  0.00  0.00     0.277 C 
ATOM      4  C   UNL d   1      28.947 -17.408  -0.310  0.00  0.00     0.070 C 
ATOM      5  C   UNL d   1      28.149 -16.367  -1.056  0.00  0.00    -0.029 A 
ATOM      6  C   UNL d   1      28.806 -15.232  -1.585  0.00  0.00     0.021 A 
ATOM      7  C   UNL d   1      28.089 -14.249  -2.311  0.00  0.00     0.113 A 
ATOM      8  N   UNL d   1      26.742 -14.412  -2.418  0.00  0.00    -0.336 N 
ATOM      9  C   UNL d   1      26.085 -15.509  -1.884  0.00  0.00     0.089 A 
ATOM     10  S   UNL d   1      24.386 -15.859  -1.994  0.00  0.00    -0.064 SA
ATOM     11  C   UNL d   1      24.513 -17.324  -1.082  0.00  0.00     0.102 A 
ATOM     12  C   UNL d   1      25.844 -17.520  -0.737  0.00  0.00     0.062 A 
ATOM     13  C   UNL d   1      26.750 -16.503  -1.193  0.00  0.00     0.033 A 
ATOM     14  C   UNL d   1      30.314 -15.127  -1.387  0.00  0.00     0.315 C 
ATOM     15  H   UNL d   1      26.221 -13.733  -2.962  0.00  0.00     0.168 HD
ENDROOT
BRANCH  11  16
ATOM     16  C   UNL d   1      23.429 -18.261  -0.673  0.00  0.00     0.265 C 
ATOM     17  O   UNL d   1      23.706 -19.466  -0.521  0.00  0.00    -0.267 OA
ATOM     18  N   UNL d   1      22.109 -17.840  -0.504  0.00  0.00    -0.322 N 
ATOM     19  H   UNL d   1      21.829 -16.962  -0.916  0.00  0.00     0.169 HD
BRANCH  18  20
ATOM     20  C   UNL d   1      21.076 -18.780  -0.168  0.00  0.00     0.035 C 
ATOM     21  C   UNL d   1      20.999 -19.325   1.119  0.00  0.00     0.031 C 
ATOM     22  C   UNL d   1      19.866 -20.064   1.505  0.00  0.00     0.026 C 
ATOM     23  C   UNL d   1      18.950 -20.491   0.548  0.00  0.00     0.034 C 
ATOM     24 CL   UNL d   1      17.681 -21.569   0.982  0.00  0.00    -0.084 Cl
ATOM     25  C   UNL d   1      19.088 -20.075  -0.769  0.00  0.00     0.026 C 
ATOM     26  C   UNL d   1      20.096 -19.157  -1.102  0.00  0.00     0.031 C 
ENDBRANCH  18  20
ENDBRANCH  11  16
BRANCH  12  27
ATOM     27  N   UNL d   1      26.243 -18.599  -0.025  0.00  0.00    -0.397 N 
ATOM     28  H   UNL d   1      27.212 -18.938  -0.073  0.00  0.00     0.156 HD
ATOM     29  H   UNL d   1      25.652 -19.271   0.444  0.00  0.00     0.156 HD
ENDBRANCH  12  27
BRANCH   7  30
ATOM     30  N   UNL d   1      28.725 -13.217  -2.983  0.00  0.00    -0.363 N 
ATOM     31  C   UNL d   1      28.769 -13.175  -4.471  0.00  0.00     0.150 C 
ATOM     32  C   UNL d   1      30.217 -13.076  -5.000  0.00  0.00     0.187 C 
ATOM     33  O   UNL d   1      30.874 -11.938  -4.435  0.00  0.00    -0.388 OA
ATOM     34  C   UNL d   1      30.946 -12.060  -3.005  0.00  0.00     0.187 C 
ATOM     35  C   UNL d   1      29.530 -12.131  -2.369  0.00  0.00     0.150 C 
ENDBRANCH   7  30
TORSDOF 4
ENDMDL
MODEL 4
REMARK VINA RESULT:    -7.758      6.794      9.284
REMARK INTER + INTRA:          -9.937
REMARK INTER:                  -8.951
REMARK INTRA:                  -0.986
REMARK CONF_INDEPENDENT:        1.193
REMARK UNBOUND:                -0.986
REMARK  4 active torsions:
REMARK  status: ('A' for Active; 'I' for Inactive)
REMARK    1  A    between atoms: C_7  and  N_8 
REMARK    2  A    between atoms: C_17  and  C_18 
REMARK       I    between atoms: C_18  and  N_20 
REMARK    3  A    between atoms: N_20  and  C_21 
REMARK    4  A    between atoms: C_28  and  N_29 
ROOT
ATOM      1  C   UNL d   1      30.625  -8.585   9.437  0.00  0.00     0.310 C 
ATOM      2  N   UNL d   1      30.373  -9.613   8.426  0.00  0.00     0.088 N 
ATOM      3  C   UNL d   1      29.279  -9.172   7.571  0.00  0.00     0.277 C 
ATOM      4  C   UNL d   1      29.158 -10.148   6.427  0.00  0.00     0.070 C 
ATOM      5  C   UNL d   1      29.109 -11.601   6.832  0.00  0.00    -0.029 A 
ATOM      6  C   UNL d   1      29.531 -11.979   8.127  0.00  0.00     0.021 A 
ATOM      7  C   UNL d   1      29.474 -13.331   8.545  0.00  0.00     0.113 A 
ATOM      8  N   UNL d   1      29.060 -14.250   7.630  0.00  0.00    -0.336 N 
ATOM      9  C   UNL d   1      28.666 -13.893   6.351  0.00  0.00     0.089 A 
ATOM     10  S   UNL d   1      28.073 -14.957   5.110  0.00  0.00    -0.064 SA
ATOM     11  C   UNL d   1      27.867 -13.683   3.958  0.00  0.00     0.102 A 
ATOM     12  C   UNL d   1      28.234 -12.482   4.551  0.00  0.00     0.062 A 
ATOM     13  C   UNL d   1      28.681 -12.584   5.912  0.00  0.00     0.033 A 
ATOM     14  C   UNL d   1      30.006 -10.878   9.069  0.00  0.00     0.315 C 
ATOM     15  H   UNL d   1      28.984 -15.217   7.926  0.00  0.00     0.168 HD
ENDROOT
BRANCH  11  16
ATOM     16  C   UNL d   1      27.405 -13.775   2.544  0.00  0.00     0.265 C 
ATOM     17  O   UNL d   1      26.592 -12.929   2.125  0.00  0.00    -0.267 OA
ATOM     18  N   UNL d   1      27.815 -14.804   1.694  0.00  0.00    -0.322 N 
ATOM     19  H   UNL d   1      28.210 -15.637   2.106  0.00  0.00     0.169 HD
BRANCH  18  20
ATOM     20  C   UNL d   1      27.303 -14.898   0.355  0.00  0.00     0.035 C 
ATOM     21  C   UNL d   1      27.462 -13.837  -0.544  0.00  0.00     0.031 C 
ATOM     22  C   UNL d   1      27.163 -14.019  -1.907  0.00  0.00     0.026 C 
ATOM     23  C   UNL d   1      26.456 -15.143  -2.325  0.00  0.00     0.034 C 
ATOM     24 CL   UNL d   1      25.905 -15.266  -3.951  0.00  0.00    -0.084 Cl
ATOM     25  C   UNL d   1      26.163 -16.148  -1.413  0.00  0.00     0.026 C 
ATOM     26  C   UNL d   1      26.660 -16.060  -0.103  0.00  0.00     0.031 C 
ENDBRANCH  18  20
ENDBRANCH  11  16
BRANCH  12  27
ATOM     27  N   UNL d   1      28.166 -11.309   3.882  0.00  0.00    -0.397 N 
ATOM     28  H   UNL d   1      27.587 -11.212   3.037  0.00  0.00     0.156 HD
ATOM     29  H   UNL d   1      28.773 -10.508   3.993  0.00  0.00     0.156 HD
ENDBRANCH  12  27
BRANCH   7  30
ATOM     30  N   UNL d   1      29.720 -13.710   9.856  0.00  0.00    -0.363 N 
ATOM     31  C   UNL d   1      30.910 -14.532  10.213  0.00  0.00     0.150 C 
ATOM     32  C   UNL d   1      30.513 -15.820  10.967  0.00  0.00     0.187 C 
ATOM     33  O   UNL d   1      29.744 -15.497  12.129  0.00  0.00    -0.388 OA
ATOM     34  C   UNL d   1      28.530 -14.825  11.756  0.00  0.00     0.187 C 
ATOM     35  C   UNL d   1      28.823 -13.490  11.018  0.00  0.00     0.150 C 
ENDBRANCH   7  30
TORSDOF 4
ENDMDL
MODEL 5
REMARK VINA RESULT:    -7.433      5.798      9.457
REMARK INTER + INTRA:          -9.649
REMARK INTER:                  -8.626
REMARK INTRA:                  -1.023
REMARK CONF_INDEPENDENT:        1.193
REMARK UNBOUND:                -1.023
REMARK  4 active torsions:
REMARK  status: ('A' for Active; 'I' for Inactive)
REMARK    1  A    between atoms: C_7  and  N_8 
REMARK    2  A    between atoms: C_17  and  C_18 
REMARK       I    between atoms: C_18  and  N_20 
REMARK    3  A    between atoms: N_20  and  C_21 
REMARK    4  A    between atoms: C_28  and  N_29 
ROOT
ATOM      1  C   UNL d   1      30.619 -16.511  -2.832  0.00  0.00     0.310 C 
ATOM      2  N   UNL d   1      30.263 -15.751  -1.633  0.00  0.00     0.088 N 
ATOM      3  C   UNL d   1      30.652 -16.517  -0.457  0.00  0.00     0.277 C 
ATOM      4  C   UNL d   1      30.453 -15.644   0.756  0.00  0.00     0.070 C 
ATOM      5  C   UNL d   1      29.103 -14.976   0.846  0.00  0.00    -0.029 A 
ATOM      6  C   UNL d   1      28.288 -14.893  -0.306  0.00  0.00     0.021 A 
ATOM      7  C   UNL d   1      27.006 -14.293  -0.248  0.00  0.00     0.113 A 
ATOM      8  N   UNL d   1      26.625 -13.748   0.940  0.00  0.00    -0.336 N 
ATOM      9  C   UNL d   1      27.425 -13.805   2.069  0.00  0.00     0.089 A 
ATOM     10  S   UNL d   1      27.037 -13.195   3.651  0.00  0.00    -0.064 SA
ATOM     11  C   UNL d   1      28.547 -13.689   4.336  0.00  0.00     0.102 A 
ATOM     12  C   UNL d   1      29.297 -14.322   3.352  0.00  0.00     0.062 A 
ATOM     13  C   UNL d   1      28.670 -14.403   2.063  0.00  0.00     0.033 A 
ATOM     14  C   UNL d   1      28.817 -15.508  -1.597  0.00  0.00     0.315 C 
ATOM     15  H   UNL d   1      25.696 -13.344   1.004  0.00  0.00     0.168 HD
ENDROOT
BRANCH  11  16
ATOM     16  C   UNL d   1      29.048 -13.488   5.724  0.00  0.00     0.265 C 
ATOM     17  O   UNL d   1      29.977 -14.210   6.135  0.00  0.00    -0.267 OA
ATOM     18  N   UNL d   1      28.477 -12.555   6.592  0.00  0.00    -0.322 N 
ATOM     19  H   UNL d   1      27.555 -12.203   6.377  0.00  0.00     0.169 HD
BRANCH  18  20
ATOM     20  C   UNL d   1      28.943 -12.429   7.945  0.00  0.00     0.035 C 
ATOM     21  C   UNL d   1      30.188 -11.852   8.218  0.00  0.00     0.031 C 
ATOM     22  C   UNL d   1      30.538 -11.528   9.542  0.00  0.00     0.026 C 
ATOM     23  C   UNL d   1      29.787 -12.020  10.606  0.00  0.00     0.034 C 
ATOM     24 CL   UNL d   1      30.330 -11.804  12.224  0.00  0.00    -0.084 Cl
ATOM     25  C   UNL d   1      28.616 -12.721  10.353  0.00  0.00     0.026 C 
ATOM     26  C   UNL d   1      28.157 -12.847   9.032  0.00  0.00     0.031 C 
ENDBRANCH  18  20
ENDBRANCH  11  16
BRANCH  12  27
ATOM     27  N   UNL d   1      30.527 -14.823   3.608  0.00  0.00    -0.397 N 
ATOM     28  H   UNL d   1      30.858 -15.680   3.147  0.00  0.00     0.156 HD
ATOM     29  H   UNL d   1      31.146 -14.562   4.364  0.00  0.00     0.156 HD
ENDBRANCH  12  27
BRANCH   7  30
ATOM     30  N   UNL d   1      26.118 -14.344  -1.311  0.00  0.00    -0.363 N 
ATOM     31  C   UNL d   1      25.322 -15.570  -1.596  0.00  0.00     0.150 C 
ATOM     32  C   UNL d   1      25.531 -16.068  -3.043  0.00  0.00     0.187 C 
ATOM     33  O   UNL d   1      25.221 -15.027  -3.974  0.00  0.00    -0.388 OA
ATOM     34  C   UNL d   1      26.091 -13.901  -3.776  0.00  0.00     0.187 C 
ATOM     35  C   UNL d   1      25.929 -13.302  -2.351  0.00  0.00     0.150 C 
ENDBRANCH   7  30
TORSDOF 4
ENDMDL
MODEL 6
REMARK VINA RESULT:    -6.968      6.065      9.041
REMARK INTER + INTRA:          -9.134
REMARK INTER:                  -8.161
REMARK INTRA:                  -0.973
REMARK CONF_INDEPENDENT:        1.193
REMARK UNBOUND:                -0.973
REMARK  4 active torsions:
REMARK  status: ('A' for Active; 'I' for Inactive)
REMARK    1  A    between atoms: C_7  and  N_8 
REMARK    2  A    between atoms: C_17  and  C_18 
REMARK       I    between atoms: C_18  and  N_20 
REMARK    3  A    between atoms: N_20  and  C_21 
REMARK    4  A    between atoms: C_28  and  N_29 
ROOT
ATOM      1  C   UNL d   1      33.748 -10.470   8.233  0.00  0.00     0.310 C 
ATOM      2  N   UNL d   1      32.944 -11.350   7.385  0.00  0.00     0.088 N 
ATOM      3  C   UNL d   1      32.314 -10.552   6.343  0.00  0.00     0.277 C 
ATOM      4  C   UNL d   1      31.647 -11.494   5.372  0.00  0.00     0.070 C 
ATOM      5  C   UNL d   1      30.758 -12.537   6.004  0.00  0.00    -0.029 A 
ATOM      6  C   UNL d   1      30.880 -12.812   7.385  0.00  0.00     0.021 A 
ATOM      7  C   UNL d   1      30.044 -13.768   8.013  0.00  0.00     0.113 A 
ATOM      8  N   UNL d   1      29.172 -14.450   7.221  0.00  0.00    -0.336 N 
ATOM      9  C   UNL d   1      29.061 -14.205   5.862  0.00  0.00     0.089 A 
ATOM     10  S   UNL d   1      27.960 -14.967   4.754  0.00  0.00    -0.064 SA
ATOM     11  C   UNL d   1      28.537 -14.075   3.388  0.00  0.00     0.102 A 
ATOM     12  C   UNL d   1      29.536 -13.207   3.813  0.00  0.00     0.062 A 
ATOM     13  C   UNL d   1      29.838 -13.263   5.216  0.00  0.00     0.033 A 
ATOM     14  C   UNL d   1      31.906 -12.014   8.181  0.00  0.00     0.315 C 
ATOM     15  H   UNL d   1      28.545 -15.115   7.662  0.00  0.00     0.168 HD
ENDROOT
BRANCH  11  16
ATOM     16  C   UNL d   1      28.110 -14.175   1.965  0.00  0.00     0.265 C 
ATOM     17  O   UNL d   1      27.868 -13.126   1.338  0.00  0.00    -0.267 OA
ATOM     18  N   UNL d   1      27.926 -15.405   1.329  0.00  0.00    -0.322 N 
ATOM     19  H   UNL d   1      27.820 -16.229   1.902  0.00  0.00     0.169 HD
BRANCH  18  20
ATOM     20  C   UNL d   1      27.455 -15.467  -0.026  0.00  0.00     0.035 C 
ATOM     21  C   UNL d   1      26.097 -15.667  -0.299  0.00  0.00     0.031 C 
ATOM     22  C   UNL d   1      25.610 -15.503  -1.609  0.00  0.00     0.026 C 
ATOM     23  C   UNL d   1      26.495 -15.417  -2.679  0.00  0.00     0.034 C 
ATOM     24 CL   UNL d   1      25.906 -15.430  -4.296  0.00  0.00    -0.084 Cl
ATOM     25  C   UNL d   1      27.861 -15.359  -2.437  0.00  0.00     0.026 C 
ATOM     26  C   UNL d   1      28.327 -15.299  -1.115  0.00  0.00     0.031 C 
ENDBRANCH  18  20
ENDBRANCH  11  16
BRANCH  12  27
ATOM     27  N   UNL d   1      30.166 -12.374   2.954  0.00  0.00    -0.397 N 
ATOM     28  H   UNL d   1      29.750 -12.135   2.045  0.00  0.00     0.156 HD
ATOM     29  H   UNL d   1      31.128 -12.067   2.999  0.00  0.00     0.156 HD
ENDBRANCH  12  27
BRANCH   7  30
ATOM     30  N   UNL d   1      30.021 -13.940   9.388  0.00  0.00    -0.363 N 
ATOM     31  C   UNL d   1      31.047 -14.767  10.082  0.00  0.00     0.150 C 
ATOM     32  C   UNL d   1      30.405 -15.883  10.935  0.00  0.00     0.187 C 
ATOM     33  O   UNL d   1      29.480 -15.321  11.870  0.00  0.00    -0.388 OA
ATOM     34  C   UNL d   1      28.418 -14.642  11.180  0.00  0.00     0.187 C 
ATOM     35  C   UNL d   1      28.961 -13.471  10.316  0.00  0.00     0.150 C 
ENDBRANCH   7  30
TORSDOF 4
ENDMDL
MODEL 7
REMARK VINA RESULT:    -6.743      2.850      4.736
REMARK INTER + INTRA:          -8.563
REMARK INTER:                  -7.936
REMARK INTRA:                  -0.627
REMARK CONF_INDEPENDENT:        1.193
REMARK UNBOUND:                -0.627
REMARK  4 active torsions:
REMARK  status: ('A' for Active; 'I' for Inactive)
REMARK    1  A    between atoms: C_7  and  N_8 
REMARK    2  A    between atoms: C_17  and  C_18 
REMARK       I    between atoms: C_18  and  N_20 
REMARK    3  A    between atoms: N_20  and  C_21 
REMARK    4  A    between atoms: C_28  and  N_29 
ROOT
ATOM      1  C   UNL d   1      33.748 -12.034   2.609  0.00  0.00     0.310 C 
ATOM      2  N   UNL d   1      32.637 -12.643   1.878  0.00  0.00     0.088 N 
ATOM      3  C   UNL d   1      31.953 -13.580   2.758  0.00  0.00     0.277 C 
ATOM      4  C   UNL d   1      30.705 -14.055   2.057  0.00  0.00     0.070 C 
ATOM      5  C   UNL d   1      30.915 -14.542   0.644  0.00  0.00    -0.029 A 
ATOM      6  C   UNL d   1      32.103 -14.201  -0.042  0.00  0.00     0.021 A 
ATOM      7  C   UNL d   1      32.340 -14.663  -1.360  0.00  0.00     0.113 A 
ATOM      8  N   UNL d   1      31.353 -15.387  -1.955  0.00  0.00    -0.336 N 
ATOM      9  C   UNL d   1      30.175 -15.707  -1.300  0.00  0.00     0.089 A 
ATOM     10  S   UNL d   1      28.863 -16.662  -1.925  0.00  0.00    -0.064 SA
ATOM     11  C   UNL d   1      27.915 -16.508  -0.486  0.00  0.00     0.102 A 
ATOM     12  C   UNL d   1      28.627 -15.754   0.439  0.00  0.00     0.062 A 
ATOM     13  C   UNL d   1      29.916 -15.300  -0.006  0.00  0.00     0.033 A 
ATOM     14  C   UNL d   1      33.137 -13.361   0.700  0.00  0.00     0.315 C 
ATOM     15  H   UNL d   1      31.523 -15.751  -2.886  0.00  0.00     0.168 HD
ENDROOT
BRANCH  11  16
ATOM     16  C   UNL d   1      26.551 -17.039  -0.211  0.00  0.00     0.265 C 
ATOM     17  O   UNL d   1      26.359 -17.680   0.841  0.00  0.00    -0.267 OA
ATOM     18  N   UNL d   1      25.498 -16.885  -1.114  0.00  0.00    -0.322 N 
ATOM     19  H   UNL d   1      25.718 -16.652  -2.071  0.00  0.00     0.169 HD
BRANCH  18  20
ATOM     20  C   UNL d   1      24.210 -17.463  -0.846  0.00  0.00     0.035 C 
ATOM     21  C   UNL d   1      23.049 -16.687  -0.935  0.00  0.00     0.031 C 
ATOM     22  C   UNL d   1      21.785 -17.304  -0.894  0.00  0.00     0.026 C 
ATOM     23  C   UNL d   1      21.666 -18.632  -0.493  0.00  0.00     0.034 C 
ATOM     24 CL   UNL d   1      20.112 -19.325  -0.238  0.00  0.00    -0.084 Cl
ATOM     25  C   UNL d   1      22.810 -19.384  -0.262  0.00  0.00     0.026 C 
ATOM     26  C   UNL d   1      24.070 -18.823  -0.522  0.00  0.00     0.031 C 
ENDBRANCH  18  20
ENDBRANCH  11  16
BRANCH  12  27
ATOM     27  N   UNL d   1      28.130 -15.479   1.666  0.00  0.00    -0.397 N 
ATOM     28  H   UNL d   1      28.754 -15.298   2.463  0.00  0.00     0.156 HD
ATOM     29  H   UNL d   1      27.176 -15.603   1.979  0.00  0.00     0.156 HD
ENDBRANCH  12  27
BRANCH   7  30
ATOM     30  N   UNL d   1      33.560 -14.490  -1.996  0.00  0.00    -0.363 N 
ATOM     31  C   UNL d   1      34.776 -15.223  -1.548  0.00  0.00     0.150 C 
ATOM     32  C   UNL d   1      35.940 -14.261  -1.221  0.00  0.00     0.187 C 
ATOM     33  O   UNL d   1      36.228 -13.431  -2.350  0.00  0.00    -0.388 OA
ATOM     34  C   UNL d   1      35.085 -12.627  -2.685  0.00  0.00     0.187 C 
ATOM     35  C   UNL d   1      33.863 -13.507  -3.066  0.00  0.00     0.150 C 
ENDBRANCH   7  30
TORSDOF 4
ENDMDL
MODEL 8
REMARK VINA RESULT:    -6.646      6.716      8.748
REMARK INTER + INTRA:          -8.613
REMARK INTER:                  -7.839
REMARK INTRA:                  -0.774
REMARK CONF_INDEPENDENT:        1.193
REMARK UNBOUND:                -0.774
REMARK  4 active torsions:
REMARK  status: ('A' for Active; 'I' for Inactive)
REMARK    1  A    between atoms: C_7  and  N_8 
REMARK    2  A    between atoms: C_17  and  C_18 
REMARK       I    between atoms: C_18  and  N_20 
REMARK    3  A    between atoms: N_20  and  C_21 
REMARK    4  A    between atoms: C_28  and  N_29 
ROOT
ATOM      1  C   UNL d   1      28.628 -13.253   6.803  0.00  0.00     0.310 C 
ATOM      2  N   UNL d   1      28.471 -13.514   5.372  0.00  0.00     0.088 N 
ATOM      3  C   UNL d   1      29.735 -14.010   4.843  0.00  0.00     0.277 C 
ATOM      4  C   UNL d   1      29.504 -14.450   3.419  0.00  0.00     0.070 C 
ATOM      5  C   UNL d   1      28.797 -13.442   2.547  0.00  0.00    -0.029 A 
ATOM      6  C   UNL d   1      28.094 -12.373   3.147  0.00  0.00     0.021 A 
ATOM      7  C   UNL d   1      27.440 -11.397   2.354  0.00  0.00     0.113 A 
ATOM      8  N   UNL d   1      27.464 -11.570   1.005  0.00  0.00    -0.336 N 
ATOM      9  C   UNL d   1      28.131 -12.628   0.407  0.00  0.00     0.089 A 
ATOM     10  S   UNL d   1      28.279 -12.935  -1.297  0.00  0.00    -0.064 SA
ATOM     11  C   UNL d   1      29.210 -14.376  -1.072  0.00  0.00     0.102 A 
ATOM     12  C   UNL d   1      29.402 -14.574   0.289  0.00  0.00     0.062 A 
ATOM     13  C   UNL d   1      28.803 -13.585   1.142  0.00  0.00     0.033 A 
ATOM     14  C   UNL d   1      28.102 -12.281   4.668  0.00  0.00     0.315 C 
ATOM     15  H   UNL d   1      27.028 -10.862   0.424  0.00  0.00     0.168 HD
ENDROOT
BRANCH  11  16
ATOM     16  C   UNL d   1      29.735 -15.313  -2.104  0.00  0.00     0.265 C 
ATOM     17  O   UNL d   1      30.779 -15.947  -1.860  0.00  0.00    -0.267 OA
ATOM     18  N   UNL d   1      29.123 -15.465  -3.350  0.00  0.00    -0.322 N 
ATOM     19  H   UNL d   1      28.483 -14.748  -3.659  0.00  0.00     0.169 HD
BRANCH  18  20
ATOM     20  C   UNL d   1      29.689 -16.332  -4.345  0.00  0.00     0.035 C 
ATOM     21  C   UNL d   1      30.065 -17.640  -4.020  0.00  0.00     0.031 C 
ATOM     22  C   UNL d   1      30.405 -18.550  -5.039  0.00  0.00     0.026 C 
ATOM     23  C   UNL d   1      30.638 -18.095  -6.333  0.00  0.00     0.034 C 
ATOM     24 CL   UNL d   1      31.258 -19.165  -7.530  0.00  0.00    -0.084 Cl
ATOM     25  C   UNL d   1      30.405 -16.763  -6.646  0.00  0.00     0.026 C 
ATOM     26  C   UNL d   1      29.853 -15.911  -5.676  0.00  0.00     0.031 C 
ENDBRANCH  18  20
ENDBRANCH  11  16
BRANCH  12  27
ATOM     27  N   UNL d   1      30.107 -15.627   0.762  0.00  0.00    -0.397 N 
ATOM     28  H   UNL d   1      30.386 -16.400   0.143  0.00  0.00     0.156 HD
ATOM     29  H   UNL d   1      30.263 -15.871   1.731  0.00  0.00     0.156 HD
ENDBRANCH  12  27
BRANCH   7  30
ATOM     30  N   UNL d   1      26.888 -10.249   2.902  0.00  0.00    -0.363 N 
ATOM     31  C   UNL d   1      25.671  -9.621   2.318  0.00  0.00     0.150 C 
ATOM     32  C   UNL d   1      25.905  -8.136   1.961  0.00  0.00     0.187 C 
ATOM     33  O   UNL d   1      26.352  -7.415   3.113  0.00  0.00    -0.388 OA
ATOM     34  C   UNL d   1      27.601  -7.947   3.584  0.00  0.00     0.187 C 
ATOM     35  C   UNL d   1      27.461  -9.437   4.004  0.00  0.00     0.150 C 
ENDBRANCH   7  30
TORSDOF 4
ENDMDL
MODEL 9
REMARK VINA RESULT:    -6.566      6.005      8.713
REMARK INTER + INTRA:          -8.714
REMARK INTER:                  -7.759
REMARK INTRA:                  -0.955
REMARK CONF_INDEPENDENT:        1.193
REMARK UNBOUND:                -0.955
REMARK  4 active torsions:
REMARK  status: ('A' for Active; 'I' for Inactive)
REMARK    1  A    between atoms: C_7  and  N_8 
REMARK    2  A    between atoms: C_17  and  C_18 
REMARK       I    between atoms: C_18  and  N_20 
REMARK    3  A    between atoms: N_20  and  C_21 
REMARK    4  A    between atoms: C_28  and  N_29 
ROOT
ATOM      1  C   UNL d   1      26.489 -10.044  -4.095  0.00  0.00     0.310 C 
ATOM      2  N   UNL d   1      26.516 -10.709  -2.792  0.00  0.00     0.088 N 
ATOM      3  C   UNL d   1      27.520 -10.065  -1.956  0.00  0.00     0.277 C 
ATOM      4  C   UNL d   1      27.404 -10.634  -0.564  0.00  0.00     0.070 C 
ATOM      5  C   UNL d   1      27.384 -12.141  -0.492  0.00  0.00    -0.029 A 
ATOM      6  C   UNL d   1      27.107 -12.891  -1.658  0.00  0.00     0.021 A 
ATOM      7  C   UNL d   1      27.104 -14.308  -1.628  0.00  0.00     0.113 A 
ATOM      8  N   UNL d   1      27.313 -14.907  -0.424  0.00  0.00    -0.336 N 
ATOM      9  C   UNL d   1      27.563 -14.181   0.729  0.00  0.00     0.089 A 
ATOM     10  S   UNL d   1      27.893 -14.821   2.311  0.00  0.00    -0.064 SA
ATOM     11  C   UNL d   1      28.051 -13.258   3.036  0.00  0.00     0.102 A 
ATOM     12  C   UNL d   1      27.870 -12.292   2.055  0.00  0.00     0.062 A 
ATOM     13  C   UNL d   1      27.601 -12.800   0.738  0.00  0.00     0.033 A 
ATOM     14  C   UNL d   1      26.857 -12.127  -2.953  0.00  0.00     0.315 C 
ATOM     15  H   UNL d   1      27.345 -15.920  -0.394  0.00  0.00     0.168 HD
ENDROOT
BRANCH  11  16
ATOM     16  C   UNL d   1      28.311 -12.917   4.463  0.00  0.00     0.265 C 
ATOM     17  O   UNL d   1      28.294 -11.719   4.804  0.00  0.00    -0.267 OA
ATOM     18  N   UNL d   1      28.621 -13.891   5.414  0.00  0.00    -0.322 N 
ATOM     19  H   UNL d   1      28.935 -14.794   5.090  0.00  0.00     0.169 HD
BRANCH  18  20
ATOM     20  C   UNL d   1      28.927 -13.522   6.768  0.00  0.00     0.035 C 
ATOM     21  C   UNL d   1      30.031 -14.077   7.425  0.00  0.00     0.031 C 
ATOM     22  C   UNL d   1      30.455 -13.550   8.659  0.00  0.00     0.026 C 
ATOM     23  C   UNL d   1      29.635 -12.674   9.365  0.00  0.00     0.034 C 
ATOM     24 CL   UNL d   1      30.052 -12.194  10.964  0.00  0.00    -0.084 Cl
ATOM     25  C   UNL d   1      28.459 -12.218   8.786  0.00  0.00     0.026 C 
ATOM     26  C   UNL d   1      28.155 -12.576   7.463  0.00  0.00     0.031 C 
ENDBRANCH  18  20
ENDBRANCH  11  16
BRANCH  12  27
ATOM     27  N   UNL d   1      27.947 -10.971   2.335  0.00  0.00    -0.397 N 
ATOM     28  H   UNL d   1      28.652 -10.607   2.988  0.00  0.00     0.156 HD
ATOM     29  H   UNL d   1      27.260 -10.261   2.119  0.00  0.00     0.156 HD
ENDBRANCH  12  27
BRANCH   7  30
ATOM     30  N   UNL d   1      27.003 -15.071  -2.781  0.00  0.00    -0.363 N 
ATOM     31  C   UNL d   1      28.217 -15.568  -3.488  0.00  0.00     0.150 C 
ATOM     32  C   UNL d   1      28.235 -15.136  -4.971  0.00  0.00     0.187 C 
ATOM     33  O   UNL d   1      27.042 -15.574  -5.628  0.00  0.00    -0.388 OA
ATOM     34  C   UNL d   1      25.886 -14.977  -5.020  0.00  0.00     0.187 C 
ATOM     35  C   UNL d   1      25.757 -15.381  -3.525  0.00  0.00     0.150 C 
ENDBRANCH   7  30
TORSDOF 4
ENDMDL
