MODEL 1
REMARK VINA RESULT:   -31.656      0.000      0.000
REMARK INTER + INTRA:         -34.986
REMARK INTER:                 -33.744
REMARK INTRA:                  -1.242
REMARK CONF_INDEPENDENT:        2.088
REMARK UNBOUND:                -1.242
REMARK  7 active torsions:
REMARK  status: ('A' for Active; 'I' for Inactive)
REMARK    1  A    between atoms: C_2  and  O_3 
REMARK    2  A    between atoms: O_3  and  C_4 
REMARK    3  A    between atoms: C_7  and  C_8 
REMARK       I    between atoms: C_8  and  N_10 
REMARK    4  A    between atoms: N_10  and  N_11 
REMARK       I    between atoms: N_11  and  C_12 
REMARK    5  A    between atoms: C_12  and  C_14 
REMARK    6  A    between atoms: C_14  and  C_15 
REMARK    7  A    between atoms: C_15  and  C_16 
ROOT
ATOM      1  N   UNL d   1      25.492 -16.302  -2.427  0.00  0.00    -0.267 N 
ATOM      2  C   UNL d   1      25.835 -16.958  -1.197  0.00  0.00     0.236 C 
ATOM      3  O   UNL d   1      27.041 -17.076  -0.916  0.00  0.00    -0.272 OA
ATOM      4  H   UNL d   1      24.560 -16.187  -2.825  0.00  0.00     0.190 HD
ENDROOT
BRANCH   1   5
ATOM      5  N   UNL d   1      26.581 -15.679  -3.292  0.00  0.00    -0.263 N 
ATOM      6  C   UNL d   1      26.312 -14.999  -4.502  0.00  0.00     0.270 C 
ATOM      7  O   UNL d   1      25.151 -14.883  -4.941  0.00  0.00    -0.266 OA
ATOM      8  H   UNL d   1      27.521 -15.802  -2.927  0.00  0.00     0.190 HD
BRANCH   6   9
ATOM      9  C   UNL d   1      27.467 -14.408  -5.337  0.00  0.00     0.033 A 
ATOM     10  C   UNL d   1      27.567 -13.013  -5.568  0.00  0.00     0.020 A 
ATOM     11  C   UNL d   1      28.552 -12.463  -6.429  0.00  0.00     0.038 A 
ATOM     12  C   UNL d   1      29.504 -13.281  -7.037  0.00  0.00     0.068 A 
ATOM     13  C   UNL d   1      29.456 -14.647  -6.771  0.00  0.00     0.038 A 
ATOM     14  C   UNL d   1      28.453 -15.203  -5.938  0.00  0.00     0.020 A 
BRANCH  12  15
ATOM     15  O   UNL d   1      30.485 -12.660  -7.769  0.00  0.00    -0.352 OA
BRANCH  15  16
ATOM     16  C   UNL d   1      31.722 -13.368  -7.910  0.00  0.00     0.171 C 
ATOM     17  C   UNL d   1      32.469 -12.844  -9.132  0.00  0.00     0.034 C 
ENDBRANCH  15  16
ENDBRANCH  12  15
ENDBRANCH   6   9
ENDBRANCH   1   5
BRANCH   2  18
ATOM     18  C   UNL d   1      24.671 -17.582  -0.144  0.00  0.00     0.109 C 
BRANCH  18  19
ATOM     19  C   UNL d   1      22.974 -17.559  -0.738  0.00  0.00     0.046 C 
BRANCH  19  20
ATOM     20  C   UNL d   1      21.463 -18.356  -0.187  0.00  0.00    -0.048 C 
ATOM     21  C   UNL d   1      21.258 -19.324  -1.171  0.00  0.00     0.112 C 
ATOM     22  N   UNL d   1      19.904 -19.098  -1.270  0.00  0.00    -0.282 NA
ATOM     23  C   UNL d   1      19.436 -19.701  -0.144  0.00  0.00     0.019 A 
ATOM     24  H   UNL d   1      19.476 -18.219  -1.476  0.00  0.00     0.128 HD
ATOM     25  C   UNL d   1      18.285 -20.536  -0.138  0.00  0.00     0.024 A 
ATOM     26  C   UNL d   1      20.373 -19.328   0.825  0.00  0.00    -0.011 A 
ATOM     27  C   UNL d   1      17.849 -21.236   0.945  0.00  0.00     0.002 A 
ATOM     28  C   UNL d   1      18.643 -21.062   2.043  0.00  0.00     0.001 A 
ATOM     29  C   UNL d   1      19.878 -20.102   2.054  0.00  0.00     0.013 A 
ENDBRANCH  19  20
ENDBRANCH  18  19
ENDBRANCH   2  18
TORSDOF 7
ENDMDL
MODEL 2
REMARK VINA RESULT:   -31.605      0.466      1.030
REMARK INTER + INTRA:         -34.920
REMARK INTER:                 -33.694
REMARK INTRA:                  -1.226
REMARK CONF_INDEPENDENT:        2.088
REMARK UNBOUND:                -1.226
REMARK  7 active torsions:
REMARK  status: ('A' for Active; 'I' for Inactive)
REMARK    1  A    between atoms: C_2  and  O_3 
REMARK    2  A    between atoms: O_3  and  C_4 
REMARK    3  A    between atoms: C_7  and  C_8 
REMARK       I    between atoms: C_8  and  N_10 
REMARK    4  A    between atoms: N_10  and  N_11 
REMARK       I    between atoms: N_11  and  C_12 
REMARK    5  A    between atoms: C_12  and  C_14 
REMARK    6  A    between atoms: C_14  and  C_15 
REMARK    7  A    between atoms: C_15  and  C_16 
ROOT
ATOM      1  N   UNL d   1      25.456 -16.284  -2.475  0.00  0.00    -0.267 N 
ATOM      2  C   UNL d   1      25.836 -16.998  -1.289  0.00  0.00     0.236 C 
ATOM      3  O   UNL d   1      27.049 -17.094  -1.030  0.00  0.00    -0.272 OA
ATOM      4  H   UNL d   1      24.515 -16.176  -2.855  0.00  0.00     0.190 HD
ENDROOT
BRANCH   1   5
ATOM      5  N   UNL d   1      26.512 -15.580  -3.318  0.00  0.00    -0.263 N 
ATOM      6  C   UNL d   1      26.196 -14.704  -4.382  0.00  0.00     0.270 C 
ATOM      7  O   UNL d   1      25.014 -14.469  -4.702  0.00  0.00    -0.266 OA
ATOM      8  H   UNL d   1      27.468 -15.801  -3.053  0.00  0.00     0.190 HD
BRANCH   6   9
ATOM      9  C   UNL d   1      27.319 -14.039  -5.204  0.00  0.00     0.033 A 
ATOM     10  C   UNL d   1      28.145 -14.800  -6.070  0.00  0.00     0.020 A 
ATOM     11  C   UNL d   1      29.256 -14.229  -6.742  0.00  0.00     0.038 A 
ATOM     12  C   UNL d   1      29.542 -12.869  -6.617  0.00  0.00     0.068 A 
ATOM     13  C   UNL d   1      28.703 -12.097  -5.818  0.00  0.00     0.038 A 
ATOM     14  C   UNL d   1      27.613 -12.672  -5.119  0.00  0.00     0.020 A 
BRANCH  12  15
ATOM     15  O   UNL d   1      30.569 -12.375  -7.382  0.00  0.00    -0.352 OA
BRANCH  15  16
ATOM     16  C   UNL d   1      30.513 -12.657  -8.786  0.00  0.00     0.171 C 
ATOM     17  C   UNL d   1      31.926 -12.662  -9.357  0.00  0.00     0.034 C 
ENDBRANCH  15  16
ENDBRANCH  12  15
ENDBRANCH   6   9
ENDBRANCH   1   5
BRANCH   2  18
ATOM     18  C   UNL d   1      24.707 -17.717  -0.259  0.00  0.00     0.109 C 
BRANCH  18  19
ATOM     19  C   UNL d   1      22.983 -17.567  -0.748  0.00  0.00     0.046 C 
BRANCH  19  20
ATOM     20  C   UNL d   1      21.471 -18.357  -0.192  0.00  0.00    -0.048 C 
ATOM     21  C   UNL d   1      21.258 -19.326  -1.174  0.00  0.00     0.112 C 
ATOM     22  N   UNL d   1      19.905 -19.094  -1.270  0.00  0.00    -0.282 NA
ATOM     23  C   UNL d   1      19.438 -19.695  -0.142  0.00  0.00     0.019 A 
ATOM     24  H   UNL d   1      19.480 -18.214  -1.476  0.00  0.00     0.128 HD
ATOM     25  C   UNL d   1      18.283 -20.525  -0.132  0.00  0.00     0.024 A 
ATOM     26  C   UNL d   1      20.379 -19.325   0.824  0.00  0.00    -0.011 A 
ATOM     27  C   UNL d   1      17.848 -21.222   0.953  0.00  0.00     0.002 A 
ATOM     28  C   UNL d   1      18.646 -21.050   2.049  0.00  0.00     0.001 A 
ATOM     29  C   UNL d   1      19.884 -20.096   2.055  0.00  0.00     0.013 A 
ENDBRANCH  19  20
ENDBRANCH  18  19
ENDBRANCH   2  18
TORSDOF 7
ENDMDL
MODEL 3
REMARK VINA RESULT:   -30.627      1.034      1.186
REMARK INTER + INTRA:         -33.861
REMARK INTER:                 -32.716
REMARK INTRA:                  -1.145
REMARK CONF_INDEPENDENT:        2.088
REMARK UNBOUND:                -1.145
REMARK  7 active torsions:
REMARK  status: ('A' for Active; 'I' for Inactive)
REMARK    1  A    between atoms: C_2  and  O_3 
REMARK    2  A    between atoms: O_3  and  C_4 
REMARK    3  A    between atoms: C_7  and  C_8 
REMARK       I    between atoms: C_8  and  N_10 
REMARK    4  A    between atoms: N_10  and  N_11 
REMARK       I    between atoms: N_11  and  C_12 
REMARK    5  A    between atoms: C_12  and  C_14 
REMARK    6  A    between atoms: C_14  and  C_15 
REMARK    7  A    between atoms: C_15  and  C_16 
ROOT
ATOM      1  N   UNL d   1      25.416 -15.442  -2.835  0.00  0.00    -0.267 N 
ATOM      2  C   UNL d   1      25.328 -15.872  -1.468  0.00  0.00     0.236 C 
ATOM      3  O   UNL d   1      26.389 -16.088  -0.856  0.00  0.00    -0.272 OA
ATOM      4  H   UNL d   1      24.643 -15.290  -3.484  0.00  0.00     0.190 HD
ENDROOT
BRANCH   1   5
ATOM      5  N   UNL d   1      26.774 -15.158  -3.463  0.00  0.00    -0.263 N 
ATOM      6  C   UNL d   1      26.978 -15.074  -4.860  0.00  0.00     0.270 C 
ATOM      7  O   UNL d   1      26.043 -15.245  -5.666  0.00  0.00    -0.266 OA
ATOM      8  H   UNL d   1      27.526 -15.042  -2.789  0.00  0.00     0.190 HD
BRANCH   6   9
ATOM      9  C   UNL d   1      28.387 -14.800  -5.426  0.00  0.00     0.033 A 
ATOM     10  C   UNL d   1      28.563 -14.171  -6.684  0.00  0.00     0.020 A 
ATOM     11  C   UNL d   1      29.844 -14.017  -7.275  0.00  0.00     0.038 A 
ATOM     12  C   UNL d   1      30.993 -14.433  -6.601  0.00  0.00     0.068 A 
ATOM     13  C   UNL d   1      30.841 -14.998  -5.337  0.00  0.00     0.038 A 
ATOM     14  C   UNL d   1      29.559 -15.182  -4.761  0.00  0.00     0.020 A 
BRANCH  12  15
ATOM     15  O   UNL d   1      32.199 -14.154  -7.194  0.00  0.00    -0.352 OA
BRANCH  15  16
ATOM     16  C   UNL d   1      32.153 -13.687  -8.548  0.00  0.00     0.171 C 
ATOM     17  C   UNL d   1      32.159 -12.163  -8.558  0.00  0.00     0.034 C 
ENDBRANCH  15  16
ENDBRANCH  12  15
ENDBRANCH   6   9
ENDBRANCH   1   5
BRANCH   2  18
ATOM     18  C   UNL d   1      23.851 -16.110  -0.683  0.00  0.00     0.109 C 
BRANCH  18  19
ATOM     19  C   UNL d   1      23.122 -17.745  -0.848  0.00  0.00     0.046 C 
BRANCH  19  20
ATOM     20  C   UNL d   1      21.602 -18.484  -0.244  0.00  0.00    -0.048 C 
ATOM     21  C   UNL d   1      21.240 -19.329  -1.294  0.00  0.00     0.112 C 
ATOM     22  N   UNL d   1      19.905 -18.998  -1.250  0.00  0.00    -0.282 NA
ATOM     23  C   UNL d   1      19.484 -19.678  -0.151  0.00  0.00     0.019 A 
ATOM     24  H   UNL d   1      19.533 -18.074  -1.333  0.00  0.00     0.128 HD
ATOM     25  C   UNL d   1      18.273 -20.425  -0.122  0.00  0.00     0.024 A 
ATOM     26  C   UNL d   1      20.523 -19.474   0.762  0.00  0.00    -0.011 A 
ATOM     27  C   UNL d   1      17.873 -21.199   0.923  0.00  0.00     0.002 A 
ATOM     28  C   UNL d   1      18.765 -21.195   1.959  0.00  0.00     0.001 A 
ATOM     29  C   UNL d   1      20.069 -20.332   1.951  0.00  0.00     0.013 A 
ENDBRANCH  19  20
ENDBRANCH  18  19
ENDBRANCH   2  18
TORSDOF 7
ENDMDL
MODEL 4
REMARK VINA RESULT:   -30.578      5.466      7.352
REMARK INTER + INTRA:         -33.733
REMARK INTER:                 -32.666
REMARK INTRA:                  -1.067
REMARK CONF_INDEPENDENT:        2.088
REMARK UNBOUND:                -1.067
REMARK  7 active torsions:
REMARK  status: ('A' for Active; 'I' for Inactive)
REMARK    1  A    between atoms: C_2  and  O_3 
REMARK    2  A    between atoms: O_3  and  C_4 
REMARK    3  A    between atoms: C_7  and  C_8 
REMARK       I    between atoms: C_8  and  N_10 
REMARK    4  A    between atoms: N_10  and  N_11 
REMARK       I    between atoms: N_11  and  C_12 
REMARK    5  A    between atoms: C_12  and  C_14 
REMARK    6  A    between atoms: C_14  and  C_15 
REMARK    7  A    between atoms: C_15  and  C_16 
ROOT
ATOM      1  N   UNL d   1      26.313 -16.072  -0.046  0.00  0.00    -0.267 N 
ATOM      2  C   UNL d   1      25.798 -17.409   0.039  0.00  0.00     0.236 C 
ATOM      3  O   UNL d   1      26.184 -18.123   0.982  0.00  0.00    -0.272 OA
ATOM      4  H   UNL d   1      26.146 -15.393  -0.789  0.00  0.00     0.190 HD
ENDROOT
BRANCH   1   5
ATOM      5  N   UNL d   1      27.215 -15.526   1.054  0.00  0.00    -0.263 N 
ATOM      6  C   UNL d   1      27.207 -14.172   1.460  0.00  0.00     0.270 C 
ATOM      7  O   UNL d   1      26.458 -13.334   0.920  0.00  0.00    -0.266 OA
ATOM      8  H   UNL d   1      27.832 -16.220   1.467  0.00  0.00     0.190 HD
BRANCH   6   9
ATOM      9  C   UNL d   1      28.161 -13.686   2.570  0.00  0.00     0.033 A 
ATOM     10  C   UNL d   1      27.669 -13.275   3.835  0.00  0.00     0.020 A 
ATOM     11  C   UNL d   1      28.516 -12.714   4.825  0.00  0.00     0.038 A 
ATOM     12  C   UNL d   1      29.889 -12.602   4.607  0.00  0.00     0.068 A 
ATOM     13  C   UNL d   1      30.397 -13.057   3.392  0.00  0.00     0.038 A 
ATOM     14  C   UNL d   1      29.547 -13.586   2.389  0.00  0.00     0.020 A 
BRANCH  12  15
ATOM     15  O   UNL d   1      30.652 -12.147   5.653  0.00  0.00    -0.352 OA
BRANCH  15  16
ATOM     16  C   UNL d   1      30.200 -12.489   6.969  0.00  0.00     0.171 C 
ATOM     17  C   UNL d   1      30.180 -11.237   7.838  0.00  0.00     0.034 C 
ENDBRANCH  15  16
ENDBRANCH  12  15
ENDBRANCH   6   9
ENDBRANCH   1   5
BRANCH   2  18
ATOM     18  C   UNL d   1      24.717 -18.041  -1.094  0.00  0.00     0.109 C 
BRANCH  18  19
ATOM     19  C   UNL d   1      23.003 -17.529  -0.924  0.00  0.00     0.046 C 
BRANCH  19  20
ATOM     20  C   UNL d   1      21.532 -18.334  -0.284  0.00  0.00    -0.048 C 
ATOM     21  C   UNL d   1      21.256 -19.283  -1.270  0.00  0.00     0.112 C 
ATOM     22  N   UNL d   1      19.899 -19.054  -1.270  0.00  0.00    -0.282 NA
ATOM     23  C   UNL d   1      19.510 -19.678  -0.126  0.00  0.00     0.019 A 
ATOM     24  H   UNL d   1      19.460 -18.170  -1.429  0.00  0.00     0.128 HD
ATOM     25  C   UNL d   1      18.359 -20.512  -0.056  0.00  0.00     0.024 A 
ATOM     26  C   UNL d   1      20.512 -19.325   0.782  0.00  0.00    -0.011 A 
ATOM     27  C   UNL d   1      17.998 -21.232   1.042  0.00  0.00     0.002 A 
ATOM     28  C   UNL d   1      18.868 -21.080   2.085  0.00  0.00     0.001 A 
ATOM     29  C   UNL d   1      20.102 -20.122   2.028  0.00  0.00     0.013 A 
ENDBRANCH  19  20
ENDBRANCH  18  19
ENDBRANCH   2  18
TORSDOF 7
ENDMDL
MODEL 5
REMARK VINA RESULT:   -30.551      2.793      3.403
REMARK INTER + INTRA:         -33.871
REMARK INTER:                 -32.639
REMARK INTRA:                  -1.232
REMARK CONF_INDEPENDENT:        2.088
REMARK UNBOUND:                -1.232
REMARK  7 active torsions:
REMARK  status: ('A' for Active; 'I' for Inactive)
REMARK    1  A    between atoms: C_2  and  O_3 
REMARK    2  A    between atoms: O_3  and  C_4 
REMARK    3  A    between atoms: C_7  and  C_8 
REMARK       I    between atoms: C_8  and  N_10 
REMARK    4  A    between atoms: N_10  and  N_11 
REMARK       I    between atoms: N_11  and  C_12 
REMARK    5  A    between atoms: C_12  and  C_14 
REMARK    6  A    between atoms: C_14  and  C_15 
REMARK    7  A    between atoms: C_15  and  C_16 
ROOT
ATOM      1  N   UNL d   1      24.833 -15.412  -2.051  0.00  0.00    -0.267 N 
ATOM      2  C   UNL d   1      25.177 -15.989  -0.782  0.00  0.00     0.236 C 
ATOM      3  O   UNL d   1      26.039 -15.414  -0.095  0.00  0.00    -0.272 OA
ATOM      4  H   UNL d   1      24.199 -15.797  -2.752  0.00  0.00     0.190 HD
ENDROOT
BRANCH   1   5
ATOM      5  N   UNL d   1      25.435 -14.078  -2.474  0.00  0.00    -0.263 N 
ATOM      6  C   UNL d   1      25.241 -13.513  -3.756  0.00  0.00     0.270 C 
ATOM      7  O   UNL d   1      24.566 -14.095  -4.628  0.00  0.00    -0.266 OA
ATOM      8  H   UNL d   1      25.997 -13.631  -1.755  0.00  0.00     0.190 HD
BRANCH   6   9
ATOM      9  C   UNL d   1      25.896 -12.165  -4.121  0.00  0.00     0.033 A 
ATOM     10  C   UNL d   1      26.130 -11.804  -5.472  0.00  0.00     0.020 A 
ATOM     11  C   UNL d   1      26.837 -10.625  -5.823  0.00  0.00     0.038 A 
ATOM     12  C   UNL d   1      27.280  -9.741  -4.838  0.00  0.00     0.068 A 
ATOM     13  C   UNL d   1      27.004 -10.052  -3.509  0.00  0.00     0.038 A 
ATOM     14  C   UNL d   1      26.327 -11.246  -3.155  0.00  0.00     0.020 A 
BRANCH  12  15
ATOM     15  O   UNL d   1      27.862  -8.573  -5.265  0.00  0.00    -0.352 OA
BRANCH  15  16
ATOM     16  C   UNL d   1      27.204  -7.357  -4.888  0.00  0.00     0.171 C 
ATOM     17  C   UNL d   1      28.242  -6.255  -4.712  0.00  0.00     0.034 C 
ENDBRANCH  15  16
ENDBRANCH  12  15
ENDBRANCH   6   9
ENDBRANCH   1   5
BRANCH   2  18
ATOM     18  C   UNL d   1      24.472 -17.414  -0.211  0.00  0.00     0.109 C 
BRANCH  18  19
ATOM     19  C   UNL d   1      22.902 -17.874  -0.955  0.00  0.00     0.046 C 
BRANCH  19  20
ATOM     20  C   UNL d   1      21.385 -18.576  -0.300  0.00  0.00    -0.048 C 
ATOM     21  C   UNL d   1      21.039 -19.509  -1.278  0.00  0.00     0.112 C 
ATOM     22  N   UNL d   1      19.700 -19.190  -1.270  0.00  0.00    -0.282 NA
ATOM     23  C   UNL d   1      19.279 -19.780  -0.120  0.00  0.00     0.019 A 
ATOM     24  H   UNL d   1      19.320 -18.280  -1.431  0.00  0.00     0.128 HD
ATOM     25  C   UNL d   1      18.075 -20.535  -0.036  0.00  0.00     0.024 A 
ATOM     26  C   UNL d   1      20.309 -19.490   0.779  0.00  0.00    -0.011 A 
ATOM     27  C   UNL d   1      17.676 -21.223   1.068  0.00  0.00     0.002 A 
ATOM     28  C   UNL d   1      18.561 -21.124   2.105  0.00  0.00     0.001 A 
ATOM     29  C   UNL d   1      19.856 -20.251   2.033  0.00  0.00     0.013 A 
ENDBRANCH  19  20
ENDBRANCH  18  19
ENDBRANCH   2  18
TORSDOF 7
ENDMDL
MODEL 6
REMARK VINA RESULT:   -30.055      1.866      2.194
REMARK INTER + INTRA:         -33.314
REMARK INTER:                 -32.143
REMARK INTRA:                  -1.171
REMARK CONF_INDEPENDENT:        2.088
REMARK UNBOUND:                -1.171
REMARK  7 active torsions:
REMARK  status: ('A' for Active; 'I' for Inactive)
REMARK    1  A    between atoms: C_2  and  O_3 
REMARK    2  A    between atoms: O_3  and  C_4 
REMARK    3  A    between atoms: C_7  and  C_8 
REMARK       I    between atoms: C_8  and  N_10 
REMARK    4  A    between atoms: N_10  and  N_11 
REMARK       I    between atoms: N_11  and  C_12 
REMARK    5  A    between atoms: C_12  and  C_14 
REMARK    6  A    between atoms: C_14  and  C_15 
REMARK    7  A    between atoms: C_15  and  C_16 
ROOT
ATOM      1  N   UNL d   1      25.483 -16.054  -3.418  0.00  0.00    -0.267 N 
ATOM      2  C   UNL d   1      25.013 -16.392  -2.104  0.00  0.00     0.236 C 
ATOM      3  O   UNL d   1      25.298 -15.625  -1.168  0.00  0.00    -0.272 OA
ATOM      4  H   UNL d   1      25.389 -16.610  -4.268  0.00  0.00     0.190 HD
ENDROOT
BRANCH   1   5
ATOM      5  N   UNL d   1      26.212 -14.737  -3.656  0.00  0.00    -0.263 N 
ATOM      6  C   UNL d   1      26.999 -14.485  -4.803  0.00  0.00     0.270 C 
ATOM      7  O   UNL d   1      27.154 -15.348  -5.689  0.00  0.00    -0.266 OA
ATOM      8  H   UNL d   1      26.089 -14.056  -2.912  0.00  0.00     0.190 HD
BRANCH   6   9
ATOM      9  C   UNL d   1      27.723 -13.133  -4.969  0.00  0.00     0.033 A 
ATOM     10  C   UNL d   1      27.370 -12.010  -4.179  0.00  0.00     0.020 A 
ATOM     11  C   UNL d   1      27.941 -10.729  -4.398  0.00  0.00     0.038 A 
ATOM     12  C   UNL d   1      28.923 -10.544  -5.370  0.00  0.00     0.068 A 
ATOM     13  C   UNL d   1      29.324 -11.652  -6.113  0.00  0.00     0.038 A 
ATOM     14  C   UNL d   1      28.731 -12.924  -5.919  0.00  0.00     0.020 A 
BRANCH  12  15
ATOM     15  O   UNL d   1      29.499  -9.300  -5.447  0.00  0.00    -0.352 OA
BRANCH  15  16
ATOM     16  C   UNL d   1      30.800  -9.233  -6.044  0.00  0.00     0.171 C 
ATOM     17  C   UNL d   1      31.861  -9.399  -4.962  0.00  0.00     0.034 C 
ENDBRANCH  15  16
ENDBRANCH  12  15
ENDBRANCH   6   9
ENDBRANCH   1   5
BRANCH   2  18
ATOM     18  C   UNL d   1      24.115 -17.788  -1.791  0.00  0.00     0.109 C 
BRANCH  18  19
ATOM     19  C   UNL d   1      23.010 -17.717  -0.375  0.00  0.00     0.046 C 
BRANCH  19  20
ATOM     20  C   UNL d   1      21.443 -18.505   0.007  0.00  0.00    -0.048 C 
ATOM     21  C   UNL d   1      21.242 -19.329  -1.101  0.00  0.00     0.112 C 
ATOM     22  N   UNL d   1      19.905 -19.028  -1.225  0.00  0.00    -0.282 NA
ATOM     23  C   UNL d   1      19.361 -19.747  -0.206  0.00  0.00     0.019 A 
ATOM     24  H   UNL d   1      19.525 -18.111  -1.333  0.00  0.00     0.128 HD
ATOM     25  C   UNL d   1      18.176 -20.520  -0.354  0.00  0.00     0.024 A 
ATOM     26  C   UNL d   1      20.267 -19.545   0.840  0.00  0.00    -0.011 A 
ATOM     27  C   UNL d   1      17.662 -21.330   0.611  0.00  0.00     0.002 A 
ATOM     28  C   UNL d   1      18.412 -21.335   1.754  0.00  0.00     0.001 A 
ATOM     29  C   UNL d   1      19.684 -20.445   1.938  0.00  0.00     0.013 A 
ENDBRANCH  19  20
ENDBRANCH  18  19
ENDBRANCH   2  18
TORSDOF 7
ENDMDL
MODEL 7
REMARK VINA RESULT:   -29.907      4.718      6.277
REMARK INTER + INTRA:         -33.269
REMARK INTER:                 -31.995
REMARK INTRA:                  -1.274
REMARK CONF_INDEPENDENT:        2.088
REMARK UNBOUND:                -1.274
REMARK  7 active torsions:
REMARK  status: ('A' for Active; 'I' for Inactive)
REMARK    1  A    between atoms: C_2  and  O_3 
REMARK    2  A    between atoms: O_3  and  C_4 
REMARK    3  A    between atoms: C_7  and  C_8 
REMARK       I    between atoms: C_8  and  N_10 
REMARK    4  A    between atoms: N_10  and  N_11 
REMARK       I    between atoms: N_11  and  C_12 
REMARK    5  A    between atoms: C_12  and  C_14 
REMARK    6  A    between atoms: C_14  and  C_15 
REMARK    7  A    between atoms: C_15  and  C_16 
ROOT
ATOM      1  N   UNL d   1      27.049 -16.658  -0.761  0.00  0.00    -0.267 N 
ATOM      2  C   UNL d   1      25.821 -17.156  -0.208  0.00  0.00     0.236 C 
ATOM      3  O   UNL d   1      25.881 -18.138   0.552  0.00  0.00    -0.272 OA
ATOM      4  H   UNL d   1      27.158 -15.909  -1.445  0.00  0.00     0.190 HD
ENDROOT
BRANCH   1   5
ATOM      5  N   UNL d   1      28.382 -17.258  -0.330  0.00  0.00    -0.263 N 
ATOM      6  C   UNL d   1      29.626 -16.829  -0.848  0.00  0.00     0.270 C 
ATOM      7  O   UNL d   1      29.698 -15.932  -1.711  0.00  0.00    -0.266 OA
ATOM      8  H   UNL d   1      28.299 -18.001   0.358  0.00  0.00     0.190 HD
BRANCH   6   9
ATOM      9  C   UNL d   1      30.936 -17.495  -0.378  0.00  0.00     0.033 A 
ATOM     10  C   UNL d   1      31.148 -18.888  -0.532  0.00  0.00     0.020 A 
ATOM     11  C   UNL d   1      32.293 -19.537  -0.001  0.00  0.00     0.038 A 
ATOM     12  C   UNL d   1      33.289 -18.807   0.648  0.00  0.00     0.068 A 
ATOM     13  C   UNL d   1      33.123 -17.428   0.754  0.00  0.00     0.038 A 
ATOM     14  C   UNL d   1      31.964 -16.783   0.253  0.00  0.00     0.020 A 
BRANCH  12  15
ATOM     15  O   UNL d   1      34.411 -19.493   1.039  0.00  0.00    -0.352 OA
BRANCH  15  16
ATOM     16  C   UNL d   1      34.514 -20.853   0.599  0.00  0.00     0.171 C 
ATOM     17  C   UNL d   1      34.194 -21.786   1.761  0.00  0.00     0.034 C 
ENDBRANCH  15  16
ENDBRANCH  12  15
ENDBRANCH   6   9
ENDBRANCH   1   5
BRANCH   2  18
ATOM     18  C   UNL d   1      24.319 -16.472  -0.568  0.00  0.00     0.109 C 
BRANCH  18  19
ATOM     19  C   UNL d   1      23.056 -17.606  -1.160  0.00  0.00     0.046 C 
BRANCH  19  20
ATOM     20  C   UNL d   1      21.597 -18.330  -0.405  0.00  0.00    -0.048 C 
ATOM     21  C   UNL d   1      21.247 -19.324  -1.321  0.00  0.00     0.112 C 
ATOM     22  N   UNL d   1      19.898 -19.054  -1.269  0.00  0.00    -0.282 NA
ATOM     23  C   UNL d   1      19.549 -19.602  -0.074  0.00  0.00     0.019 A 
ATOM     24  H   UNL d   1      19.476 -18.169  -1.457  0.00  0.00     0.128 HD
ATOM     25  C   UNL d   1      18.381 -20.396   0.099  0.00  0.00     0.024 A 
ATOM     26  C   UNL d   1      20.605 -19.229   0.763  0.00  0.00    -0.011 A 
ATOM     27  C   UNL d   1      18.056 -21.042   1.251  0.00  0.00     0.002 A 
ATOM     28  C   UNL d   1      18.979 -20.858   2.242  0.00  0.00     0.001 A 
ATOM     29  C   UNL d   1      20.235 -19.942   2.071  0.00  0.00     0.013 A 
ENDBRANCH  19  20
ENDBRANCH  18  19
ENDBRANCH   2  18
TORSDOF 7
ENDMDL
MODEL 8
REMARK VINA RESULT:   -29.777      2.063      2.414
REMARK INTER + INTRA:         -33.066
REMARK INTER:                 -31.865
REMARK INTRA:                  -1.201
REMARK CONF_INDEPENDENT:        2.088
REMARK UNBOUND:                -1.201
REMARK  7 active torsions:
REMARK  status: ('A' for Active; 'I' for Inactive)
REMARK    1  A    between atoms: C_2  and  O_3 
REMARK    2  A    between atoms: O_3  and  C_4 
REMARK    3  A    between atoms: C_7  and  C_8 
REMARK       I    between atoms: C_8  and  N_10 
REMARK    4  A    between atoms: N_10  and  N_11 
REMARK       I    between atoms: N_11  and  C_12 
REMARK    5  A    between atoms: C_12  and  C_14 
REMARK    6  A    between atoms: C_14  and  C_15 
REMARK    7  A    between atoms: C_15  and  C_16 
ROOT
ATOM      1  N   UNL d   1      26.640 -16.113  -1.859  0.00  0.00    -0.267 N 
ATOM      2  C   UNL d   1      25.240 -15.842  -2.027  0.00  0.00     0.236 C 
ATOM      3  O   UNL d   1      24.876 -15.291  -3.081  0.00  0.00    -0.272 OA
ATOM      4  H   UNL d   1      27.099 -16.495  -1.031  0.00  0.00     0.190 HD
ENDROOT
BRANCH   1   5
ATOM      5  N   UNL d   1      27.617 -15.829  -2.992  0.00  0.00    -0.263 N 
ATOM      6  C   UNL d   1      28.940 -16.329  -3.017  0.00  0.00     0.270 C 
ATOM      7  O   UNL d   1      29.389 -17.030  -2.088  0.00  0.00    -0.266 OA
ATOM      8  H   UNL d   1      27.238 -15.240  -3.729  0.00  0.00     0.190 HD
BRANCH   6   9
ATOM      9  C   UNL d   1      29.880 -15.986  -4.190  0.00  0.00     0.033 A 
ATOM     10  C   UNL d   1      30.933 -15.049  -4.038  0.00  0.00     0.020 A 
ATOM     11  C   UNL d   1      31.733 -14.632  -5.134  0.00  0.00     0.038 A 
ATOM     12  C   UNL d   1      31.545 -15.183  -6.402  0.00  0.00     0.068 A 
ATOM     13  C   UNL d   1      30.554 -16.149  -6.554  0.00  0.00     0.038 A 
ATOM     14  C   UNL d   1      29.733 -16.542  -5.468  0.00  0.00     0.020 A 
BRANCH  12  15
ATOM     15  O   UNL d   1      32.428 -14.804  -7.383  0.00  0.00    -0.352 OA
BRANCH  15  16
ATOM     16  C   UNL d   1      33.505 -15.709  -7.657  0.00  0.00     0.171 C 
ATOM     17  C   UNL d   1      33.441 -16.143  -9.117  0.00  0.00     0.034 C 
ENDBRANCH  15  16
ENDBRANCH  12  15
ENDBRANCH   6   9
ENDBRANCH   1   5
BRANCH   2  18
ATOM     18  C   UNL d   1      24.092 -16.223  -0.848  0.00  0.00     0.109 C 
BRANCH  18  19
ATOM     19  C   UNL d   1      23.093 -17.684  -1.160  0.00  0.00     0.046 C 
BRANCH  19  20
ATOM     20  C   UNL d   1      21.626 -18.364  -0.381  0.00  0.00    -0.048 C 
ATOM     21  C   UNL d   1      21.213 -19.325  -1.306  0.00  0.00     0.112 C 
ATOM     22  N   UNL d   1      19.878 -19.003  -1.214  0.00  0.00    -0.282 NA
ATOM     23  C   UNL d   1      19.537 -19.559  -0.021  0.00  0.00     0.019 A 
ATOM     24  H   UNL d   1      19.487 -18.097  -1.375  0.00  0.00     0.128 HD
ATOM     25  C   UNL d   1      18.343 -20.309   0.168  0.00  0.00     0.024 A 
ATOM     26  C   UNL d   1      20.627 -19.245   0.796  0.00  0.00    -0.011 A 
ATOM     27  C   UNL d   1      18.020 -20.964   1.317  0.00  0.00     0.002 A 
ATOM     28  C   UNL d   1      18.975 -20.837   2.286  0.00  0.00     0.001 A 
ATOM     29  C   UNL d   1      20.263 -19.968   2.099  0.00  0.00     0.013 A 
ENDBRANCH  19  20
ENDBRANCH  18  19
ENDBRANCH   2  18
TORSDOF 7
ENDMDL
MODEL 9
REMARK VINA RESULT:   -29.392      4.764      5.794
REMARK INTER + INTRA:         -32.603
REMARK INTER:                 -31.480
REMARK INTRA:                  -1.123
REMARK CONF_INDEPENDENT:        2.088
REMARK UNBOUND:                -1.123
REMARK  7 active torsions:
REMARK  status: ('A' for Active; 'I' for Inactive)
REMARK    1  A    between atoms: C_2  and  O_3 
REMARK    2  A    between atoms: O_3  and  C_4 
REMARK    3  A    between atoms: C_7  and  C_8 
REMARK       I    between atoms: C_8  and  N_10 
REMARK    4  A    between atoms: N_10  and  N_11 
REMARK       I    between atoms: N_11  and  C_12 
REMARK    5  A    between atoms: C_12  and  C_14 
REMARK    6  A    between atoms: C_14  and  C_15 
REMARK    7  A    between atoms: C_15  and  C_16 
ROOT
ATOM      1  N   UNL d   1      27.017 -17.343  -1.244  0.00  0.00    -0.267 N 
ATOM      2  C   UNL d   1      25.911 -17.881  -0.504  0.00  0.00     0.236 C 
ATOM      3  O   UNL d   1      26.106 -18.208   0.680  0.00  0.00    -0.272 OA
ATOM      4  H   UNL d   1      27.034 -17.092  -2.233  0.00  0.00     0.190 HD
ENDROOT
BRANCH   1   5
ATOM      5  N   UNL d   1      28.350 -17.086  -0.552  0.00  0.00    -0.263 N 
ATOM      6  C   UNL d   1      29.575 -16.978  -1.249  0.00  0.00     0.270 C 
ATOM      7  O   UNL d   1      29.633 -17.103  -2.488  0.00  0.00    -0.266 OA
ATOM      8  H   UNL d   1      28.283 -17.007   0.459  0.00  0.00     0.190 HD
BRANCH   6   9
ATOM      9  C   UNL d   1      30.890 -16.734  -0.480  0.00  0.00     0.033 A 
ATOM     10  C   UNL d   1      31.012 -15.669   0.448  0.00  0.00     0.020 A 
ATOM     11  C   UNL d   1      32.245 -15.356   1.076  0.00  0.00     0.038 A 
ATOM     12  C   UNL d   1      33.380 -16.133   0.842  0.00  0.00     0.068 A 
ATOM     13  C   UNL d   1      33.261 -17.220  -0.020  0.00  0.00     0.038 A 
ATOM     14  C   UNL d   1      32.038 -17.513  -0.674  0.00  0.00     0.020 A 
BRANCH  12  15
ATOM     15  O   UNL d   1      34.504 -15.828   1.568  0.00  0.00    -0.352 OA
BRANCH  15  16
ATOM     16  C   UNL d   1      34.293 -15.232   2.854  0.00  0.00     0.171 C 
ATOM     17  C   UNL d   1      35.610 -15.201   3.620  0.00  0.00     0.034 C 
ENDBRANCH  15  16
ENDBRANCH  12  15
ENDBRANCH   6   9
ENDBRANCH   1   5
BRANCH   2  18
ATOM     18  C   UNL d   1      24.381 -18.098  -1.185  0.00  0.00     0.109 C 
BRANCH  18  19
ATOM     19  C   UNL d   1      22.980 -17.767  -0.108  0.00  0.00     0.046 C 
BRANCH  19  20
ATOM     20  C   UNL d   1      21.399 -18.578   0.143  0.00  0.00    -0.048 C 
ATOM     21  C   UNL d   1      21.236 -19.293  -1.044  0.00  0.00     0.112 C 
ATOM     22  N   UNL d   1      19.904 -18.973  -1.186  0.00  0.00    -0.282 NA
ATOM     23  C   UNL d   1      19.323 -19.782  -0.260  0.00  0.00     0.019 A 
ATOM     24  H   UNL d   1      19.531 -18.047  -1.221  0.00  0.00     0.128 HD
ATOM     25  C   UNL d   1      18.142 -20.530  -0.522  0.00  0.00     0.024 A 
ATOM     26  C   UNL d   1      20.191 -19.685   0.832  0.00  0.00    -0.011 A 
ATOM     27  C   UNL d   1      17.591 -21.424   0.344  0.00  0.00     0.002 A 
ATOM     28  C   UNL d   1      18.299 -21.542   1.507  0.00  0.00     0.001 A 
ATOM     29  C   UNL d   1      19.566 -20.680   1.819  0.00  0.00     0.013 A 
ENDBRANCH  19  20
ENDBRANCH  18  19
ENDBRANCH   2  18
TORSDOF 7
ENDMDL
