MODEL 1
REMARK VINA RESULT:    -8.261      0.000      0.000
REMARK INTER + INTRA:         -14.316
REMARK INTER:                 -11.840
REMARK INTRA:                  -2.476
REMARK CONF_INDEPENDENT:        3.580
REMARK UNBOUND:                -2.476
REMARK  12 active torsions:
REMARK  status: ('A' for Active; 'I' for Inactive)
REMARK    1  A    between atoms: C_15  and  O_16 
REMARK    2  A    between atoms: C_15  and  C_17 
REMARK    3  A    between atoms: C_17  and  C_19 
REMARK    4  A    between atoms: C_19  and  O_20 
REMARK    5  A    between atoms: O_20  and  C_21 
REMARK    6  A    between atoms: C_21  and  C_23 
REMARK    7  A    between atoms: C_23  and  C_24 
REMARK    8  A    between atoms: C_24  and  C_25 
REMARK       I    between atoms: C_25  and  N_27 
REMARK    9  A    between atoms: N_27  and  C_28 
REMARK   10  A    between atoms: C_28  and  C_29 
REMARK   11  A    between atoms: C_29  and  C_30 
REMARK   12  A    between atoms: C_30  and  N_31 
ROOT
ATOM      1  C   UNL d   1      30.782 -15.818  -6.939  0.00  0.00     0.016 C 
ATOM      2  C   UNL d   1      30.525 -15.225  -5.514  0.00  0.00    -0.027 C 
ATOM      3  C   UNL d   1      31.916 -15.070  -4.892  0.00  0.00     0.018 C 
ATOM      4  C   UNL d   1      31.748 -14.985  -3.393  0.00  0.00     0.083 C 
ATOM      5  C   UNL d   1      31.586 -16.462  -3.039  0.00  0.00     0.146 C 
ATOM      6  O   UNL d   1      31.983 -16.914  -1.989  0.00  0.00    -0.294 OA
ATOM      7  C   UNL d   1      30.604 -17.202  -4.015  0.00  0.00     0.035 C 
ATOM      8  C   UNL d   1      29.826 -16.289  -4.616  0.00  0.00     0.000 C 
ATOM      9  C   UNL d   1      28.994 -15.843  -3.467  0.00  0.00     0.016 C 
ATOM     10  C   UNL d   1      28.683 -14.405  -3.441  0.00  0.00     0.006 C 
ATOM     11  C   UNL d   1      29.384 -13.272  -4.132  0.00  0.00    -0.005 C 
ATOM     12  C   UNL d   1      28.332 -12.124  -4.108  0.00  0.00     0.002 C 
ATOM     13  C   UNL d   1      27.550 -11.938  -2.715  0.00  0.00     0.009 C 
ATOM     14  C   UNL d   1      26.069 -12.293  -2.992  0.00  0.00     0.047 C 
ATOM     15  C   UNL d   1      26.042 -13.159  -4.253  0.00  0.00     0.128 C 
ATOM     16  C   UNL d   1      27.163 -12.382  -5.114  0.00  0.00    -0.002 C 
ATOM     17  C   UNL d   1      26.696 -10.968  -5.564  0.00  0.00     0.019 C 
ATOM     18  C   UNL d   1      27.449 -13.100  -6.434  0.00  0.00     0.013 C 
ATOM     19  C   UNL d   1      28.693 -13.924  -6.584  0.00  0.00     0.007 C 
ATOM     20  C   UNL d   1      29.821 -13.802  -5.556  0.00  0.00    -0.001 C 
ENDROOT
BRANCH  15  21
ATOM     21  O   UNL d   1      24.772 -13.028  -4.893  0.00  0.00    -0.381 OA
ATOM     22  H   UNL d   1      24.857 -12.323  -5.557  0.00  0.00     0.211 HD
ENDBRANCH  15  21
BRANCH  15  23
ATOM     23  C   UNL d   1      26.082 -14.782  -4.095  0.00  0.00     0.185 C 
ATOM     24  O   UNL d   1      26.529 -15.513  -4.995  0.00  0.00    -0.292 OA
BRANCH  23  25
ATOM     25  C   UNL d   1      25.531 -15.478  -2.839  0.00  0.00     0.260 C 
BRANCH  25  26
ATOM     26  O   UNL d   1      26.565 -15.745  -1.861  0.00  0.00    -0.314 OA
BRANCH  26  27
ATOM     27  C   UNL d   1      26.663 -14.945  -0.768  0.00  0.00     0.259 C 
ATOM     28  O   UNL d   1      26.409 -13.783  -0.785  0.00  0.00    -0.265 OA
BRANCH  27  29
ATOM     29  C   UNL d   1      27.147 -15.725   0.469  0.00  0.00     0.120 C 
BRANCH  29  30
ATOM     30  C   UNL d   1      27.662 -17.082  -0.024  0.00  0.00     0.112 C 
BRANCH  30  31
ATOM     31  C   UNL d   1      26.667 -18.213   0.143  0.00  0.00     0.217 C 
ATOM     32  O   UNL d   1      26.948 -19.289   0.659  0.00  0.00    -0.274 OA
ATOM     33  N   UNL d   1      25.397 -17.942  -0.339  0.00  0.00    -0.361 N 
ATOM     34  H   UNL d   1      25.209 -17.039  -0.761  0.00  0.00     0.162 HD
BRANCH  33  35
ATOM     35  C   UNL d   1      24.358 -18.951  -0.233  0.00  0.00     0.124 C 
BRANCH  35  36
ATOM     36  C   UNL d   1      23.170 -18.660  -1.132  0.00  0.00     0.040 C 
BRANCH  36  37
ATOM     37  C   UNL d   1      22.008 -18.025  -0.371  0.00  0.00     0.130 C 
BRANCH  37  38
ATOM     38  N   UNL d   1      20.849 -18.932  -0.227  0.00  0.00    -0.352 N 
ATOM     39  C   UNL d   1      20.374 -19.528   0.940  0.00  0.00     0.108 A 
ATOM     40  C   UNL d   1      19.236 -20.205   0.614  0.00  0.00     0.106 A 
ATOM     41  N   UNL d   1      19.066 -20.038  -0.738  0.00  0.00    -0.361 N 
ATOM     42  C   UNL d   1      20.047 -19.287  -1.249  0.00  0.00     0.182 A 
ATOM     43  H   UNL d   1      18.299 -20.425  -1.283  0.00  0.00     0.166 HD
ENDBRANCH  37  38
ENDBRANCH  36  37
ENDBRANCH  35  36
ENDBRANCH  33  35
ENDBRANCH  30  31
ENDBRANCH  29  30
ENDBRANCH  27  29
ENDBRANCH  26  27
ENDBRANCH  25  26
ENDBRANCH  23  25
ENDBRANCH  15  23
TORSDOF 12
ENDMDL
MODEL 2
REMARK VINA RESULT:    -8.119      1.830      4.530
REMARK INTER + INTRA:         -15.082
REMARK INTER:                 -11.699
REMARK INTRA:                  -3.383
REMARK CONF_INDEPENDENT:        3.580
REMARK UNBOUND:                -3.383
REMARK  12 active torsions:
REMARK  status: ('A' for Active; 'I' for Inactive)
REMARK    1  A    between atoms: C_15  and  O_16 
REMARK    2  A    between atoms: C_15  and  C_17 
REMARK    3  A    between atoms: C_17  and  C_19 
REMARK    4  A    between atoms: C_19  and  O_20 
REMARK    5  A    between atoms: O_20  and  C_21 
REMARK    6  A    between atoms: C_21  and  C_23 
REMARK    7  A    between atoms: C_23  and  C_24 
REMARK    8  A    between atoms: C_24  and  C_25 
REMARK       I    between atoms: C_25  and  N_27 
REMARK    9  A    between atoms: N_27  and  C_28 
REMARK   10  A    between atoms: C_28  and  C_29 
REMARK   11  A    between atoms: C_29  and  C_30 
REMARK   12  A    between atoms: C_30  and  N_31 
ROOT
ATOM      1  C   UNL d   1      29.178  -9.459  -5.375  0.00  0.00     0.016 C 
ATOM      2  C   UNL d   1      27.864 -10.307  -5.319  0.00  0.00    -0.027 C 
ATOM      3  C   UNL d   1      26.947  -9.689  -6.379  0.00  0.00     0.018 C 
ATOM      4  C   UNL d   1      25.529 -10.098  -6.062  0.00  0.00     0.083 C 
ATOM      5  C   UNL d   1      25.182  -9.099  -4.959  0.00  0.00     0.146 C 
ATOM      6  O   UNL d   1      24.058  -8.676  -4.812  0.00  0.00    -0.294 OA
ATOM      7  C   UNL d   1      26.335  -8.957  -3.904  0.00  0.00     0.035 C 
ATOM      8  C   UNL d   1      27.120 -10.043  -3.976  0.00  0.00     0.000 C 
ATOM      9  C   UNL d   1      26.201 -11.078  -3.433  0.00  0.00     0.016 C 
ATOM     10  C   UNL d   1      26.284 -12.393  -4.089  0.00  0.00     0.006 C 
ATOM     11  C   UNL d   1      26.827 -12.743  -5.443  0.00  0.00    -0.005 C 
ATOM     12  C   UNL d   1      27.071 -14.278  -5.351  0.00  0.00     0.002 C 
ATOM     13  C   UNL d   1      25.897 -15.120  -4.645  0.00  0.00     0.009 C 
ATOM     14  C   UNL d   1      26.492 -15.693  -3.336  0.00  0.00     0.047 C 
ATOM     15  C   UNL d   1      27.704 -14.829  -2.978  0.00  0.00     0.128 C 
ATOM     16  C   UNL d   1      28.309 -14.620  -4.458  0.00  0.00    -0.002 C 
ATOM     17  C   UNL d   1      28.889 -15.934  -5.056  0.00  0.00     0.019 C 
ATOM     18  C   UNL d   1      29.510 -13.675  -4.441  0.00  0.00     0.013 C 
ATOM     19  C   UNL d   1      29.354 -12.257  -4.903  0.00  0.00     0.007 C 
ATOM     20  C   UNL d   1      28.101 -11.836  -5.675  0.00  0.00    -0.001 C 
ENDROOT
BRANCH  15  21
ATOM     21  O   UNL d   1      28.618 -15.595  -2.192  0.00  0.00    -0.381 OA
ATOM     22  H   UNL d   1      28.897 -15.033  -1.449  0.00  0.00     0.211 HD
ENDBRANCH  15  21
BRANCH  15  23
ATOM     23  C   UNL d   1      27.499 -13.563  -1.970  0.00  0.00     0.185 C 
ATOM     24  O   UNL d   1      28.334 -12.646  -1.899  0.00  0.00    -0.292 OA
BRANCH  23  25
ATOM     25  C   UNL d   1      26.280 -13.471  -1.036  0.00  0.00     0.260 C 
BRANCH  25  26
ATOM     26  O   UNL d   1      26.370 -14.393   0.076  0.00  0.00    -0.314 OA
BRANCH  26  27
ATOM     27  C   UNL d   1      27.594 -14.817   0.486  0.00  0.00     0.259 C 
ATOM     28  O   UNL d   1      28.566 -14.133   0.452  0.00  0.00    -0.265 OA
BRANCH  27  29
ATOM     29  C   UNL d   1      27.557 -16.275   0.983  0.00  0.00     0.120 C 
BRANCH  29  30
ATOM     30  C   UNL d   1      27.065 -17.139  -0.184  0.00  0.00     0.112 C 
BRANCH  30  31
ATOM     31  C   UNL d   1      25.602 -17.524  -0.088  0.00  0.00     0.217 C 
ATOM     32  O   UNL d   1      25.211 -18.572   0.414  0.00  0.00    -0.274 OA
ATOM     33  N   UNL d   1      24.724 -16.593  -0.619  0.00  0.00    -0.361 N 
ATOM     34  H   UNL d   1      25.091 -15.740  -1.027  0.00  0.00     0.162 HD
BRANCH  33  35
ATOM     35  C   UNL d   1      23.295 -16.853  -0.583  0.00  0.00     0.124 C 
BRANCH  35  36
ATOM     36  C   UNL d   1      22.923 -18.160  -1.261  0.00  0.00     0.040 C 
BRANCH  36  37
ATOM     37  C   UNL d   1      22.558 -19.251  -0.257  0.00  0.00     0.130 C 
BRANCH  37  38
ATOM     38  N   UNL d   1      21.110 -19.553  -0.235  0.00  0.00    -0.352 N 
ATOM     39  C   UNL d   1      20.367 -20.081   0.820  0.00  0.00     0.108 A 
ATOM     40  C   UNL d   1      19.063 -20.103   0.423  0.00  0.00     0.106 A 
ATOM     41  N   UNL d   1      19.047 -19.627  -0.864  0.00  0.00    -0.361 N 
ATOM     42  C   UNL d   1      20.282 -19.313  -1.268  0.00  0.00     0.182 A 
ATOM     43  H   UNL d   1      18.213 -19.520  -1.438  0.00  0.00     0.166 HD
ENDBRANCH  37  38
ENDBRANCH  36  37
ENDBRANCH  35  36
ENDBRANCH  33  35
ENDBRANCH  30  31
ENDBRANCH  29  30
ENDBRANCH  27  29
ENDBRANCH  26  27
ENDBRANCH  25  26
ENDBRANCH  23  25
ENDBRANCH  15  23
TORSDOF 12
ENDMDL
MODEL 3
REMARK VINA RESULT:    -8.061      1.526      4.313
REMARK INTER + INTRA:         -14.834
REMARK INTER:                 -11.641
REMARK INTRA:                  -3.193
REMARK CONF_INDEPENDENT:        3.580
REMARK UNBOUND:                -3.193
REMARK  12 active torsions:
REMARK  status: ('A' for Active; 'I' for Inactive)
REMARK    1  A    between atoms: C_15  and  O_16 
REMARK    2  A    between atoms: C_15  and  C_17 
REMARK    3  A    between atoms: C_17  and  C_19 
REMARK    4  A    between atoms: C_19  and  O_20 
REMARK    5  A    between atoms: O_20  and  C_21 
REMARK    6  A    between atoms: C_21  and  C_23 
REMARK    7  A    between atoms: C_23  and  C_24 
REMARK    8  A    between atoms: C_24  and  C_25 
REMARK       I    between atoms: C_25  and  N_27 
REMARK    9  A    between atoms: N_27  and  C_28 
REMARK   10  A    between atoms: C_28  and  C_29 
REMARK   11  A    between atoms: C_29  and  C_30 
REMARK   12  A    between atoms: C_30  and  N_31 
ROOT
ATOM      1  C   UNL d   1      27.028 -10.848  -4.204  0.00  0.00     0.016 C 
ATOM      2  C   UNL d   1      26.976 -12.395  -4.432  0.00  0.00    -0.027 C 
ATOM      3  C   UNL d   1      25.540 -12.682  -4.881  0.00  0.00     0.018 C 
ATOM      4  C   UNL d   1      25.264 -14.148  -4.645  0.00  0.00     0.083 C 
ATOM      5  C   UNL d   1      24.960 -14.146  -3.148  0.00  0.00     0.146 C 
ATOM      6  O   UNL d   1      24.170 -14.920  -2.657  0.00  0.00    -0.294 OA
ATOM      7  C   UNL d   1      25.987 -13.282  -2.336  0.00  0.00     0.035 C 
ATOM      8  C   UNL d   1      27.102 -13.137  -3.068  0.00  0.00     0.000 C 
ATOM      9  C   UNL d   1      27.629 -14.526  -3.037  0.00  0.00     0.016 C 
ATOM     10  C   UNL d   1      28.248 -14.988  -4.290  0.00  0.00     0.006 C 
ATOM     11  C   UNL d   1      28.074 -14.458  -5.683  0.00  0.00    -0.005 C 
ATOM     12  C   UNL d   1      29.309 -15.024  -6.445  0.00  0.00     0.002 C 
ATOM     13  C   UNL d   1      29.656 -16.564  -6.142  0.00  0.00     0.009 C 
ATOM     14  C   UNL d   1      31.025 -16.572  -5.419  0.00  0.00     0.047 C 
ATOM     15  C   UNL d   1      31.225 -15.179  -4.821  0.00  0.00     0.128 C 
ATOM     16  C   UNL d   1      30.631 -14.297  -6.033  0.00  0.00    -0.002 C 
ATOM     17  C   UNL d   1      31.531 -14.345  -7.302  0.00  0.00     0.019 C 
ATOM     18  C   UNL d   1      30.595 -12.811  -5.677  0.00  0.00     0.013 C 
ATOM     19  C   UNL d   1      29.297 -12.162  -5.300  0.00  0.00     0.007 C 
ATOM     20  C   UNL d   1      27.974 -12.885  -5.566  0.00  0.00    -0.001 C 
ENDROOT
BRANCH  15  21
ATOM     21  O   UNL d   1      32.622 -14.918  -4.680  0.00  0.00    -0.381 OA
ATOM     22  H   UNL d   1      32.716 -14.198  -4.033  0.00  0.00     0.211 HD
ENDBRANCH  15  21
BRANCH  15  23
ATOM     23  C   UNL d   1      30.759 -14.907  -3.281  0.00  0.00     0.185 C 
ATOM     24  O   UNL d   1      30.586 -13.756  -2.846  0.00  0.00    -0.292 OA
BRANCH  23  25
ATOM     25  C   UNL d   1      30.552 -16.066  -2.291  0.00  0.00     0.260 C 
BRANCH  25  26
ATOM     26  O   UNL d   1      29.687 -15.699  -1.189  0.00  0.00    -0.314 OA
BRANCH  26  27
ATOM     27  C   UNL d   1      28.945 -16.661  -0.582  0.00  0.00     0.259 C 
ATOM     28  O   UNL d   1      28.958 -17.802  -0.917  0.00  0.00    -0.265 OA
BRANCH  27  29
ATOM     29  C   UNL d   1      28.097 -16.087   0.569  0.00  0.00     0.120 C 
BRANCH  29  30
ATOM     30  C   UNL d   1      26.696 -15.816   0.007  0.00  0.00     0.112 C 
BRANCH  30  31
ATOM     31  C   UNL d   1      25.850 -17.063  -0.156  0.00  0.00     0.217 C 
ATOM     32  O   UNL d   1      26.071 -18.111   0.440  0.00  0.00    -0.274 OA
ATOM     33  N   UNL d   1      24.793 -16.932  -1.042  0.00  0.00    -0.361 N 
ATOM     34  H   UNL d   1      24.648 -16.046  -1.514  0.00  0.00     0.162 HD
BRANCH  33  35
ATOM     35  C   UNL d   1      23.911 -18.061  -1.278  0.00  0.00     0.124 C 
BRANCH  35  36
ATOM     36  C   UNL d   1      22.480 -17.781  -0.855  0.00  0.00     0.040 C 
BRANCH  36  37
ATOM     37  C   UNL d   1      22.075 -18.579   0.383  0.00  0.00     0.130 C 
BRANCH  37  38
ATOM     38  N   UNL d   1      20.737 -19.197   0.258  0.00  0.00    -0.352 N 
ATOM     39  C   UNL d   1      19.977 -19.790   1.264  0.00  0.00     0.108 A 
ATOM     40  C   UNL d   1      18.780 -20.139   0.712  0.00  0.00     0.106 A 
ATOM     41  N   UNL d   1      18.853 -19.789  -0.613  0.00  0.00    -0.361 N 
ATOM     42  C   UNL d   1      20.039 -19.239  -0.892  0.00  0.00     0.182 A 
ATOM     43  H   UNL d   1      18.109 -19.922  -1.295  0.00  0.00     0.166 HD
ENDBRANCH  37  38
ENDBRANCH  36  37
ENDBRANCH  35  36
ENDBRANCH  33  35
ENDBRANCH  30  31
ENDBRANCH  29  30
ENDBRANCH  27  29
ENDBRANCH  26  27
ENDBRANCH  25  26
ENDBRANCH  23  25
ENDBRANCH  15  23
TORSDOF 12
ENDMDL
MODEL 4
REMARK VINA RESULT:    -7.283      3.115      5.050
REMARK INTER + INTRA:         -14.597
REMARK INTER:                 -10.863
REMARK INTRA:                  -3.735
REMARK CONF_INDEPENDENT:        3.580
REMARK UNBOUND:                -3.735
REMARK  12 active torsions:
REMARK  status: ('A' for Active; 'I' for Inactive)
REMARK    1  A    between atoms: C_15  and  O_16 
REMARK    2  A    between atoms: C_15  and  C_17 
REMARK    3  A    between atoms: C_17  and  C_19 
REMARK    4  A    between atoms: C_19  and  O_20 
REMARK    5  A    between atoms: O_20  and  C_21 
REMARK    6  A    between atoms: C_21  and  C_23 
REMARK    7  A    between atoms: C_23  and  C_24 
REMARK    8  A    between atoms: C_24  and  C_25 
REMARK       I    between atoms: C_25  and  N_27 
REMARK    9  A    between atoms: N_27  and  C_28 
REMARK   10  A    between atoms: C_28  and  C_29 
REMARK   11  A    between atoms: C_29  and  C_30 
REMARK   12  A    between atoms: C_30  and  N_31 
ROOT
ATOM      1  C   UNL d   1      30.591 -16.667  -5.482  0.00  0.00     0.016 C 
ATOM      2  C   UNL d   1      30.186 -15.853  -4.209  0.00  0.00    -0.027 C 
ATOM      3  C   UNL d   1      31.493 -15.645  -3.437  0.00  0.00     0.018 C 
ATOM      4  C   UNL d   1      31.141 -15.325  -2.004  0.00  0.00     0.083 C 
ATOM      5  C   UNL d   1      30.860 -16.724  -1.458  0.00  0.00     0.146 C 
ATOM      6  O   UNL d   1      31.098 -17.019  -0.309  0.00  0.00    -0.294 OA
ATOM      7  C   UNL d   1      29.974 -17.575  -2.434  0.00  0.00     0.035 C 
ATOM      8  C   UNL d   1      29.326 -16.742  -3.263  0.00  0.00     0.000 C 
ATOM      9  C   UNL d   1      28.379 -16.098  -2.315  0.00  0.00     0.016 C 
ATOM     10  C   UNL d   1      28.140 -14.665  -2.546  0.00  0.00     0.006 C 
ATOM     11  C   UNL d   1      28.980 -13.675  -3.298  0.00  0.00    -0.005 C 
ATOM     12  C   UNL d   1      27.993 -12.505  -3.587  0.00  0.00     0.002 C 
ATOM     13  C   UNL d   1      27.052 -12.082  -2.354  0.00  0.00     0.009 C 
ATOM     14  C   UNL d   1      25.601 -12.429  -2.769  0.00  0.00     0.047 C 
ATOM     15  C   UNL d   1      25.691 -13.478  -3.879  0.00  0.00     0.128 C 
ATOM     16  C   UNL d   1      26.949 -12.880  -4.689  0.00  0.00    -0.002 C 
ATOM     17  C   UNL d   1      26.615 -11.539  -5.404  0.00  0.00     0.019 C 
ATOM     18  C   UNL d   1      27.363 -13.802  -5.837  0.00  0.00     0.013 C 
ATOM     19  C   UNL d   1      28.573 -14.677  -5.695  0.00  0.00     0.007 C 
ATOM     20  C   UNL d   1      29.566 -14.433  -4.556  0.00  0.00    -0.001 C 
ENDROOT
BRANCH  15  21
ATOM     21  O   UNL d   1      24.520 -13.409  -4.694  0.00  0.00    -0.381 OA
ATOM     22  H   UNL d   1      24.405 -12.479  -4.952  0.00  0.00     0.211 HD
ENDBRANCH  15  21
BRANCH  15  23
ATOM     23  C   UNL d   1      25.628 -15.058  -3.476  0.00  0.00     0.185 C 
ATOM     24  O   UNL d   1      25.934 -15.949  -4.285  0.00  0.00    -0.292 OA
BRANCH  23  25
ATOM     25  C   UNL d   1      25.149 -15.512  -2.086  0.00  0.00     0.260 C 
BRANCH  25  26
ATOM     26  O   UNL d   1      25.190 -16.951  -1.934  0.00  0.00    -0.314 OA
BRANCH  26  27
ATOM     27  C   UNL d   1      25.230 -17.483  -0.684  0.00  0.00     0.259 C 
ATOM     28  O   UNL d   1      24.272 -17.580   0.013  0.00  0.00    -0.265 OA
BRANCH  27  29
ATOM     29  C   UNL d   1      26.654 -17.926  -0.298  0.00  0.00     0.120 C 
BRANCH  29  30
ATOM     30  C   UNL d   1      27.033 -17.166   0.979  0.00  0.00     0.112 C 
BRANCH  30  31
ATOM     31  C   UNL d   1      27.502 -15.746   0.731  0.00  0.00     0.217 C 
ATOM     32  O   UNL d   1      26.739 -14.816   0.495  0.00  0.00    -0.274 OA
ATOM     33  N   UNL d   1      28.875 -15.572   0.788  0.00  0.00    -0.361 N 
ATOM     34  H   UNL d   1      29.468 -16.371   0.984  0.00  0.00     0.162 HD
BRANCH  33  35
ATOM     35  C   UNL d   1      29.440 -14.253   0.568  0.00  0.00     0.124 C 
BRANCH  35  36
ATOM     36  C   UNL d   1      29.101 -13.280   1.683  0.00  0.00     0.040 C 
BRANCH  36  37
ATOM     37  C   UNL d   1      30.013 -13.448   2.897  0.00  0.00     0.130 C 
BRANCH  37  38
ATOM     38  N   UNL d   1      29.271 -13.766   4.136  0.00  0.00    -0.352 N 
ATOM     39  C   UNL d   1      28.197 -13.069   4.687  0.00  0.00     0.108 A 
ATOM     40  C   UNL d   1      27.775 -13.773   5.775  0.00  0.00     0.106 A 
ATOM     41  N   UNL d   1      28.616 -14.853   5.882  0.00  0.00    -0.361 N 
ATOM     42  C   UNL d   1      29.529 -14.839   4.906  0.00  0.00     0.182 A 
ATOM     43  H   UNL d   1      28.556 -15.572   6.600  0.00  0.00     0.166 HD
ENDBRANCH  37  38
ENDBRANCH  36  37
ENDBRANCH  35  36
ENDBRANCH  33  35
ENDBRANCH  30  31
ENDBRANCH  29  30
ENDBRANCH  27  29
ENDBRANCH  26  27
ENDBRANCH  25  26
ENDBRANCH  23  25
ENDBRANCH  15  23
TORSDOF 12
ENDMDL
MODEL 5
REMARK VINA RESULT:    -6.429      3.587      7.225
REMARK INTER + INTRA:         -14.571
REMARK INTER:                 -10.008
REMARK INTRA:                  -4.562
REMARK CONF_INDEPENDENT:        3.580
REMARK UNBOUND:                -4.562
REMARK  12 active torsions:
REMARK  status: ('A' for Active; 'I' for Inactive)
REMARK    1  A    between atoms: C_15  and  O_16 
REMARK    2  A    between atoms: C_15  and  C_17 
REMARK    3  A    between atoms: C_17  and  C_19 
REMARK    4  A    between atoms: C_19  and  O_20 
REMARK    5  A    between atoms: O_20  and  C_21 
REMARK    6  A    between atoms: C_21  and  C_23 
REMARK    7  A    between atoms: C_23  and  C_24 
REMARK    8  A    between atoms: C_24  and  C_25 
REMARK       I    between atoms: C_25  and  N_27 
REMARK    9  A    between atoms: N_27  and  C_28 
REMARK   10  A    between atoms: C_28  and  C_29 
REMARK   11  A    between atoms: C_29  and  C_30 
REMARK   12  A    between atoms: C_30  and  N_31 
ROOT
ATOM      1  C   UNL d   1      28.855 -17.738  -0.718  0.00  0.00     0.016 C 
ATOM      2  C   UNL d   1      27.713 -16.775  -0.251  0.00  0.00    -0.027 C 
ATOM      3  C   UNL d   1      26.591 -17.696   0.235  0.00  0.00     0.018 C 
ATOM      4  C   UNL d   1      25.305 -16.903   0.230  0.00  0.00     0.083 C 
ATOM      5  C   UNL d   1      24.931 -16.973  -1.249  0.00  0.00     0.146 C 
ATOM      6  O   UNL d   1      23.777 -16.993  -1.614  0.00  0.00    -0.294 OA
ATOM      7  C   UNL d   1      26.160 -16.700  -2.186  0.00  0.00     0.035 C 
ATOM      8  C   UNL d   1      27.098 -16.046  -1.483  0.00  0.00     0.000 C 
ATOM      9  C   UNL d   1      26.432 -14.731  -1.297  0.00  0.00     0.016 C 
ATOM     10  C   UNL d   1      26.652 -14.098   0.013  0.00  0.00     0.006 C 
ATOM     11  C   UNL d   1      27.083 -14.724   1.306  0.00  0.00    -0.005 C 
ATOM     12  C   UNL d   1      27.585 -13.514   2.147  0.00  0.00     0.002 C 
ATOM     13  C   UNL d   1      26.655 -12.204   2.088  0.00  0.00     0.009 C 
ATOM     14  C   UNL d   1      27.485 -11.107   1.376  0.00  0.00     0.047 C 
ATOM     15  C   UNL d   1      28.572 -11.820   0.569  0.00  0.00     0.128 C 
ATOM     16  C   UNL d   1      28.958 -12.972   1.629  0.00  0.00    -0.002 C 
ATOM     17  C   UNL d   1      29.672 -12.407   2.890  0.00  0.00     0.019 C 
ATOM     18  C   UNL d   1      29.981 -13.947   1.046  0.00  0.00     0.013 C 
ATOM     19  C   UNL d   1      29.541 -15.299   0.572  0.00  0.00     0.007 C 
ATOM     20  C   UNL d   1      28.155 -15.829   0.946  0.00  0.00    -0.001 C 
ENDROOT
BRANCH  15  21
ATOM     21  O   UNL d   1      29.685 -10.943   0.391  0.00  0.00    -0.381 OA
ATOM     22  H   UNL d   1      30.115 -11.192  -0.445  0.00  0.00     0.211 HD
ENDBRANCH  15  21
BRANCH  15  23
ATOM     23  C   UNL d   1      28.281 -12.184  -0.995  0.00  0.00     0.185 C 
ATOM     24  O   UNL d   1      29.055 -12.902  -1.651  0.00  0.00    -0.292 OA
BRANCH  23  25
ATOM     25  C   UNL d   1      27.055 -11.621  -1.733  0.00  0.00     0.260 C 
BRANCH  25  26
ATOM     26  O   UNL d   1      26.917 -12.170  -3.065  0.00  0.00    -0.314 OA
BRANCH  26  27
ATOM     27  C   UNL d   1      25.853 -11.800  -3.826  0.00  0.00     0.259 C 
ATOM     28  O   UNL d   1      25.255 -10.786  -3.659  0.00  0.00    -0.265 OA
BRANCH  27  29
ATOM     29  C   UNL d   1      25.529 -12.851  -4.904  0.00  0.00     0.120 C 
BRANCH  29  30
ATOM     30  C   UNL d   1      25.813 -14.229  -4.294  0.00  0.00     0.112 C 
BRANCH  30  31
ATOM     31  C   UNL d   1      27.108 -14.856  -4.772  0.00  0.00     0.217 C 
ATOM     32  O   UNL d   1      27.187 -15.563  -5.770  0.00  0.00    -0.274 OA
ATOM     33  N   UNL d   1      28.213 -14.571  -3.986  0.00  0.00    -0.361 N 
ATOM     34  H   UNL d   1      28.101 -13.982  -3.168  0.00  0.00     0.162 HD
BRANCH  33  35
ATOM     35  C   UNL d   1      29.510 -15.116  -4.347  0.00  0.00     0.124 C 
BRANCH  35  36
ATOM     36  C   UNL d   1      29.647 -16.583  -3.979  0.00  0.00     0.040 C 
BRANCH  36  37
ATOM     37  C   UNL d   1      30.196 -17.421  -5.132  0.00  0.00     0.130 C 
BRANCH  37  38
ATOM     38  N   UNL d   1      30.497 -18.814  -4.739  0.00  0.00    -0.352 N 
ATOM     39  C   UNL d   1      31.203 -19.248  -3.618  0.00  0.00     0.108 A 
ATOM     40  C   UNL d   1      31.155 -20.611  -3.614  0.00  0.00     0.106 A 
ATOM     41  N   UNL d   1      30.460 -20.973  -4.741  0.00  0.00    -0.361 N 
ATOM     42  C   UNL d   1      30.080 -19.892  -5.430  0.00  0.00     0.182 A 
ATOM     43  H   UNL d   1      30.255 -21.930  -5.020  0.00  0.00     0.166 HD
ENDBRANCH  37  38
ENDBRANCH  36  37
ENDBRANCH  35  36
ENDBRANCH  33  35
ENDBRANCH  30  31
ENDBRANCH  29  30
ENDBRANCH  27  29
ENDBRANCH  26  27
ENDBRANCH  25  26
ENDBRANCH  23  25
ENDBRANCH  15  23
TORSDOF 12
ENDMDL
MODEL 6
REMARK VINA RESULT:    -6.182      3.471      7.620
REMARK INTER + INTRA:         -14.752
REMARK INTER:                  -9.761
REMARK INTRA:                  -4.991
REMARK CONF_INDEPENDENT:        3.580
REMARK UNBOUND:                -4.991
REMARK  12 active torsions:
REMARK  status: ('A' for Active; 'I' for Inactive)
REMARK    1  A    between atoms: C_15  and  O_16 
REMARK    2  A    between atoms: C_15  and  C_17 
REMARK    3  A    between atoms: C_17  and  C_19 
REMARK    4  A    between atoms: C_19  and  O_20 
REMARK    5  A    between atoms: O_20  and  C_21 
REMARK    6  A    between atoms: C_21  and  C_23 
REMARK    7  A    between atoms: C_23  and  C_24 
REMARK    8  A    between atoms: C_24  and  C_25 
REMARK       I    between atoms: C_25  and  N_27 
REMARK    9  A    between atoms: N_27  and  C_28 
REMARK   10  A    between atoms: C_28  and  C_29 
REMARK   11  A    between atoms: C_29  and  C_30 
REMARK   12  A    between atoms: C_30  and  N_31 
ROOT
ATOM      1  C   UNL d   1      28.809 -17.689  -0.892  0.00  0.00     0.016 C 
ATOM      2  C   UNL d   1      27.679 -16.750  -0.351  0.00  0.00    -0.027 C 
ATOM      3  C   UNL d   1      26.587 -17.695   0.158  0.00  0.00     0.018 C 
ATOM      4  C   UNL d   1      25.295 -16.916   0.230  0.00  0.00     0.083 C 
ATOM      5  C   UNL d   1      24.858 -16.950  -1.233  0.00  0.00     0.146 C 
ATOM      6  O   UNL d   1      23.690 -16.972  -1.550  0.00  0.00    -0.294 OA
ATOM      7  C   UNL d   1      26.043 -16.638  -2.214  0.00  0.00     0.035 C 
ATOM      8  C   UNL d   1      27.005 -15.995  -1.534  0.00  0.00     0.000 C 
ATOM      9  C   UNL d   1      26.335 -14.692  -1.284  0.00  0.00     0.016 C 
ATOM     10  C   UNL d   1      26.606 -14.092   0.033  0.00  0.00     0.006 C 
ATOM     11  C   UNL d   1      27.098 -14.749   1.289  0.00  0.00    -0.005 C 
ATOM     12  C   UNL d   1      27.625 -13.557   2.141  0.00  0.00     0.002 C 
ATOM     13  C   UNL d   1      26.681 -12.255   2.157  0.00  0.00     0.009 C 
ATOM     14  C   UNL d   1      27.471 -11.132   1.441  0.00  0.00     0.047 C 
ATOM     15  C   UNL d   1      28.528 -11.811   0.569  0.00  0.00     0.128 C 
ATOM     16  C   UNL d   1      28.969 -12.987   1.580  0.00  0.00    -0.002 C 
ATOM     17  C   UNL d   1      29.732 -12.449   2.824  0.00  0.00     0.019 C 
ATOM     18  C   UNL d   1      29.976 -13.936   0.927  0.00  0.00     0.013 C 
ATOM     19  C   UNL d   1      29.528 -15.279   0.434  0.00  0.00     0.007 C 
ATOM     20  C   UNL d   1      28.163 -15.833   0.853  0.00  0.00    -0.001 C 
ENDROOT
BRANCH  15  21
ATOM     21  O   UNL d   1      29.624 -10.918   0.368  0.00  0.00    -0.381 OA
ATOM     22  H   UNL d   1      29.950 -11.063  -0.537  0.00  0.00     0.211 HD
ENDBRANCH  15  21
BRANCH  15  23
ATOM     23  C   UNL d   1      28.173 -12.135  -0.990  0.00  0.00     0.185 C 
ATOM     24  O   UNL d   1      28.833 -12.955  -1.651  0.00  0.00    -0.292 OA
BRANCH  23  25
ATOM     25  C   UNL d   1      27.030 -11.409  -1.719  0.00  0.00     0.260 C 
BRANCH  25  26
ATOM     26  O   UNL d   1      26.520 -12.172  -2.839  0.00  0.00    -0.314 OA
BRANCH  26  27
ATOM     27  C   UNL d   1      25.861 -11.525  -3.835  0.00  0.00     0.259 C 
ATOM     28  O   UNL d   1      25.555 -10.377  -3.775  0.00  0.00    -0.265 OA
BRANCH  27  29
ATOM     29  C   UNL d   1      25.561 -12.459  -5.022  0.00  0.00     0.120 C 
BRANCH  29  30
ATOM     30  C   UNL d   1      25.468 -13.885  -4.465  0.00  0.00     0.112 C 
BRANCH  30  31
ATOM     31  C   UNL d   1      26.659 -14.757  -4.811  0.00  0.00     0.217 C 
ATOM     32  O   UNL d   1      26.653 -15.575  -5.724  0.00  0.00    -0.274 OA
ATOM     33  N   UNL d   1      27.771 -14.562  -4.008  0.00  0.00    -0.361 N 
ATOM     34  H   UNL d   1      27.731 -13.876  -3.263  0.00  0.00     0.162 HD
BRANCH  33  35
ATOM     35  C   UNL d   1      28.973 -15.341  -4.247  0.00  0.00     0.124 C 
BRANCH  35  36
ATOM     36  C   UNL d   1      30.228 -14.640  -3.759  0.00  0.00     0.040 C 
BRANCH  36  37
ATOM     37  C   UNL d   1      30.833 -13.726  -4.823  0.00  0.00     0.130 C 
BRANCH  37  38
ATOM     38  N   UNL d   1      29.879 -13.387  -5.901  0.00  0.00    -0.352 N 
ATOM     39  C   UNL d   1      28.956 -12.343  -5.922  0.00  0.00     0.108 A 
ATOM     40  C   UNL d   1      28.358 -12.359  -7.148  0.00  0.00     0.106 A 
ATOM     41  N   UNL d   1      28.898 -13.424  -7.824  0.00  0.00    -0.361 N 
ATOM     42  C   UNL d   1      29.801 -14.055  -7.066  0.00  0.00     0.182 A 
ATOM     43  H   UNL d   1      28.654 -13.699  -8.772  0.00  0.00     0.166 HD
ENDBRANCH  37  38
ENDBRANCH  36  37
ENDBRANCH  35  36
ENDBRANCH  33  35
ENDBRANCH  30  31
ENDBRANCH  29  30
ENDBRANCH  27  29
ENDBRANCH  26  27
ENDBRANCH  25  26
ENDBRANCH  23  25
ENDBRANCH  15  23
TORSDOF 12
ENDMDL
MODEL 7
REMARK VINA RESULT:    -5.952      4.148      6.829
REMARK INTER + INTRA:         -14.276
REMARK INTER:                  -9.531
REMARK INTRA:                  -4.744
REMARK CONF_INDEPENDENT:        3.580
REMARK UNBOUND:                -4.744
REMARK  12 active torsions:
REMARK  status: ('A' for Active; 'I' for Inactive)
REMARK    1  A    between atoms: C_15  and  O_16 
REMARK    2  A    between atoms: C_15  and  C_17 
REMARK    3  A    between atoms: C_17  and  C_19 
REMARK    4  A    between atoms: C_19  and  O_20 
REMARK    5  A    between atoms: O_20  and  C_21 
REMARK    6  A    between atoms: C_21  and  C_23 
REMARK    7  A    between atoms: C_23  and  C_24 
REMARK    8  A    between atoms: C_24  and  C_25 
REMARK       I    between atoms: C_25  and  N_27 
REMARK    9  A    between atoms: N_27  and  C_28 
REMARK   10  A    between atoms: C_28  and  C_29 
REMARK   11  A    between atoms: C_29  and  C_30 
REMARK   12  A    between atoms: C_30  and  N_31 
ROOT
ATOM      1  C   UNL d   1      27.084 -17.085   0.624  0.00  0.00     0.016 C 
ATOM      2  C   UNL d   1      27.953 -16.499  -0.539  0.00  0.00    -0.027 C 
ATOM      3  C   UNL d   1      28.995 -17.579  -0.840  0.00  0.00     0.018 C 
ATOM      4  C   UNL d   1      30.145 -16.926  -1.568  0.00  0.00     0.083 C 
ATOM      5  C   UNL d   1      30.906 -16.300  -0.400  0.00  0.00     0.146 C 
ATOM      6  O   UNL d   1      32.110 -16.186  -0.412  0.00  0.00    -0.294 OA
ATOM      7  C   UNL d   1      29.950 -15.573   0.609  0.00  0.00     0.035 C 
ATOM      8  C   UNL d   1      28.795 -15.296  -0.017  0.00  0.00     0.000 C 
ATOM      9  C   UNL d   1      29.246 -14.250  -0.971  0.00  0.00     0.016 C 
ATOM     10  C   UNL d   1      28.620 -14.305  -2.302  0.00  0.00     0.006 C 
ATOM     11  C   UNL d   1      27.927 -15.454  -2.975  0.00  0.00    -0.005 C 
ATOM     12  C   UNL d   1      27.095 -14.769  -4.099  0.00  0.00     0.002 C 
ATOM     13  C   UNL d   1      27.865 -13.620  -4.920  0.00  0.00     0.009 C 
ATOM     14  C   UNL d   1      27.145 -12.289  -4.594  0.00  0.00     0.047 C 
ATOM     15  C   UNL d   1      26.394 -12.495  -3.277  0.00  0.00     0.128 C 
ATOM     16  C   UNL d   1      25.862 -13.997  -3.525  0.00  0.00    -0.002 C 
ATOM     17  C   UNL d   1      24.781 -14.071  -4.642  0.00  0.00     0.019 C 
ATOM     18  C   UNL d   1      25.138 -14.543  -2.293  0.00  0.00     0.013 C 
ATOM     19  C   UNL d   1      25.828 -15.524  -1.393  0.00  0.00     0.007 C 
ATOM     20  C   UNL d   1      27.112 -16.217  -1.856  0.00  0.00    -0.001 C 
ENDROOT
BRANCH  15  21
ATOM     21  O   UNL d   1      25.283 -11.599  -3.218  0.00  0.00    -0.381 OA
ATOM     22  H   UNL d   1      25.623 -10.709  -3.413  0.00  0.00     0.211 HD
ENDBRANCH  15  21
BRANCH  15  23
ATOM     23  C   UNL d   1      27.127 -12.086  -1.879  0.00  0.00     0.185 C 
ATOM     24  O   UNL d   1      26.664 -12.424  -0.777  0.00  0.00    -0.292 OA
BRANCH  23  25
ATOM     25  C   UNL d   1      28.405 -11.229  -1.866  0.00  0.00     0.260 C 
BRANCH  25  26
ATOM     26  O   UNL d   1      28.169  -9.900  -1.344  0.00  0.00    -0.314 OA
BRANCH  26  27
ATOM     27  C   UNL d   1      27.249  -9.105  -1.950  0.00  0.00     0.259 C 
ATOM     28  O   UNL d   1      26.735  -9.377  -2.987  0.00  0.00    -0.265 OA
BRANCH  27  29
ATOM     29  C   UNL d   1      26.972  -7.828  -1.134  0.00  0.00     0.120 C 
BRANCH  29  30
ATOM     30  C   UNL d   1      25.693  -8.076  -0.325  0.00  0.00     0.112 C 
BRANCH  30  31
ATOM     31  C   UNL d   1      25.938  -8.710   1.029  0.00  0.00     0.217 C 
ATOM     32  O   UNL d   1      25.695  -8.148   2.092  0.00  0.00    -0.274 OA
ATOM     33  N   UNL d   1      26.467  -9.989   0.981  0.00  0.00    -0.361 N 
ATOM     34  H   UNL d   1      26.654 -10.415   0.080  0.00  0.00     0.162 HD
BRANCH  33  35
ATOM     35  C   UNL d   1      26.742 -10.699   2.218  0.00  0.00     0.124 C 
BRANCH  35  36
ATOM     36  C   UNL d   1      27.903 -11.669   2.087  0.00  0.00     0.040 C 
BRANCH  36  37
ATOM     37  C   UNL d   1      27.515 -13.095   2.471  0.00  0.00     0.130 C 
BRANCH  37  38
ATOM     38  N   UNL d   1      28.422 -13.688   3.477  0.00  0.00    -0.352 N 
ATOM     39  C   UNL d   1      28.092 -14.574   4.502  0.00  0.00     0.108 A 
ATOM     40  C   UNL d   1      29.256 -14.924   5.121  0.00  0.00     0.106 A 
ATOM     41  N   UNL d   1      30.252 -14.222   4.490  0.00  0.00    -0.361 N 
ATOM     42  C   UNL d   1      29.748 -13.463   3.512  0.00  0.00     0.182 A 
ATOM     43  H   UNL d   1      31.241 -14.271   4.725  0.00  0.00     0.166 HD
ENDBRANCH  37  38
ENDBRANCH  36  37
ENDBRANCH  35  36
ENDBRANCH  33  35
ENDBRANCH  30  31
ENDBRANCH  29  30
ENDBRANCH  27  29
ENDBRANCH  26  27
ENDBRANCH  25  26
ENDBRANCH  23  25
ENDBRANCH  15  23
TORSDOF 12
ENDMDL
MODEL 8
REMARK VINA RESULT:    -5.787      4.586      7.802
REMARK INTER + INTRA:         -14.315
REMARK INTER:                  -9.366
REMARK INTRA:                  -4.949
REMARK CONF_INDEPENDENT:        3.580
REMARK UNBOUND:                -4.949
REMARK  12 active torsions:
REMARK  status: ('A' for Active; 'I' for Inactive)
REMARK    1  A    between atoms: C_15  and  O_16 
REMARK    2  A    between atoms: C_15  and  C_17 
REMARK    3  A    between atoms: C_17  and  C_19 
REMARK    4  A    between atoms: C_19  and  O_20 
REMARK    5  A    between atoms: O_20  and  C_21 
REMARK    6  A    between atoms: C_21  and  C_23 
REMARK    7  A    between atoms: C_23  and  C_24 
REMARK    8  A    between atoms: C_24  and  C_25 
REMARK       I    between atoms: C_25  and  N_27 
REMARK    9  A    between atoms: N_27  and  C_28 
REMARK   10  A    between atoms: C_28  and  C_29 
REMARK   11  A    between atoms: C_29  and  C_30 
REMARK   12  A    between atoms: C_30  and  N_31 
ROOT
ATOM      1  C   UNL d   1      28.773 -13.556  -5.038  0.00  0.00     0.016 C 
ATOM      2  C   UNL d   1      27.805 -14.077  -3.925  0.00  0.00    -0.027 C 
ATOM      3  C   UNL d   1      26.909 -15.103  -4.625  0.00  0.00     0.018 C 
ATOM      4  C   UNL d   1      25.664 -15.280  -3.789  0.00  0.00     0.083 C 
ATOM      5  C   UNL d   1      24.856 -14.055  -4.214  0.00  0.00     0.146 C 
ATOM      6  O   UNL d   1      23.647 -14.074  -4.261  0.00  0.00    -0.294 OA
ATOM      7  C   UNL d   1      25.732 -12.754  -4.259  0.00  0.00     0.035 C 
ATOM      8  C   UNL d   1      26.824 -12.944  -3.502  0.00  0.00     0.000 C 
ATOM      9  C   UNL d   1      26.213 -12.973  -2.147  0.00  0.00     0.016 C 
ATOM     10  C   UNL d   1      26.808 -13.942  -1.213  0.00  0.00     0.006 C 
ATOM     11  C   UNL d   1      27.630 -15.161  -1.511  0.00  0.00    -0.005 C 
ATOM     12  C   UNL d   1      28.335 -15.465  -0.157  0.00  0.00     0.002 C 
ATOM     13  C   UNL d   1      27.399 -15.349   1.145  0.00  0.00     0.009 C 
ATOM     14  C   UNL d   1      27.943 -14.160   1.974  0.00  0.00     0.047 C 
ATOM     15  C   UNL d   1      28.748 -13.277   1.018  0.00  0.00     0.128 C 
ATOM     16  C   UNL d   1      29.469 -14.433   0.156  0.00  0.00    -0.002 C 
ATOM     17  C   UNL d   1      30.521 -15.226   0.984  0.00  0.00     0.019 C 
ATOM     18  C   UNL d   1      30.289 -13.844  -0.992  0.00  0.00     0.013 C 
ATOM     19  C   UNL d   1      29.759 -13.895  -2.394  0.00  0.00     0.007 C 
ATOM     20  C   UNL d   1      28.568 -14.795  -2.731  0.00  0.00    -0.001 C 
ENDROOT
BRANCH  15  21
ATOM     21  O   UNL d   1      29.729 -12.549   1.756  0.00  0.00    -0.381 OA
ATOM     22  H   UNL d   1      30.151 -11.928   1.137  0.00  0.00     0.211 HD
ENDBRANCH  15  21
BRANCH  15  23
ATOM     23  C   UNL d   1      28.001 -12.026   0.283  0.00  0.00     0.185 C 
ATOM     24  O   UNL d   1      26.837 -11.702   0.573  0.00  0.00    -0.292 OA
BRANCH  23  25
ATOM     25  C   UNL d   1      28.695 -11.219  -0.827  0.00  0.00     0.260 C 
BRANCH  25  26
ATOM     26  O   UNL d   1      29.736 -10.356  -0.310  0.00  0.00    -0.314 OA
BRANCH  26  27
ATOM     27  C   UNL d   1      29.481  -9.597   0.788  0.00  0.00     0.259 C 
ATOM     28  O   UNL d   1      29.863  -9.880   1.878  0.00  0.00    -0.265 OA
BRANCH  27  29
ATOM     29  C   UNL d   1      28.642  -8.354   0.439  0.00  0.00     0.120 C 
BRANCH  29  30
ATOM     30  C   UNL d   1      27.174  -8.708   0.707  0.00  0.00     0.112 C 
BRANCH  30  31
ATOM     31  C   UNL d   1      26.842  -8.872   2.177  0.00  0.00     0.217 C 
ATOM     32  O   UNL d   1      26.192  -8.054   2.818  0.00  0.00    -0.274 OA
ATOM     33  N   UNL d   1      27.336 -10.030   2.755  0.00  0.00    -0.361 N 
ATOM     34  H   UNL d   1      27.871 -10.679   2.188  0.00  0.00     0.162 HD
BRANCH  33  35
ATOM     35  C   UNL d   1      27.079 -10.297   4.159  0.00  0.00     0.124 C 
BRANCH  35  36
ATOM     36  C   UNL d   1      28.323 -10.749   4.903  0.00  0.00     0.040 C 
BRANCH  36  37
ATOM     37  C   UNL d   1      28.009 -11.770   5.994  0.00  0.00     0.130 C 
BRANCH  37  38
ATOM     38  N   UNL d   1      28.661 -13.077   5.765  0.00  0.00    -0.352 N 
ATOM     39  C   UNL d   1      29.871 -13.528   6.290  0.00  0.00     0.108 A 
ATOM     40  C   UNL d   1      30.030 -14.820   5.884  0.00  0.00     0.106 A 
ATOM     41  N   UNL d   1      28.944 -15.111   5.098  0.00  0.00    -0.361 N 
ATOM     42  C   UNL d   1      28.128 -14.056   5.010  0.00  0.00     0.182 A 
ATOM     43  H   UNL d   1      28.773 -16.006   4.644  0.00  0.00     0.166 HD
ENDBRANCH  37  38
ENDBRANCH  36  37
ENDBRANCH  35  36
ENDBRANCH  33  35
ENDBRANCH  30  31
ENDBRANCH  29  30
ENDBRANCH  27  29
ENDBRANCH  26  27
ENDBRANCH  25  26
ENDBRANCH  23  25
ENDBRANCH  15  23
TORSDOF 12
ENDMDL
