MODEL 1
REMARK VINA RESULT:    -9.326      0.000      0.000
REMARK INTER + INTRA:         -11.676
REMARK INTER:                 -11.116
REMARK INTRA:                  -0.560
REMARK CONF_INDEPENDENT:        1.790
REMARK UNBOUND:                -0.560
REMARK  6 active torsions:
REMARK  status: ('A' for Active; 'I' for Inactive)
REMARK    1  A    between atoms: C_2  and  C_3 
REMARK       I    between atoms: C_2  and  N_23 
REMARK    2  A    between atoms: C_3  and  N_4 
REMARK    3  A    between atoms: C_6  and  N_7 
REMARK       I    between atoms: N_7  and  C_8 
REMARK    4  A    between atoms: C_8  and  C_10 
REMARK    5  A    between atoms: C_15  and  O_16 
REMARK    6  A    between atoms: N_23  and  C_24 
ROOT
ATOM      1  N   UNL d   1      25.343 -15.122  -1.838  0.00  0.00    -0.320 N 
ATOM      2  C   UNL d   1      25.598 -15.207  -3.204  0.00  0.00     0.259 C 
ATOM      3  O   UNL d   1      25.524 -16.229  -3.888  0.00  0.00    -0.267 OA
ATOM      4  H   UNL d   1      25.443 -14.237  -1.358  0.00  0.00     0.169 HD
ENDROOT
BRANCH   1   5
ATOM      5  C   UNL d   1      24.863 -16.195  -1.096  0.00  0.00     0.071 A 
ATOM      6  C   UNL d   1      23.557 -16.601  -0.987  0.00  0.00     0.144 A 
ATOM      7  N   UNL d   1      23.527 -17.626  -0.092  0.00  0.00    -0.270 N 
ATOM      8  N   UNL d   1      24.761 -18.021   0.295  0.00  0.00    -0.182 NA
ATOM      9  C   UNL d   1      25.563 -17.113  -0.278  0.00  0.00     0.169 A 
BRANCH   7  10
ATOM     10  C   UNL d   1      22.352 -18.414   0.244  0.00  0.00     0.253 C 
BRANCH  10  11
ATOM     11  C   UNL d   1      21.752 -19.173  -0.930  0.00  0.00     0.237 C 
ATOM     12  O   UNL d   1      22.316 -19.329  -2.012  0.00  0.00    -0.272 OA
ATOM     13  N   UNL d   1      20.509 -19.746  -0.780  0.00  0.00    -0.355 N 
ATOM     14  H   UNL d   1      20.182 -20.193  -1.632  0.00  0.00     0.162 HD
BRANCH  13  15
ATOM     15  C   UNL d   1      19.611 -19.654   0.357  0.00  0.00     0.084 C 
ATOM     16  C   UNL d   1      18.448 -20.648   0.303  0.00  0.00     0.025 C 
ATOM     17  C   UNL d   1      17.960 -20.723   1.749  0.00  0.00     0.002 C 
ATOM     18  C   UNL d   1      19.181 -20.453   2.616  0.00  0.00     0.002 C 
ATOM     19  C   UNL d   1      20.288 -20.049   1.665  0.00  0.00     0.025 C 
ENDBRANCH  13  15
ENDBRANCH  10  11
ENDBRANCH   7  10
ENDBRANCH   1   5
BRANCH   2  20
ATOM     20  C   UNL d   1      26.047 -13.966  -3.884  0.00  0.00     0.066 A 
ATOM     21  C   UNL d   1      25.814 -12.717  -3.297  0.00  0.00     0.027 A 
ATOM     22  C   UNL d   1      26.342 -11.548  -3.876  0.00  0.00    -0.051 A 
ATOM     23  C   UNL d   1      27.087 -11.633  -5.070  0.00  0.00    -0.049 A 
ATOM     24  C   UNL d   1      26.061 -10.216  -3.218  0.00  0.00     0.039 C 
ATOM     25  C   UNL d   1      27.341 -12.890  -5.638  0.00  0.00     0.045 A 
ATOM     26  C   UNL d   1      27.663 -10.399  -5.730  0.00  0.00     0.039 C 
ATOM     27  C   UNL d   1      26.817 -14.045  -5.053  0.00  0.00     0.082 A 
ATOM     28  C   UNL d   1      26.996  -9.114  -5.246  0.00  0.00     0.005 C 
ATOM     29  C   UNL d   1      26.977  -9.102  -3.723  0.00  0.00     0.005 C 
BRANCH  27  30
ATOM     30  O   UNL d   1      27.035 -15.255  -5.651  0.00  0.00    -0.360 OA
ATOM     31  H   UNL d   1      27.937 -15.564  -5.483  0.00  0.00     0.217 HD
ENDBRANCH  27  30
ENDBRANCH   2  20
TORSDOF 6
ENDMDL
MODEL 2
REMARK VINA RESULT:    -8.968      1.808      2.886
REMARK INTER + INTRA:         -11.926
REMARK INTER:                 -10.758
REMARK INTRA:                  -1.168
REMARK CONF_INDEPENDENT:        1.790
REMARK UNBOUND:                -1.168
REMARK  6 active torsions:
REMARK  status: ('A' for Active; 'I' for Inactive)
REMARK    1  A    between atoms: C_2  and  C_3 
REMARK       I    between atoms: C_2  and  N_23 
REMARK    2  A    between atoms: C_3  and  N_4 
REMARK    3  A    between atoms: C_6  and  N_7 
REMARK       I    between atoms: N_7  and  C_8 
REMARK    4  A    between atoms: C_8  and  C_10 
REMARK    5  A    between atoms: C_15  and  O_16 
REMARK    6  A    between atoms: N_23  and  C_24 
ROOT
ATOM      1  N   UNL d   1      26.294 -16.402  -2.225  0.00  0.00    -0.320 N 
ATOM      2  C   UNL d   1      25.726 -15.400  -3.007  0.00  0.00     0.259 C 
ATOM      3  O   UNL d   1      24.538 -15.072  -3.004  0.00  0.00    -0.267 OA
ATOM      4  H   UNL d   1      27.281 -16.610  -2.305  0.00  0.00     0.169 HD
ENDROOT
BRANCH   1   5
ATOM      5  C   UNL d   1      25.580 -17.091  -1.251  0.00  0.00     0.071 A 
ATOM      6  C   UNL d   1      24.235 -17.360  -1.253  0.00  0.00     0.144 A 
ATOM      7  N   UNL d   1      23.944 -17.970  -0.071  0.00  0.00    -0.270 N 
ATOM      8  N   UNL d   1      25.047 -18.252   0.660  0.00  0.00    -0.182 NA
ATOM      9  C   UNL d   1      26.030 -17.667  -0.039  0.00  0.00     0.169 A 
BRANCH   7  10
ATOM     10  C   UNL d   1      22.646 -18.513   0.298  0.00  0.00     0.253 C 
BRANCH  10  11
ATOM     11  C   UNL d   1      21.495 -18.024  -0.569  0.00  0.00     0.237 C 
ATOM     12  O   UNL d   1      21.541 -17.015  -1.272  0.00  0.00    -0.272 OA
ATOM     13  N   UNL d   1      20.330 -18.757  -0.595  0.00  0.00    -0.355 N 
ATOM     14  H   UNL d   1      19.613 -18.325  -1.170  0.00  0.00     0.162 HD
BRANCH  13  15
ATOM     15  C   UNL d   1      19.995 -19.935   0.184  0.00  0.00     0.084 C 
ATOM     16  C   UNL d   1      19.860 -19.662   1.684  0.00  0.00     0.025 C 
ATOM     17  C   UNL d   1      19.053 -20.850   2.204  0.00  0.00     0.002 C 
ATOM     18  C   UNL d   1      18.167 -21.291   1.047  0.00  0.00     0.002 C 
ATOM     19  C   UNL d   1      18.611 -20.481  -0.152  0.00  0.00     0.025 C 
ENDBRANCH  13  15
ENDBRANCH  10  11
ENDBRANCH   7  10
ENDBRANCH   1   5
BRANCH   2  20
ATOM     20  C   UNL d   1      26.620 -14.703  -3.963  0.00  0.00     0.066 A 
ATOM     21  C   UNL d   1      27.758 -15.349  -4.463  0.00  0.00     0.027 A 
ATOM     22  C   UNL d   1      28.543 -14.739  -5.459  0.00  0.00    -0.051 A 
ATOM     23  C   UNL d   1      28.197 -13.458  -5.937  0.00  0.00    -0.049 A 
ATOM     24  C   UNL d   1      29.768 -15.463  -5.968  0.00  0.00     0.039 C 
ATOM     25  C   UNL d   1      27.041 -12.829  -5.453  0.00  0.00     0.045 A 
ATOM     26  C   UNL d   1      29.020 -12.764  -7.001  0.00  0.00     0.039 C 
ATOM     27  C   UNL d   1      26.266 -13.444  -4.468  0.00  0.00     0.082 A 
ATOM     28  C   UNL d   1      30.417 -13.364  -7.139  0.00  0.00     0.005 C 
ATOM     29  C   UNL d   1      30.303 -14.877  -7.274  0.00  0.00     0.005 C 
BRANCH  27  30
ATOM     30  O   UNL d   1      25.171 -12.791  -3.974  0.00  0.00    -0.360 OA
ATOM     31  H   UNL d   1      24.384 -13.353  -4.023  0.00  0.00     0.217 HD
ENDBRANCH  27  30
ENDBRANCH   2  20
TORSDOF 6
ENDMDL
MODEL 3
REMARK VINA RESULT:    -8.616      6.236      8.560
REMARK INTER + INTRA:         -11.980
REMARK INTER:                 -10.406
REMARK INTRA:                  -1.574
REMARK CONF_INDEPENDENT:        1.790
REMARK UNBOUND:                -1.574
REMARK  6 active torsions:
REMARK  status: ('A' for Active; 'I' for Inactive)
REMARK    1  A    between atoms: C_2  and  C_3 
REMARK       I    between atoms: C_2  and  N_23 
REMARK    2  A    between atoms: C_3  and  N_4 
REMARK    3  A    between atoms: C_6  and  N_7 
REMARK       I    between atoms: N_7  and  C_8 
REMARK    4  A    between atoms: C_8  and  C_10 
REMARK    5  A    between atoms: C_15  and  O_16 
REMARK    6  A    between atoms: N_23  and  C_24 
ROOT
ATOM      1  N   UNL d   1      28.274 -14.347   2.111  0.00  0.00    -0.320 N 
ATOM      2  C   UNL d   1      27.890 -13.245   2.870  0.00  0.00     0.259 C 
ATOM      3  O   UNL d   1      27.294 -12.252   2.447  0.00  0.00    -0.267 OA
ATOM      4  H   UNL d   1      28.773 -15.112   2.545  0.00  0.00     0.169 HD
ENDROOT
BRANCH   1   5
ATOM      5  C   UNL d   1      27.924 -14.497   0.774  0.00  0.00     0.071 A 
ATOM      6  C   UNL d   1      26.839 -13.946   0.140  0.00  0.00     0.144 A 
ATOM      7  N   UNL d   1      26.830 -14.426  -1.134  0.00  0.00    -0.270 N 
ATOM      8  N   UNL d   1      27.930 -15.156  -1.428  0.00  0.00    -0.182 NA
ATOM      9  C   UNL d   1      28.563 -15.238  -0.249  0.00  0.00     0.169 A 
BRANCH   7  10
ATOM     10  C   UNL d   1      25.903 -14.020  -2.178  0.00  0.00     0.253 C 
BRANCH  10  11
ATOM     11  C   UNL d   1      25.494 -15.143  -3.121  0.00  0.00     0.237 C 
ATOM     12  O   UNL d   1      25.530 -15.062  -4.347  0.00  0.00    -0.272 OA
ATOM     13  N   UNL d   1      25.074 -16.338  -2.581  0.00  0.00    -0.355 N 
ATOM     14  H   UNL d   1      24.785 -17.004  -3.291  0.00  0.00     0.162 HD
BRANCH  13  15
ATOM     15  C   UNL d   1      24.875 -16.668  -1.181  0.00  0.00     0.084 C 
ATOM     16  C   UNL d   1      23.705 -17.624  -0.935  0.00  0.00     0.025 C 
ATOM     17  C   UNL d   1      23.985 -18.201   0.451  0.00  0.00     0.002 C 
ATOM     18  C   UNL d   1      25.499 -18.200   0.605  0.00  0.00     0.002 C 
ATOM     19  C   UNL d   1      26.041 -17.460  -0.600  0.00  0.00     0.025 C 
ENDBRANCH  13  15
ENDBRANCH  10  11
ENDBRANCH   7  10
ENDBRANCH   1   5
BRANCH   2  20
ATOM     20  C   UNL d   1      28.277 -13.244   4.302  0.00  0.00     0.066 A 
ATOM     21  C   UNL d   1      28.510 -12.034   4.969  0.00  0.00     0.027 A 
ATOM     22  C   UNL d   1      28.760 -12.021   6.353  0.00  0.00    -0.051 A 
ATOM     23  C   UNL d   1      28.804 -13.236   7.069  0.00  0.00    -0.049 A 
ATOM     24  C   UNL d   1      29.016 -10.698   7.037  0.00  0.00     0.039 C 
ATOM     25  C   UNL d   1      28.542 -14.441   6.401  0.00  0.00     0.045 A 
ATOM     26  C   UNL d   1      29.080 -13.266   8.557  0.00  0.00     0.039 C 
ATOM     27  C   UNL d   1      28.290 -14.444   5.028  0.00  0.00     0.082 A 
ATOM     28  C   UNL d   1      29.719 -11.973   9.056  0.00  0.00     0.005 C 
ATOM     29  C   UNL d   1      28.905 -10.785   8.558  0.00  0.00     0.005 C 
BRANCH  27  30
ATOM     30  O   UNL d   1      28.087 -15.634   4.387  0.00  0.00    -0.360 OA
ATOM     31  H   UNL d   1      28.907 -15.950   3.980  0.00  0.00     0.217 HD
ENDBRANCH  27  30
ENDBRANCH   2  20
TORSDOF 6
ENDMDL
MODEL 4
REMARK VINA RESULT:    -8.580      1.946      2.587
REMARK INTER + INTRA:         -11.660
REMARK INTER:                 -10.370
REMARK INTRA:                  -1.290
REMARK CONF_INDEPENDENT:        1.790
REMARK UNBOUND:                -1.290
REMARK  6 active torsions:
REMARK  status: ('A' for Active; 'I' for Inactive)
REMARK    1  A    between atoms: C_2  and  C_3 
REMARK       I    between atoms: C_2  and  N_23 
REMARK    2  A    between atoms: C_3  and  N_4 
REMARK    3  A    between atoms: C_6  and  N_7 
REMARK       I    between atoms: N_7  and  C_8 
REMARK    4  A    between atoms: C_8  and  C_10 
REMARK    5  A    between atoms: C_15  and  O_16 
REMARK    6  A    between atoms: N_23  and  C_24 
ROOT
ATOM      1  N   UNL d   1      26.984 -15.831  -3.057  0.00  0.00    -0.320 N 
ATOM      2  C   UNL d   1      26.367 -15.086  -4.058  0.00  0.00     0.259 C 
ATOM      3  O   UNL d   1      25.152 -14.935  -4.196  0.00  0.00    -0.267 OA
ATOM      4  H   UNL d   1      27.993 -15.909  -3.032  0.00  0.00     0.169 HD
ENDROOT
BRANCH   1   5
ATOM      5  C   UNL d   1      26.278 -16.417  -2.013  0.00  0.00     0.071 A 
ATOM      6  C   UNL d   1      24.963 -16.805  -2.024  0.00  0.00     0.144 A 
ATOM      7  N   UNL d   1      24.660 -17.242  -0.771  0.00  0.00    -0.270 N 
ATOM      8  N   UNL d   1      25.741 -17.301   0.040  0.00  0.00    -0.182 NA
ATOM      9  C   UNL d   1      26.709 -16.748  -0.706  0.00  0.00     0.169 A 
BRANCH   7  10
ATOM     10  C   UNL d   1      23.394 -17.836  -0.371  0.00  0.00     0.253 C 
BRANCH  10  11
ATOM     11  C   UNL d   1      22.168 -17.096  -0.884  0.00  0.00     0.237 C 
ATOM     12  O   UNL d   1      22.173 -15.922  -1.251  0.00  0.00    -0.272 OA
ATOM     13  N   UNL d   1      20.974 -17.776  -0.967  0.00  0.00    -0.355 N 
ATOM     14  H   UNL d   1      20.211 -17.184  -1.282  0.00  0.00     0.162 HD
BRANCH  13  15
ATOM     15  C   UNL d   1      20.683 -19.133  -0.538  0.00  0.00     0.084 C 
ATOM     16  C   UNL d   1      20.740 -19.322   0.979  0.00  0.00     0.025 C 
ATOM     17  C   UNL d   1      19.950 -20.607   1.220  0.00  0.00     0.002 C 
ATOM     18  C   UNL d   1      18.914 -20.674   0.108  0.00  0.00     0.002 C 
ATOM     19  C   UNL d   1      19.246 -19.543  -0.842  0.00  0.00     0.025 C 
ENDBRANCH  13  15
ENDBRANCH  10  11
ENDBRANCH   7  10
ENDBRANCH   1   5
BRANCH   2  20
ATOM     20  C   UNL d   1      27.248 -14.462  -5.075  0.00  0.00     0.066 A 
ATOM     21  C   UNL d   1      26.952 -13.190  -5.580  0.00  0.00     0.027 A 
ATOM     22  C   UNL d   1      27.846 -12.544  -6.453  0.00  0.00    -0.051 A 
ATOM     23  C   UNL d   1      29.035 -13.195  -6.845  0.00  0.00    -0.049 A 
ATOM     24  C   UNL d   1      27.489 -11.175  -6.984  0.00  0.00     0.039 C 
ATOM     25  C   UNL d   1      29.340 -14.456  -6.315  0.00  0.00     0.045 A 
ATOM     26  C   UNL d   1      30.018 -12.539  -7.790  0.00  0.00     0.039 C 
ATOM     27  C   UNL d   1      28.448 -15.087  -5.444  0.00  0.00     0.082 A 
ATOM     28  C   UNL d   1      29.394 -11.387  -8.573  0.00  0.00     0.005 C 
ATOM     29  C   UNL d   1      28.681 -10.450  -7.606  0.00  0.00     0.005 C 
BRANCH  27  30
ATOM     30  O   UNL d   1      28.741 -16.339  -4.978  0.00  0.00    -0.360 OA
ATOM     31  H   UNL d   1      29.695 -16.441  -4.846  0.00  0.00     0.217 HD
ENDBRANCH  27  30
ENDBRANCH   2  20
TORSDOF 6
ENDMDL
MODEL 5
REMARK VINA RESULT:    -8.492      7.014      9.321
REMARK INTER + INTRA:         -11.586
REMARK INTER:                 -10.282
REMARK INTRA:                  -1.304
REMARK CONF_INDEPENDENT:        1.790
REMARK UNBOUND:                -1.304
REMARK  6 active torsions:
REMARK  status: ('A' for Active; 'I' for Inactive)
REMARK    1  A    between atoms: C_2  and  C_3 
REMARK       I    between atoms: C_2  and  N_23 
REMARK    2  A    between atoms: C_3  and  N_4 
REMARK    3  A    between atoms: C_6  and  N_7 
REMARK       I    between atoms: N_7  and  C_8 
REMARK    4  A    between atoms: C_8  and  C_10 
REMARK    5  A    between atoms: C_15  and  O_16 
REMARK    6  A    between atoms: N_23  and  C_24 
ROOT
ATOM      1  N   UNL d   1      28.354 -14.395   3.439  0.00  0.00    -0.320 N 
ATOM      2  C   UNL d   1      28.161 -13.320   4.301  0.00  0.00     0.259 C 
ATOM      3  O   UNL d   1      27.546 -12.286   4.035  0.00  0.00    -0.267 OA
ATOM      4  H   UNL d   1      28.887 -15.200   3.743  0.00  0.00     0.169 HD
ENDROOT
BRANCH   1   5
ATOM      5  C   UNL d   1      27.767 -14.464   2.181  0.00  0.00     0.071 A 
ATOM      6  C   UNL d   1      27.740 -15.550   1.343  0.00  0.00     0.144 A 
ATOM      7  N   UNL d   1      27.147 -15.151   0.184  0.00  0.00    -0.270 N 
ATOM      8  N   UNL d   1      26.648 -13.896   0.255  0.00  0.00    -0.182 NA
ATOM      9  C   UNL d   1      27.075 -13.468   1.451  0.00  0.00     0.169 A 
BRANCH   7  10
ATOM     10  C   UNL d   1      26.829 -16.018  -0.939  0.00  0.00     0.253 C 
BRANCH  10  11
ATOM     11  C   UNL d   1      25.775 -15.457  -1.882  0.00  0.00     0.237 C 
ATOM     12  O   UNL d   1      26.011 -14.651  -2.780  0.00  0.00    -0.272 OA
ATOM     13  N   UNL d   1      24.473 -15.884  -1.746  0.00  0.00    -0.355 N 
ATOM     14  H   UNL d   1      23.843 -15.420  -2.394  0.00  0.00     0.162 HD
BRANCH  13  15
ATOM     15  C   UNL d   1      23.920 -16.767  -0.734  0.00  0.00     0.084 C 
ATOM     16  C   UNL d   1      22.404 -16.948  -0.840  0.00  0.00     0.025 C 
ATOM     17  C   UNL d   1      22.131 -18.231  -0.056  0.00  0.00     0.002 C 
ATOM     18  C   UNL d   1      23.387 -19.080  -0.196  0.00  0.00     0.002 C 
ATOM     19  C   UNL d   1      24.410 -18.203  -0.887  0.00  0.00     0.025 C 
ENDBRANCH  13  15
ENDBRANCH  10  11
ENDBRANCH   7  10
ENDBRANCH   1   5
BRANCH   2  20
ATOM     20  C   UNL d   1      28.796 -13.407   5.639  0.00  0.00     0.066 A 
ATOM     21  C   UNL d   1      28.242 -12.722   6.728  0.00  0.00     0.027 A 
ATOM     22  C   UNL d   1      28.768 -12.896   8.021  0.00  0.00    -0.051 A 
ATOM     23  C   UNL d   1      29.878 -13.743   8.217  0.00  0.00    -0.049 A 
ATOM     24  C   UNL d   1      28.149 -12.133   9.170  0.00  0.00     0.039 C 
ATOM     25  C   UNL d   1      30.411 -14.448   7.129  0.00  0.00     0.045 A 
ATOM     26  C   UNL d   1      30.480 -13.950   9.591  0.00  0.00     0.039 C 
ATOM     27  C   UNL d   1      29.879 -14.273   5.849  0.00  0.00     0.082 A 
ATOM     28  C   UNL d   1      30.073 -12.856  10.575  0.00  0.00     0.005 C 
ATOM     29  C   UNL d   1      28.561 -12.682  10.535  0.00  0.00     0.005 C 
BRANCH  27  30
ATOM     30  O   UNL d   1      30.445 -14.931   4.793  0.00  0.00    -0.360 OA
ATOM     31  H   UNL d   1      31.380 -14.695   4.703  0.00  0.00     0.217 HD
ENDBRANCH  27  30
ENDBRANCH   2  20
TORSDOF 6
ENDMDL
MODEL 6
REMARK VINA RESULT:    -8.483      6.324      8.629
REMARK INTER + INTRA:         -11.645
REMARK INTER:                 -10.272
REMARK INTRA:                  -1.373
REMARK CONF_INDEPENDENT:        1.790
REMARK UNBOUND:                -1.373
REMARK  6 active torsions:
REMARK  status: ('A' for Active; 'I' for Inactive)
REMARK    1  A    between atoms: C_2  and  C_3 
REMARK       I    between atoms: C_2  and  N_23 
REMARK    2  A    between atoms: C_3  and  N_4 
REMARK    3  A    between atoms: C_6  and  N_7 
REMARK       I    between atoms: N_7  and  C_8 
REMARK    4  A    between atoms: C_8  and  C_10 
REMARK    5  A    between atoms: C_15  and  O_16 
REMARK    6  A    between atoms: N_23  and  C_24 
ROOT
ATOM      1  N   UNL d   1      27.999 -14.018   2.265  0.00  0.00    -0.320 N 
ATOM      2  C   UNL d   1      27.609 -13.052   3.189  0.00  0.00     0.259 C 
ATOM      3  O   UNL d   1      26.911 -12.066   2.948  0.00  0.00    -0.267 OA
ATOM      4  H   UNL d   1      28.586 -14.789   2.554  0.00  0.00     0.169 HD
ENDROOT
BRANCH   1   5
ATOM      5  C   UNL d   1      27.541 -14.028   0.952  0.00  0.00     0.071 A 
ATOM      6  C   UNL d   1      27.355 -15.128   0.154  0.00  0.00     0.144 A 
ATOM      7  N   UNL d   1      26.988 -14.677  -1.077  0.00  0.00    -0.270 N 
ATOM      8  N   UNL d   1      26.781 -13.340  -1.105  0.00  0.00    -0.182 NA
ATOM      9  C   UNL d   1      27.171 -12.948   0.116  0.00  0.00     0.169 A 
BRANCH   7  10
ATOM     10  C   UNL d   1      26.598 -15.516  -2.198  0.00  0.00     0.253 C 
BRANCH  10  11
ATOM     11  C   UNL d   1      25.266 -15.134  -2.829  0.00  0.00     0.237 C 
ATOM     12  O   UNL d   1      25.155 -14.450  -3.845  0.00  0.00    -0.272 OA
ATOM     13  N   UNL d   1      24.105 -15.595  -2.250  0.00  0.00    -0.355 N 
ATOM     14  H   UNL d   1      23.274 -15.252  -2.722  0.00  0.00     0.162 HD
BRANCH  13  15
ATOM     15  C   UNL d   1      23.957 -16.355  -1.021  0.00  0.00     0.084 C 
ATOM     16  C   UNL d   1      22.533 -16.863  -0.782  0.00  0.00     0.025 C 
ATOM     17  C   UNL d   1      22.710 -17.993   0.230  0.00  0.00     0.002 C 
ATOM     18  C   UNL d   1      24.092 -18.575  -0.032  0.00  0.00     0.002 C 
ATOM     19  C   UNL d   1      24.745 -17.660  -1.047  0.00  0.00     0.025 C 
ENDBRANCH  13  15
ENDBRANCH  10  11
ENDBRANCH   7  10
ENDBRANCH   1   5
BRANCH   2  20
ATOM     20  C   UNL d   1      28.123 -13.199   4.573  0.00  0.00     0.066 A 
ATOM     21  C   UNL d   1      28.318 -12.067   5.376  0.00  0.00     0.027 A 
ATOM     22  C   UNL d   1      28.690 -12.208   6.725  0.00  0.00    -0.051 A 
ATOM     23  C   UNL d   1      28.894 -13.494   7.265  0.00  0.00    -0.049 A 
ATOM     24  C   UNL d   1      28.900 -10.964   7.558  0.00  0.00     0.039 C 
ATOM     25  C   UNL d   1      28.670 -14.624   6.465  0.00  0.00     0.045 A 
ATOM     26  C   UNL d   1      29.304 -13.688   8.710  0.00  0.00     0.039 C 
ATOM     27  C   UNL d   1      28.296 -14.475   5.128  0.00  0.00     0.082 A 
ATOM     28  C   UNL d   1      29.881 -12.416   9.327  0.00  0.00     0.005 C 
ATOM     29  C   UNL d   1      28.934 -11.253   9.058  0.00  0.00     0.005 C 
BRANCH  27  30
ATOM     30  O   UNL d   1      28.131 -15.588   4.352  0.00  0.00    -0.360 OA
ATOM     31  H   UNL d   1      28.980 -15.885   3.992  0.00  0.00     0.217 HD
ENDBRANCH  27  30
ENDBRANCH   2  20
TORSDOF 6
ENDMDL
MODEL 7
REMARK VINA RESULT:    -8.220      5.630      7.900
REMARK INTER + INTRA:         -11.629
REMARK INTER:                 -10.010
REMARK INTRA:                  -1.619
REMARK CONF_INDEPENDENT:        1.790
REMARK UNBOUND:                -1.619
REMARK  6 active torsions:
REMARK  status: ('A' for Active; 'I' for Inactive)
REMARK    1  A    between atoms: C_2  and  C_3 
REMARK       I    between atoms: C_2  and  N_23 
REMARK    2  A    between atoms: C_3  and  N_4 
REMARK    3  A    between atoms: C_6  and  N_7 
REMARK       I    between atoms: N_7  and  C_8 
REMARK    4  A    between atoms: C_8  and  C_10 
REMARK    5  A    between atoms: C_15  and  O_16 
REMARK    6  A    between atoms: N_23  and  C_24 
ROOT
ATOM      1  N   UNL d   1      27.800 -14.907   1.814  0.00  0.00    -0.320 N 
ATOM      2  C   UNL d   1      27.130 -13.751   2.206  0.00  0.00     0.259 C 
ATOM      3  O   UNL d   1      26.304 -13.134   1.530  0.00  0.00    -0.267 OA
ATOM      4  H   UNL d   1      28.473 -15.338   2.435  0.00  0.00     0.169 HD
ENDROOT
BRANCH   1   5
ATOM      5  C   UNL d   1      27.525 -15.567   0.622  0.00  0.00     0.071 A 
ATOM      6  C   UNL d   1      27.069 -15.006  -0.543  0.00  0.00     0.144 A 
ATOM      7  N   UNL d   1      26.847 -16.023  -1.421  0.00  0.00    -0.270 N 
ATOM      8  N   UNL d   1      27.266 -17.221  -0.953  0.00  0.00    -0.182 NA
ATOM      9  C   UNL d   1      27.627 -16.943   0.308  0.00  0.00     0.169 A 
BRANCH   7  10
ATOM     10  C   UNL d   1      26.452 -15.863  -2.811  0.00  0.00     0.253 C 
BRANCH  10  11
ATOM     11  C   UNL d   1      25.155 -15.091  -3.006  0.00  0.00     0.237 C 
ATOM     12  O   UNL d   1      25.006 -14.188  -3.828  0.00  0.00    -0.272 OA
ATOM     13  N   UNL d   1      24.065 -15.427  -2.236  0.00  0.00    -0.355 N 
ATOM     14  H   UNL d   1      23.264 -14.828  -2.414  0.00  0.00     0.162 HD
BRANCH  13  15
ATOM     15  C   UNL d   1      23.994 -16.397  -1.158  0.00  0.00     0.084 C 
ATOM     16  C   UNL d   1      22.607 -16.506  -0.520  0.00  0.00     0.025 C 
ATOM     17  C   UNL d   1      22.633 -17.858   0.191  0.00  0.00     0.002 C 
ATOM     18  C   UNL d   1      23.583 -18.734  -0.614  0.00  0.00     0.002 C 
ATOM     19  C   UNL d   1      24.218 -17.825  -1.644  0.00  0.00     0.025 C 
ENDBRANCH  13  15
ENDBRANCH  10  11
ENDBRANCH   7  10
ENDBRANCH   1   5
BRANCH   2  20
ATOM     20  C   UNL d   1      27.479 -13.187   3.533  0.00  0.00     0.066 A 
ATOM     21  C   UNL d   1      27.958 -14.022   4.550  0.00  0.00     0.027 A 
ATOM     22  C   UNL d   1      28.403 -13.476   5.768  0.00  0.00    -0.051 A 
ATOM     23  C   UNL d   1      28.340 -12.083   5.976  0.00  0.00    -0.049 A 
ATOM     24  C   UNL d   1      28.905 -14.410   6.846  0.00  0.00     0.039 C 
ATOM     25  C   UNL d   1      27.886 -11.249   4.944  0.00  0.00     0.045 A 
ATOM     26  C   UNL d   1      28.800 -11.458   7.276  0.00  0.00     0.039 C 
ATOM     27  C   UNL d   1      27.451 -11.800   3.737  0.00  0.00     0.082 A 
ATOM     28  C   UNL d   1      28.888 -12.474   8.412  0.00  0.00     0.005 C 
ATOM     29  C   UNL d   1      29.684 -13.684   7.942  0.00  0.00     0.005 C 
BRANCH  27  30
ATOM     30  O   UNL d   1      26.965 -10.973   2.762  0.00  0.00    -0.360 OA
ATOM     31  H   UNL d   1      26.486 -11.479   2.089  0.00  0.00     0.217 HD
ENDBRANCH  27  30
ENDBRANCH   2  20
TORSDOF 6
ENDMDL
MODEL 8
REMARK VINA RESULT:    -7.698      6.661      9.752
REMARK INTER + INTRA:         -10.725
REMARK INTER:                  -9.487
REMARK INTRA:                  -1.238
REMARK CONF_INDEPENDENT:        1.790
REMARK UNBOUND:                -1.238
REMARK  6 active torsions:
REMARK  status: ('A' for Active; 'I' for Inactive)
REMARK    1  A    between atoms: C_2  and  C_3 
REMARK       I    between atoms: C_2  and  N_23 
REMARK    2  A    between atoms: C_3  and  N_4 
REMARK    3  A    between atoms: C_6  and  N_7 
REMARK       I    between atoms: N_7  and  C_8 
REMARK    4  A    between atoms: C_8  and  C_10 
REMARK    5  A    between atoms: C_15  and  O_16 
REMARK    6  A    between atoms: N_23  and  C_24 
ROOT
ATOM      1  N   UNL d   1      28.313 -14.631   2.952  0.00  0.00    -0.320 N 
ATOM      2  C   UNL d   1      27.949 -13.611   3.826  0.00  0.00     0.259 C 
ATOM      3  O   UNL d   1      27.129 -12.722   3.592  0.00  0.00    -0.267 OA
ATOM      4  H   UNL d   1      29.009 -15.312   3.229  0.00  0.00     0.169 HD
ENDROOT
BRANCH   1   5
ATOM      5  C   UNL d   1      27.695 -14.822   1.722  0.00  0.00     0.071 A 
ATOM      6  C   UNL d   1      27.515 -16.014   1.068  0.00  0.00     0.144 A 
ATOM      7  N   UNL d   1      26.952 -15.731  -0.140  0.00  0.00    -0.270 N 
ATOM      8  N   UNL d   1      26.616 -14.427  -0.269  0.00  0.00    -0.182 NA
ATOM      9  C   UNL d   1      27.119 -13.874   0.843  0.00  0.00     0.169 A 
BRANCH   7  10
ATOM     10  C   UNL d   1      26.504 -16.717  -1.110  0.00  0.00     0.253 C 
BRANCH  10  11
ATOM     11  C   UNL d   1      25.066 -16.529  -1.572  0.00  0.00     0.237 C 
ATOM     12  O   UNL d   1      24.116 -17.188  -1.156  0.00  0.00    -0.272 OA
ATOM     13  N   UNL d   1      24.795 -15.549  -2.501  0.00  0.00    -0.355 N 
ATOM     14  H   UNL d   1      23.816 -15.532  -2.772  0.00  0.00     0.162 HD
BRANCH  13  15
ATOM     15  C   UNL d   1      25.735 -14.687  -3.196  0.00  0.00     0.084 C 
ATOM     16  C   UNL d   1      26.090 -15.175  -4.602  0.00  0.00     0.025 C 
ATOM     17  C   UNL d   1      26.650 -13.932  -5.293  0.00  0.00     0.002 C 
ATOM     18  C   UNL d   1      25.948 -12.746  -4.648  0.00  0.00     0.002 C 
ATOM     19  C   UNL d   1      25.152 -13.309  -3.490  0.00  0.00     0.025 C 
ENDBRANCH  13  15
ENDBRANCH  10  11
ENDBRANCH   7  10
ENDBRANCH   1   5
BRANCH   2  20
ATOM     20  C   UNL d   1      28.648 -13.562   5.134  0.00  0.00     0.066 A 
ATOM     21  C   UNL d   1      28.141 -12.774   6.175  0.00  0.00     0.027 A 
ATOM     22  C   UNL d   1      28.730 -12.817   7.452  0.00  0.00    -0.051 A 
ATOM     23  C   UNL d   1      29.854 -13.637   7.678  0.00  0.00    -0.049 A 
ATOM     24  C   UNL d   1      28.161 -11.945   8.548  0.00  0.00     0.039 C 
ATOM     25  C   UNL d   1      30.340 -14.445   6.640  0.00  0.00     0.045 A 
ATOM     26  C   UNL d   1      30.523 -13.704   9.034  0.00  0.00     0.039 C 
ATOM     27  C   UNL d   1      29.745 -14.400   5.377  0.00  0.00     0.082 A 
ATOM     28  C   UNL d   1      30.155 -12.519   9.923  0.00  0.00     0.005 C 
ATOM     29  C   UNL d   1      28.641 -12.354   9.940  0.00  0.00     0.005 C 
BRANCH  27  30
ATOM     30  O   UNL d   1      30.266 -15.158   4.365  0.00  0.00    -0.360 OA
ATOM     31  H   UNL d   1      29.727 -15.949   4.217  0.00  0.00     0.217 HD
ENDBRANCH  27  30
ENDBRANCH   2  20
TORSDOF 6
ENDMDL
MODEL 9
REMARK VINA RESULT:    -7.611      7.838      9.682
REMARK INTER + INTRA:         -10.702
REMARK INTER:                  -9.401
REMARK INTRA:                  -1.300
REMARK CONF_INDEPENDENT:        1.790
REMARK UNBOUND:                -1.300
REMARK  6 active torsions:
REMARK  status: ('A' for Active; 'I' for Inactive)
REMARK    1  A    between atoms: C_2  and  C_3 
REMARK       I    between atoms: C_2  and  N_23 
REMARK    2  A    between atoms: C_3  and  N_4 
REMARK    3  A    between atoms: C_6  and  N_7 
REMARK       I    between atoms: N_7  and  C_8 
REMARK    4  A    between atoms: C_8  and  C_10 
REMARK    5  A    between atoms: C_15  and  O_16 
REMARK    6  A    between atoms: N_23  and  C_24 
ROOT
ATOM      1  N   UNL d   1      28.613 -14.703   2.970  0.00  0.00    -0.320 N 
ATOM      2  C   UNL d   1      27.759 -14.016   2.111  0.00  0.00     0.259 C 
ATOM      3  O   UNL d   1      26.969 -13.130   2.440  0.00  0.00    -0.267 OA
ATOM      4  H   UNL d   1      29.220 -15.427   2.609  0.00  0.00     0.169 HD
ENDROOT
BRANCH   1   5
ATOM      5  C   UNL d   1      28.743 -14.381   4.316  0.00  0.00     0.071 A 
ATOM      6  C   UNL d   1      29.488 -13.360   4.849  0.00  0.00     0.144 A 
ATOM      7  N   UNL d   1      29.406 -13.466   6.204  0.00  0.00    -0.270 N 
ATOM      8  N   UNL d   1      28.530 -14.416   6.604  0.00  0.00    -0.182 NA
ATOM      9  C   UNL d   1      28.173 -15.002   5.452  0.00  0.00     0.169 A 
BRANCH   7  10
ATOM     10  C   UNL d   1      29.969 -12.523   7.157  0.00  0.00     0.253 C 
BRANCH  10  11
ATOM     11  C   UNL d   1      28.976 -11.497   7.682  0.00  0.00     0.237 C 
ATOM     12  O   UNL d   1      28.530 -10.565   7.015  0.00  0.00    -0.272 OA
ATOM     13  N   UNL d   1      28.524 -11.618   8.977  0.00  0.00    -0.355 N 
ATOM     14  H   UNL d   1      27.898 -10.862   9.241  0.00  0.00     0.162 HD
BRANCH  13  15
ATOM     15  C   UNL d   1      28.940 -12.576   9.985  0.00  0.00     0.084 C 
ATOM     16  C   UNL d   1      28.151 -12.472  11.293  0.00  0.00     0.025 C 
ATOM     17  C   UNL d   1      28.388 -13.819  11.974  0.00  0.00     0.002 C 
ATOM     18  C   UNL d   1      28.593 -14.824  10.850  0.00  0.00     0.002 C 
ATOM     19  C   UNL d   1      28.656 -14.016   9.571  0.00  0.00     0.025 C 
ENDBRANCH  13  15
ENDBRANCH  10  11
ENDBRANCH   7  10
ENDBRANCH   1   5
BRANCH   2  20
ATOM     20  C   UNL d   1      27.767 -14.424   0.684  0.00  0.00     0.066 A 
ATOM     21  C   UNL d   1      26.651 -14.176  -0.125  0.00  0.00     0.027 A 
ATOM     22  C   UNL d   1      26.698 -14.450  -1.505  0.00  0.00    -0.051 A 
ATOM     23  C   UNL d   1      27.865 -15.004  -2.069  0.00  0.00    -0.049 A 
ATOM     24  C   UNL d   1      25.471 -14.178  -2.345  0.00  0.00     0.039 C 
ATOM     25  C   UNL d   1      28.988 -15.224  -1.259  0.00  0.00     0.045 A 
ATOM     26  C   UNL d   1      27.952 -15.323  -3.547  0.00  0.00     0.039 C 
ATOM     27  C   UNL d   1      28.934 -14.944   0.108  0.00  0.00     0.082 A 
ATOM     28  C   UNL d   1      26.578 -15.407  -4.206  0.00  0.00     0.005 C 
ATOM     29  C   UNL d   1      25.770 -14.168  -3.844  0.00  0.00     0.005 C 
BRANCH  27  30
ATOM     30  O   UNL d   1      30.024 -15.212   0.889  0.00  0.00    -0.360 OA
ATOM     31  H   UNL d   1      29.899 -16.037   1.381  0.00  0.00     0.217 HD
ENDBRANCH  27  30
ENDBRANCH   2  20
TORSDOF 6
ENDMDL
