MODEL 1
REMARK VINA RESULT:   -10.106      0.000      0.000
REMARK INTER + INTRA:         -16.821
REMARK INTER:                 -13.388
REMARK INTRA:                  -3.434
REMARK CONF_INDEPENDENT:        3.281
REMARK UNBOUND:                -3.434
REMARK  11 active torsions:
REMARK  status: ('A' for Active; 'I' for Inactive)
REMARK    1  A    between atoms: C_2  and  C_3 
REMARK    2  A    between atoms: C_3  and  C_4 
REMARK    3  A    between atoms: C_4  and  C_5 
REMARK    4  A    between atoms: N_16  and  C_4 
REMARK    5  A    between atoms: N_9  and  C_10 
REMARK    6  A    between atoms: C_10  and  C_11 
REMARK    7  A    between atoms: C_11  and  O_13 
REMARK    8  A    between atoms: O_13  and  C_14 
REMARK    9  A    between atoms: N_16  and  C_30 
REMARK   10  A    between atoms: N_16  and  C_17 
REMARK   11  A    between atoms: C_17  and  C_18 
ROOT
ATOM      1  N   UNL d   1      26.698 -14.438  -0.821  0.00  0.00    -0.052 N 
ATOM      2  H   UNL d   1      25.986 -13.861  -0.366  0.00  0.00     0.281 HD
ENDROOT
BRANCH   1   3
ATOM      3  C   UNL d   1      26.291 -15.918  -1.035  0.00  0.00     0.189 C 
ATOM      4  C   UNL d   1      26.681 -16.909   0.007  0.00  0.00     0.033 C 
ATOM      5  C   UNL d   1      26.054 -18.275  -0.011  0.00  0.00     0.002 C 
ATOM      6  C   UNL d   1      24.560 -18.133   0.155  0.00  0.00     0.000 C 
ATOM      7  C   UNL d   1      24.078 -17.246  -0.951  0.00  0.00     0.002 C 
ATOM      8  C   UNL d   1      24.833 -15.954  -0.940  0.00  0.00     0.033 C 
ENDBRANCH   1   3
BRANCH   1   9
ATOM      9  C   UNL d   1      27.903 -14.441   0.187  0.00  0.00     0.280 C 
BRANCH   9  10
ATOM     10  C   UNL d   1      27.558 -14.102   1.588  0.00  0.00     0.036 C 
ATOM     11  C   UNL d   1      27.782 -14.929   2.626  0.00  0.00     0.028 C 
ATOM     12  C   UNL d   1      28.145 -14.300   3.901  0.00  0.00    -0.009 C 
ATOM     13  C   UNL d   1      29.125 -14.842   4.765  0.00  0.00     0.014 C 
ATOM     14  C   UNL d   1      27.679 -13.010   4.115  0.00  0.00     0.045 C 
ATOM     15  C   UNL d   1      29.579 -14.098   5.842  0.00  0.00     0.007 C 
ATOM     16  C   UNL d   1      28.823 -12.996   6.222  0.00  0.00    -0.060 C 
ATOM     17  C   UNL d   1      28.888 -12.489   7.621  0.00  0.00     0.048 C 
ATOM     18  C   UNL d   1      27.885 -12.436   5.344  0.00  0.00     0.037 C 
ATOM     19  N   UNL d   1      27.046 -12.298   3.083  0.00  0.00    -0.322 N 
ATOM     20  C   UNL d   1      27.012 -12.744   1.794  0.00  0.00     0.253 C 
ATOM     21  H   UNL d   1      26.690 -11.366   3.255  0.00  0.00     0.169 HD
ATOM     22  O   UNL d   1      26.560 -12.112   0.847  0.00  0.00    -0.268 OA
ENDBRANCH   9  10
ENDBRANCH   1   9
BRANCH   1  23
ATOM     23  C   UNL d   1      26.900 -13.667  -2.229  0.00  0.00     0.260 C 
BRANCH  23  24
ATOM     24  C   UNL d   1      26.730 -12.116  -2.229  0.00  0.00     0.041 C 
BRANCH  24  25
ATOM     25  C   UNL d   1      25.768 -11.505  -3.204  0.00  0.00    -0.002 C 
ATOM     26  C   UNL d   1      26.262 -11.057  -4.520  0.00  0.00     0.005 C 
ENDBRANCH  24  25
ENDBRANCH  23  24
BRANCH  23  27
ATOM     27  C   UNL d   1      26.439 -14.409  -3.439  0.00  0.00     0.168 A 
ATOM     28  N   UNL d   1      25.179 -14.450  -3.838  0.00  0.00    -0.145 NA
ATOM     29  N   UNL d   1      25.155 -15.139  -5.010  0.00  0.00     0.018 NA
ATOM     30  N   UNL d   1      26.361 -15.593  -5.310  0.00  0.00    -0.003 NA
ATOM     31  N   UNL d   1      27.192 -15.174  -4.325  0.00  0.00    -0.252 N 
BRANCH  31  32
ATOM     32  C   UNL d   1      28.608 -15.629  -4.415  0.00  0.00     0.259 C 
BRANCH  32  33
ATOM     33  C   UNL d   1      29.201 -15.631  -5.790  0.00  0.00     0.278 C 
ATOM     34  O   UNL d   1      30.280 -16.089  -5.984  0.00  0.00    -0.263 OA
BRANCH  33  35
ATOM     35  O   UNL d   1      28.602 -15.182  -6.901  0.00  0.00    -0.321 OA
BRANCH  35  36
ATOM     36  C   UNL d   1      29.172 -13.851  -7.219  0.00  0.00     0.174 C 
ATOM     37  C   UNL d   1      28.164 -12.812  -6.882  0.00  0.00     0.034 C 
ENDBRANCH  35  36
ENDBRANCH  33  35
ENDBRANCH  32  33
ENDBRANCH  31  32
ENDBRANCH  23  27
ENDBRANCH   1  23
TORSDOF 11
ENDMDL
MODEL 2
REMARK VINA RESULT:    -9.934      3.474      8.422
REMARK INTER + INTRA:         -16.619
REMARK INTER:                 -13.215
REMARK INTRA:                  -3.403
REMARK CONF_INDEPENDENT:        3.281
REMARK UNBOUND:                -3.403
REMARK  11 active torsions:
REMARK  status: ('A' for Active; 'I' for Inactive)
REMARK    1  A    between atoms: C_2  and  C_3 
REMARK    2  A    between atoms: C_3  and  C_4 
REMARK    3  A    between atoms: C_4  and  C_5 
REMARK    4  A    between atoms: N_16  and  C_4 
REMARK    5  A    between atoms: N_9  and  C_10 
REMARK    6  A    between atoms: C_10  and  C_11 
REMARK    7  A    between atoms: C_11  and  O_13 
REMARK    8  A    between atoms: O_13  and  C_14 
REMARK    9  A    between atoms: N_16  and  C_30 
REMARK   10  A    between atoms: N_16  and  C_17 
REMARK   11  A    between atoms: C_17  and  C_18 
ROOT
ATOM      1  N   UNL d   1      27.803 -15.630  -1.959  0.00  0.00    -0.052 N 
ATOM      2  H   UNL d   1      27.900 -15.241  -2.902  0.00  0.00     0.281 HD
ENDROOT
BRANCH   1   3
ATOM      3  C   UNL d   1      27.903 -14.588  -0.817  0.00  0.00     0.189 C 
ATOM      4  C   UNL d   1      26.666 -14.272  -0.048  0.00  0.00     0.033 C 
ATOM      5  C   UNL d   1      26.782 -13.508   1.241  0.00  0.00     0.002 C 
ATOM      6  C   UNL d   1      27.627 -14.301   2.209  0.00  0.00     0.000 C 
ATOM      7  C   UNL d   1      28.946 -14.543   1.544  0.00  0.00     0.002 C 
ATOM      8  C   UNL d   1      28.740 -15.197   0.214  0.00  0.00     0.033 C 
ENDBRANCH   1   3
BRANCH   1   9
ATOM      9  C   UNL d   1      29.035 -16.592  -1.804  0.00  0.00     0.280 C 
BRANCH   9  10
ATOM     10  C   UNL d   1      29.841 -16.792  -3.031  0.00  0.00     0.036 C 
ATOM     11  C   UNL d   1      30.600 -17.883  -3.249  0.00  0.00     0.028 C 
ATOM     12  C   UNL d   1      30.697 -18.349  -4.636  0.00  0.00    -0.009 C 
ATOM     13  C   UNL d   1      30.689 -19.722  -4.980  0.00  0.00     0.014 C 
ATOM     14  C   UNL d   1      30.538 -17.392  -5.629  0.00  0.00     0.045 C 
ATOM     15  C   UNL d   1      30.565 -20.097  -6.308  0.00  0.00     0.007 C 
ATOM     16  C   UNL d   1      30.787 -19.121  -7.271  0.00  0.00    -0.060 C 
ATOM     17  C   UNL d   1      31.220 -19.508  -8.643  0.00  0.00     0.048 C 
ATOM     18  C   UNL d   1      30.751 -17.762  -6.933  0.00  0.00     0.037 C 
ATOM     19  N   UNL d   1      30.131 -16.088  -5.306  0.00  0.00    -0.322 N 
ATOM     20  C   UNL d   1      29.704 -15.738  -4.058  0.00  0.00     0.253 C 
ATOM     21  H   UNL d   1      30.039 -15.390  -6.033  0.00  0.00     0.169 HD
ATOM     22  O   UNL d   1      29.248 -14.641  -3.757  0.00  0.00    -0.268 OA
ENDBRANCH   9  10
ENDBRANCH   1   9
BRANCH   1  23
ATOM     23  C   UNL d   1      26.331 -16.300  -2.027  0.00  0.00     0.260 C 
BRANCH  23  24
ATOM     24  C   UNL d   1      25.190 -15.463  -2.682  0.00  0.00     0.041 C 
BRANCH  24  25
ATOM     25  C   UNL d   1      25.525 -14.602  -3.863  0.00  0.00    -0.002 C 
ATOM     26  C   UNL d   1      26.214 -15.203  -5.021  0.00  0.00     0.005 C 
ENDBRANCH  24  25
ENDBRANCH  23  24
BRANCH  23  27
ATOM     27  C   UNL d   1      25.968 -17.170  -0.870  0.00  0.00     0.168 A 
ATOM     28  N   UNL d   1      26.846 -17.880  -0.183  0.00  0.00    -0.145 NA
ATOM     29  N   UNL d   1      26.170 -18.470   0.838  0.00  0.00     0.018 NA
ATOM     30  N   UNL d   1      24.876 -18.204   0.757  0.00  0.00    -0.003 NA
ATOM     31  N   UNL d   1      24.709 -17.407  -0.326  0.00  0.00    -0.252 N 
BRANCH  31  32
ATOM     32  C   UNL d   1      23.307 -17.029  -0.661  0.00  0.00     0.259 C 
BRANCH  32  33
ATOM     33  C   UNL d   1      22.431 -18.147  -1.137  0.00  0.00     0.278 C 
ATOM     34  O   UNL d   1      22.887 -19.048  -1.763  0.00  0.00    -0.263 OA
BRANCH  33  35
ATOM     35  O   UNL d   1      21.121 -18.275  -0.890  0.00  0.00    -0.321 OA
BRANCH  35  36
ATOM     36  C   UNL d   1      20.961 -19.233   0.229  0.00  0.00     0.174 C 
ATOM     37  C   UNL d   1      19.892 -20.203  -0.127  0.00  0.00     0.034 C 
ENDBRANCH  35  36
ENDBRANCH  33  35
ENDBRANCH  32  33
ENDBRANCH  31  32
ENDBRANCH  23  27
ENDBRANCH   1  23
TORSDOF 11
ENDMDL
MODEL 3
REMARK VINA RESULT:    -9.543      2.947      5.922
REMARK INTER + INTRA:         -16.739
REMARK INTER:                 -12.825
REMARK INTRA:                  -3.914
REMARK CONF_INDEPENDENT:        3.281
REMARK UNBOUND:                -3.914
REMARK  11 active torsions:
REMARK  status: ('A' for Active; 'I' for Inactive)
REMARK    1  A    between atoms: C_2  and  C_3 
REMARK    2  A    between atoms: C_3  and  C_4 
REMARK    3  A    between atoms: C_4  and  C_5 
REMARK    4  A    between atoms: N_16  and  C_4 
REMARK    5  A    between atoms: N_9  and  C_10 
REMARK    6  A    between atoms: C_10  and  C_11 
REMARK    7  A    between atoms: C_11  and  O_13 
REMARK    8  A    between atoms: O_13  and  C_14 
REMARK    9  A    between atoms: N_16  and  C_30 
REMARK   10  A    between atoms: N_16  and  C_17 
REMARK   11  A    between atoms: C_17  and  C_18 
ROOT
ATOM      1  N   UNL d   1      27.642 -15.496  -2.775  0.00  0.00    -0.052 N 
ATOM      2  H   UNL d   1      28.166 -16.152  -2.188  0.00  0.00     0.281 HD
ENDROOT
BRANCH   1   3
ATOM      3  C   UNL d   1      27.919 -15.626  -4.295  0.00  0.00     0.189 C 
ATOM      4  C   UNL d   1      28.129 -14.375  -5.076  0.00  0.00     0.033 C 
ATOM      5  C   UNL d   1      28.692 -14.468  -6.467  0.00  0.00     0.002 C 
ATOM      6  C   UNL d   1      30.062 -15.099  -6.403  0.00  0.00     0.000 C 
ATOM      7  C   UNL d   1      29.901 -16.432  -5.739  0.00  0.00     0.002 C 
ATOM      8  C   UNL d   1      29.226 -16.268  -4.414  0.00  0.00     0.033 C 
ENDBRANCH   1   3
BRANCH   1   9
ATOM      9  C   UNL d   1      28.162 -14.080  -2.339  0.00  0.00     0.280 C 
BRANCH   9  10
ATOM     10  C   UNL d   1      28.639 -13.983  -0.939  0.00  0.00     0.036 C 
ATOM     11  C   UNL d   1      28.497 -12.877  -0.184  0.00  0.00     0.028 C 
ATOM     12  C   UNL d   1      28.264 -13.087   1.249  0.00  0.00    -0.009 C 
ATOM     13  C   UNL d   1      27.358 -12.296   1.996  0.00  0.00     0.014 C 
ATOM     14  C   UNL d   1      28.769 -14.256   1.800  0.00  0.00     0.045 C 
ATOM     15  C   UNL d   1      27.017 -12.674   3.285  0.00  0.00     0.007 C 
ATOM     16  C   UNL d   1      27.823 -13.618   3.909  0.00  0.00    -0.060 C 
ATOM     17  C   UNL d   1      27.894 -13.677   5.395  0.00  0.00     0.048 C 
ATOM     18  C   UNL d   1      28.685 -14.428   3.159  0.00  0.00     0.037 C 
ATOM     19  N   UNL d   1      29.316 -15.255   0.978  0.00  0.00    -0.322 N 
ATOM     20  C   UNL d   1      29.224 -15.221  -0.383  0.00  0.00     0.253 C 
ATOM     21  H   UNL d   1      29.702 -16.095   1.390  0.00  0.00     0.169 HD
ATOM     22  O   UNL d   1      29.598 -16.115  -1.132  0.00  0.00    -0.268 OA
ENDBRANCH   9  10
ENDBRANCH   1   9
BRANCH   1  23
ATOM     23  C   UNL d   1      26.112 -15.878  -2.414  0.00  0.00     0.260 C 
BRANCH  23  24
ATOM     24  C   UNL d   1      25.019 -14.799  -2.685  0.00  0.00     0.041 C 
BRANCH  24  25
ATOM     25  C   UNL d   1      25.261 -13.797  -3.774  0.00  0.00    -0.002 C 
ATOM     26  C   UNL d   1      25.571 -12.401  -3.413  0.00  0.00     0.005 C 
ENDBRANCH  24  25
ENDBRANCH  23  24
BRANCH  23  27
ATOM     27  C   UNL d   1      25.934 -16.749  -1.215  0.00  0.00     0.168 A 
ATOM     28  N   UNL d   1      26.931 -17.360  -0.599  0.00  0.00    -0.145 NA
ATOM     29  N   UNL d   1      26.405 -17.985   0.488  0.00  0.00     0.018 NA
ATOM     30  N   UNL d   1      25.090 -17.841   0.518  0.00  0.00    -0.003 NA
ATOM     31  N   UNL d   1      24.755 -17.088  -0.558  0.00  0.00    -0.252 N 
BRANCH  31  32
ATOM     32  C   UNL d   1      23.300 -16.848  -0.772  0.00  0.00     0.259 C 
BRANCH  32  33
ATOM     33  C   UNL d   1      22.452 -18.078  -0.893  0.00  0.00     0.278 C 
ATOM     34  O   UNL d   1      22.911 -19.090  -1.311  0.00  0.00    -0.263 OA
BRANCH  33  35
ATOM     35  O   UNL d   1      21.169 -18.183  -0.525  0.00  0.00    -0.321 OA
BRANCH  35  36
ATOM     36  C   UNL d   1      20.581 -19.334  -1.250  0.00  0.00     0.174 C 
ATOM     37  C   UNL d   1      19.354 -19.769  -0.531  0.00  0.00     0.034 C 
ENDBRANCH  35  36
ENDBRANCH  33  35
ENDBRANCH  32  33
ENDBRANCH  31  32
ENDBRANCH  23  27
ENDBRANCH   1  23
TORSDOF 11
ENDMDL
MODEL 4
REMARK VINA RESULT:    -9.532      1.061      1.928
REMARK INTER + INTRA:         -16.782
REMARK INTER:                 -12.813
REMARK INTRA:                  -3.969
REMARK CONF_INDEPENDENT:        3.281
REMARK UNBOUND:                -3.969
REMARK  11 active torsions:
REMARK  status: ('A' for Active; 'I' for Inactive)
REMARK    1  A    between atoms: C_2  and  C_3 
REMARK    2  A    between atoms: C_3  and  C_4 
REMARK    3  A    between atoms: C_4  and  C_5 
REMARK    4  A    between atoms: N_16  and  C_4 
REMARK    5  A    between atoms: N_9  and  C_10 
REMARK    6  A    between atoms: C_10  and  C_11 
REMARK    7  A    between atoms: C_11  and  O_13 
REMARK    8  A    between atoms: O_13  and  C_14 
REMARK    9  A    between atoms: N_16  and  C_30 
REMARK   10  A    between atoms: N_16  and  C_17 
REMARK   11  A    between atoms: C_17  and  C_18 
ROOT
ATOM      1  N   UNL d   1      26.793 -14.487  -0.944  0.00  0.00    -0.052 N 
ATOM      2  H   UNL d   1      26.086 -13.873  -0.530  0.00  0.00     0.281 HD
ENDROOT
BRANCH   1   3
ATOM      3  C   UNL d   1      26.345 -15.960  -1.124  0.00  0.00     0.189 C 
ATOM      4  C   UNL d   1      26.692 -16.932  -0.050  0.00  0.00     0.033 C 
ATOM      5  C   UNL d   1      26.025 -18.280  -0.041  0.00  0.00     0.002 C 
ATOM      6  C   UNL d   1      24.534 -18.090   0.099  0.00  0.00     0.000 C 
ATOM      7  C   UNL d   1      24.094 -17.219  -1.037  0.00  0.00     0.002 C 
ATOM      8  C   UNL d   1      24.886 -15.950  -1.050  0.00  0.00     0.033 C 
ENDBRANCH   1   3
BRANCH   1   9
ATOM      9  C   UNL d   1      27.966 -14.494   0.100  0.00  0.00     0.280 C 
BRANCH   9  10
ATOM     10  C   UNL d   1      27.583 -14.135   1.486  0.00  0.00     0.036 C 
ATOM     11  C   UNL d   1      27.780 -14.946   2.542  0.00  0.00     0.028 C 
ATOM     12  C   UNL d   1      28.108 -14.298   3.817  0.00  0.00    -0.009 C 
ATOM     13  C   UNL d   1      29.065 -14.826   4.715  0.00  0.00     0.014 C 
ATOM     14  C   UNL d   1      27.635 -13.006   3.999  0.00  0.00     0.045 C 
ATOM     15  C   UNL d   1      29.489 -14.066   5.793  0.00  0.00     0.007 C 
ATOM     16  C   UNL d   1      28.722 -12.959   6.136  0.00  0.00    -0.060 C 
ATOM     17  C   UNL d   1      28.749 -12.432   7.529  0.00  0.00     0.048 C 
ATOM     18  C   UNL d   1      27.808 -12.414   5.225  0.00  0.00     0.037 C 
ATOM     19  N   UNL d   1      27.030 -12.310   2.940  0.00  0.00    -0.322 N 
ATOM     20  C   UNL d   1      27.031 -12.774   1.657  0.00  0.00     0.253 C 
ATOM     21  H   UNL d   1      26.668 -11.376   3.088  0.00  0.00     0.169 HD
ATOM     22  O   UNL d   1      26.604 -12.157   0.689  0.00  0.00    -0.268 OA
ENDBRANCH   9  10
ENDBRANCH   1   9
BRANCH   1  23
ATOM     23  C   UNL d   1      27.061 -13.768  -2.369  0.00  0.00     0.260 C 
BRANCH  23  24
ATOM     24  C   UNL d   1      27.027 -12.209  -2.405  0.00  0.00     0.041 C 
BRANCH  24  25
ATOM     25  C   UNL d   1      26.009 -11.538  -3.278  0.00  0.00    -0.002 C 
ATOM     26  C   UNL d   1      26.198 -11.545  -4.741  0.00  0.00     0.005 C 
ENDBRANCH  24  25
ENDBRANCH  23  24
BRANCH  23  27
ATOM     27  C   UNL d   1      26.537 -14.494  -3.563  0.00  0.00     0.168 A 
ATOM     28  N   UNL d   1      25.251 -14.671  -3.807  0.00  0.00    -0.145 NA
ATOM     29  N   UNL d   1      25.155 -15.292  -5.013  0.00  0.00     0.018 NA
ATOM     30  N   UNL d   1      26.357 -15.574  -5.489  0.00  0.00    -0.003 NA
ATOM     31  N   UNL d   1      27.254 -15.109  -4.586  0.00  0.00    -0.252 N 
BRANCH  31  32
ATOM     32  C   UNL d   1      28.690 -15.377  -4.880  0.00  0.00     0.259 C 
BRANCH  32  33
ATOM     33  C   UNL d   1      29.375 -16.328  -3.946  0.00  0.00     0.278 C 
ATOM     34  O   UNL d   1      30.387 -16.863  -4.262  0.00  0.00    -0.263 OA
BRANCH  33  35
ATOM     35  O   UNL d   1      28.972 -16.633  -2.706  0.00  0.00    -0.321 OA
BRANCH  35  36
ATOM     36  C   UNL d   1      30.175 -16.720  -1.846  0.00  0.00     0.174 C 
ATOM     37  C   UNL d   1      29.793 -17.364  -0.561  0.00  0.00     0.034 C 
ENDBRANCH  35  36
ENDBRANCH  33  35
ENDBRANCH  32  33
ENDBRANCH  31  32
ENDBRANCH  23  27
ENDBRANCH   1  23
TORSDOF 11
ENDMDL
MODEL 5
REMARK VINA RESULT:    -8.959      2.104      3.797
REMARK INTER + INTRA:         -17.073
REMARK INTER:                 -12.241
REMARK INTRA:                  -4.833
REMARK CONF_INDEPENDENT:        3.281
REMARK UNBOUND:                -4.833
REMARK  11 active torsions:
REMARK  status: ('A' for Active; 'I' for Inactive)
REMARK    1  A    between atoms: C_2  and  C_3 
REMARK    2  A    between atoms: C_3  and  C_4 
REMARK    3  A    between atoms: C_4  and  C_5 
REMARK    4  A    between atoms: N_16  and  C_4 
REMARK    5  A    between atoms: N_9  and  C_10 
REMARK    6  A    between atoms: C_10  and  C_11 
REMARK    7  A    between atoms: C_11  and  O_13 
REMARK    8  A    between atoms: O_13  and  C_14 
REMARK    9  A    between atoms: N_16  and  C_30 
REMARK   10  A    between atoms: N_16  and  C_17 
REMARK   11  A    between atoms: C_17  and  C_18 
ROOT
ATOM      1  N   UNL d   1      27.034 -15.500  -0.790  0.00  0.00    -0.052 N 
ATOM      2  H   UNL d   1      27.060 -14.480  -0.702  0.00  0.00     0.281 HD
ENDROOT
BRANCH   1   3
ATOM      3  C   UNL d   1      25.732 -16.160  -0.270  0.00  0.00     0.189 C 
ATOM      4  C   UNL d   1      24.482 -15.951  -1.053  0.00  0.00     0.033 C 
ATOM      5  C   UNL d   1      23.282 -16.807  -0.758  0.00  0.00     0.002 C 
ATOM      6  C   UNL d   1      23.637 -18.254  -1.006  0.00  0.00     0.000 C 
ATOM      7  C   UNL d   1      24.818 -18.571  -0.142  0.00  0.00     0.002 C 
ATOM      8  C   UNL d   1      25.926 -17.602  -0.410  0.00  0.00     0.033 C 
ENDBRANCH   1   3
BRANCH   1   9
ATOM      9  C   UNL d   1      28.198 -16.002   0.138  0.00  0.00     0.280 C 
BRANCH   9  10
ATOM     10  C   UNL d   1      28.602 -15.064   1.212  0.00  0.00     0.036 C 
ATOM     11  C   UNL d   1      27.780 -14.682   2.208  0.00  0.00     0.028 C 
ATOM     12  C   UNL d   1      28.399 -14.451   3.517  0.00  0.00    -0.009 C 
ATOM     13  C   UNL d   1      27.782 -14.839   4.730  0.00  0.00     0.014 C 
ATOM     14  C   UNL d   1      29.733 -14.069   3.519  0.00  0.00     0.045 C 
ATOM     15  C   UNL d   1      28.501 -14.793   5.913  0.00  0.00     0.007 C 
ATOM     16  C   UNL d   1      29.682 -14.061   5.916  0.00  0.00    -0.060 C 
ATOM     17  C   UNL d   1      30.211 -13.499   7.189  0.00  0.00     0.048 C 
ATOM     18  C   UNL d   1      30.312 -13.717   4.712  0.00  0.00     0.037 C 
ATOM     19  N   UNL d   1      30.482 -14.080   2.330  0.00  0.00    -0.322 N 
ATOM     20  C   UNL d   1      30.012 -14.623   1.170  0.00  0.00     0.253 C 
ATOM     21  H   UNL d   1      31.448 -13.779   2.336  0.00  0.00     0.169 HD
ATOM     22  O   UNL d   1      30.664 -14.743   0.140  0.00  0.00    -0.268 OA
ENDBRANCH   9  10
ENDBRANCH   1   9
BRANCH   1  23
ATOM     23  C   UNL d   1      27.207 -15.700  -2.386  0.00  0.00     0.260 C 
BRANCH  23  24
ATOM     24  C   UNL d   1      28.646 -15.969  -2.925  0.00  0.00     0.041 C 
BRANCH  24  25
ATOM     25  C   UNL d   1      29.176 -15.086  -4.015  0.00  0.00    -0.002 C 
ATOM     26  C   UNL d   1      29.143 -15.564  -5.410  0.00  0.00     0.005 C 
ENDBRANCH  24  25
ENDBRANCH  23  24
BRANCH  23  27
ATOM     27  C   UNL d   1      26.297 -14.878  -3.238  0.00  0.00     0.168 A 
ATOM     28  N   UNL d   1      25.466 -15.391  -4.128  0.00  0.00    -0.145 NA
ATOM     29  N   UNL d   1      24.746 -14.358  -4.642  0.00  0.00     0.018 NA
ATOM     30  N   UNL d   1      25.166 -13.205  -4.148  0.00  0.00    -0.003 NA
ATOM     31  N   UNL d   1      26.163 -13.494  -3.277  0.00  0.00    -0.252 N 
BRANCH  31  32
ATOM     32  C   UNL d   1      26.844 -12.331  -2.640  0.00  0.00     0.259 C 
BRANCH  32  33
ATOM     33  C   UNL d   1      27.363 -12.564  -1.254  0.00  0.00     0.278 C 
ATOM     34  O   UNL d   1      28.502 -12.850  -1.075  0.00  0.00    -0.263 OA
BRANCH  33  35
ATOM     35  O   UNL d   1      26.656 -12.443  -0.124  0.00  0.00    -0.321 OA
BRANCH  35  36
ATOM     36  C   UNL d   1      27.449 -11.622   0.822  0.00  0.00     0.174 C 
ATOM     37  C   UNL d   1      26.676 -11.473   2.083  0.00  0.00     0.034 C 
ENDBRANCH  35  36
ENDBRANCH  33  35
ENDBRANCH  32  33
ENDBRANCH  31  32
ENDBRANCH  23  27
ENDBRANCH   1  23
TORSDOF 11
ENDMDL
MODEL 6
REMARK VINA RESULT:    -8.722      2.806      6.248
REMARK INTER + INTRA:         -16.725
REMARK INTER:                 -12.003
REMARK INTRA:                  -4.722
REMARK CONF_INDEPENDENT:        3.281
REMARK UNBOUND:                -4.722
REMARK  11 active torsions:
REMARK  status: ('A' for Active; 'I' for Inactive)
REMARK    1  A    between atoms: C_2  and  C_3 
REMARK    2  A    between atoms: C_3  and  C_4 
REMARK    3  A    between atoms: C_4  and  C_5 
REMARK    4  A    between atoms: N_16  and  C_4 
REMARK    5  A    between atoms: N_9  and  C_10 
REMARK    6  A    between atoms: C_10  and  C_11 
REMARK    7  A    between atoms: C_11  and  O_13 
REMARK    8  A    between atoms: O_13  and  C_14 
REMARK    9  A    between atoms: N_16  and  C_30 
REMARK   10  A    between atoms: N_16  and  C_17 
REMARK   11  A    between atoms: C_17  and  C_18 
ROOT
ATOM      1  N   UNL d   1      26.282 -15.979  -1.964  0.00  0.00    -0.052 N 
ATOM      2  H   UNL d   1      26.572 -15.810  -2.931  0.00  0.00     0.281 HD
ENDROOT
BRANCH   1   3
ATOM      3  C   UNL d   1      25.037 -16.890  -1.813  0.00  0.00     0.189 C 
ATOM      4  C   UNL d   1      25.134 -18.060  -0.895  0.00  0.00     0.033 C 
ATOM      5  C   UNL d   1      23.878 -18.781  -0.493  0.00  0.00     0.002 C 
ATOM      6  C   UNL d   1      22.968 -17.817   0.230  0.00  0.00     0.000 C 
ATOM      7  C   UNL d   1      22.721 -16.667  -0.697  0.00  0.00     0.002 C 
ATOM      8  C   UNL d   1      24.021 -16.079  -1.146  0.00  0.00     0.033 C 
ENDBRANCH   1   3
BRANCH   1   9
ATOM      9  C   UNL d   1      25.874 -14.561  -1.424  0.00  0.00     0.280 C 
BRANCH   9  10
ATOM     10  C   UNL d   1      25.837 -13.483  -2.439  0.00  0.00     0.036 C 
ATOM     11  C   UNL d   1      26.683 -12.435  -2.436  0.00  0.00     0.028 C 
ATOM     12  C   UNL d   1      27.092 -11.917  -3.747  0.00  0.00    -0.009 C 
ATOM     13  C   UNL d   1      28.413 -11.488  -4.016  0.00  0.00     0.014 C 
ATOM     14  C   UNL d   1      26.203 -12.103  -4.796  0.00  0.00     0.045 C 
ATOM     15  C   UNL d   1      28.795 -11.214  -5.320  0.00  0.00     0.007 C 
ATOM     16  C   UNL d   1      27.785 -11.054  -6.261  0.00  0.00    -0.060 C 
ATOM     17  C   UNL d   1      28.028 -10.245  -7.489  0.00  0.00     0.048 C 
ATOM     18  C   UNL d   1      26.489 -11.521  -6.006  0.00  0.00     0.037 C 
ATOM     19  N   UNL d   1      25.059 -12.901  -4.632  0.00  0.00    -0.322 N 
ATOM     20  C   UNL d   1      24.849 -13.667  -3.523  0.00  0.00     0.253 C 
ATOM     21  H   UNL d   1      24.405 -13.012  -5.396  0.00  0.00     0.169 HD
ATOM     22  O   UNL d   1      23.918 -14.450  -3.380  0.00  0.00    -0.268 OA
ENDBRANCH   9  10
ENDBRANCH   1   9
BRANCH   1  23
ATOM     23  C   UNL d   1      27.605 -16.669  -1.336  0.00  0.00     0.260 C 
BRANCH  23  24
ATOM     24  C   UNL d   1      27.858 -16.481   0.191  0.00  0.00     0.041 C 
BRANCH  24  25
ATOM     25  C   UNL d   1      28.408 -15.170   0.666  0.00  0.00    -0.002 C 
ATOM     26  C   UNL d   1      27.533 -14.249   1.415  0.00  0.00     0.005 C 
ENDBRANCH  24  25
ENDBRANCH  23  24
BRANCH  23  27
ATOM     27  C   UNL d   1      28.799 -16.698  -2.232  0.00  0.00     0.168 A 
ATOM     28  N   UNL d   1      29.840 -17.489  -2.040  0.00  0.00    -0.145 NA
ATOM     29  N   UNL d   1      30.681 -17.303  -3.092  0.00  0.00     0.018 NA
ATOM     30  N   UNL d   1      30.223 -16.357  -3.895  0.00  0.00    -0.003 NA
ATOM     31  N   UNL d   1      29.048 -15.934  -3.368  0.00  0.00    -0.252 N 
BRANCH  31  32
ATOM     32  C   UNL d   1      28.373 -14.808  -4.074  0.00  0.00     0.259 C 
BRANCH  32  33
ATOM     33  C   UNL d   1      27.492 -15.200  -5.221  0.00  0.00     0.278 C 
ATOM     34  O   UNL d   1      26.416 -15.665  -5.027  0.00  0.00    -0.263 OA
BRANCH  33  35
ATOM     35  O   UNL d   1      27.781 -15.041  -6.519  0.00  0.00    -0.321 OA
BRANCH  35  36
ATOM     36  C   UNL d   1      29.145 -14.472  -6.615  0.00  0.00     0.174 C 
ATOM     37  C   UNL d   1      30.101 -15.576  -6.895  0.00  0.00     0.034 C 
ENDBRANCH  35  36
ENDBRANCH  33  35
ENDBRANCH  32  33
ENDBRANCH  31  32
ENDBRANCH  23  27
ENDBRANCH   1  23
TORSDOF 11
ENDMDL
MODEL 7
REMARK VINA RESULT:    -8.617      2.168      6.496
REMARK INTER + INTRA:         -16.777
REMARK INTER:                 -11.898
REMARK INTRA:                  -4.880
REMARK CONF_INDEPENDENT:        3.281
REMARK UNBOUND:                -4.880
REMARK  11 active torsions:
REMARK  status: ('A' for Active; 'I' for Inactive)
REMARK    1  A    between atoms: C_2  and  C_3 
REMARK    2  A    between atoms: C_3  and  C_4 
REMARK    3  A    between atoms: C_4  and  C_5 
REMARK    4  A    between atoms: N_16  and  C_4 
REMARK    5  A    between atoms: N_9  and  C_10 
REMARK    6  A    between atoms: C_10  and  C_11 
REMARK    7  A    between atoms: C_11  and  O_13 
REMARK    8  A    between atoms: O_13  and  C_14 
REMARK    9  A    between atoms: N_16  and  C_30 
REMARK   10  A    between atoms: N_16  and  C_17 
REMARK   11  A    between atoms: C_17  and  C_18 
ROOT
ATOM      1  N   UNL d   1      27.089 -15.392  -0.696  0.00  0.00    -0.052 N 
ATOM      2  H   UNL d   1      27.383 -14.712  -1.403  0.00  0.00     0.281 HD
ENDROOT
BRANCH   1   3
ATOM      3  C   UNL d   1      26.934 -14.812   0.733  0.00  0.00     0.189 C 
ATOM      4  C   UNL d   1      28.126 -14.822   1.625  0.00  0.00     0.033 C 
ATOM      5  C   UNL d   1      28.101 -14.008   2.889  0.00  0.00     0.002 C 
ATOM      6  C   UNL d   1      27.918 -12.552   2.532  0.00  0.00     0.000 C 
ATOM      7  C   UNL d   1      26.654 -12.450   1.737  0.00  0.00     0.002 C 
ATOM      8  C   UNL d   1      26.707 -13.378   0.564  0.00  0.00     0.033 C 
ENDBRANCH   1   3
BRANCH   1   9
ATOM      9  C   UNL d   1      28.267 -16.430  -0.638  0.00  0.00     0.280 C 
BRANCH   9  10
ATOM     10  C   UNL d   1      29.298 -16.278  -1.690  0.00  0.00     0.036 C 
ATOM     11  C   UNL d   1      30.037 -17.303  -2.157  0.00  0.00     0.028 C 
ATOM     12  C   UNL d   1      30.396 -17.260  -3.579  0.00  0.00    -0.009 C 
ATOM     13  C   UNL d   1      30.398 -18.414  -4.398  0.00  0.00     0.014 C 
ATOM     14  C   UNL d   1      30.486 -16.004  -4.162  0.00  0.00     0.045 C 
ATOM     15  C   UNL d   1      30.533 -18.282  -5.771  0.00  0.00     0.007 C 
ATOM     16  C   UNL d   1      30.991 -17.062  -6.254  0.00  0.00    -0.060 C 
ATOM     17  C   UNL d   1      31.678 -16.990  -7.573  0.00  0.00     0.048 C 
ATOM     18  C   UNL d   1      30.945 -15.914  -5.452  0.00  0.00     0.037 C 
ATOM     19  N   UNL d   1      30.079 -14.859  -3.459  0.00  0.00    -0.322 N 
ATOM     20  C   UNL d   1      29.421 -14.922  -2.266  0.00  0.00     0.253 C 
ATOM     21  H   UNL d   1      30.169 -13.944  -3.884  0.00  0.00     0.169 HD
ATOM     22  O   UNL d   1      28.962 -13.956  -1.668  0.00  0.00    -0.268 OA
ENDBRANCH   9  10
ENDBRANCH   1   9
BRANCH   1  23
ATOM     23  C   UNL d   1      25.672 -15.897  -1.292  0.00  0.00     0.260 C 
BRANCH  23  24
ATOM     24  C   UNL d   1      25.318 -17.407  -1.121  0.00  0.00     0.041 C 
BRANCH  24  25
ATOM     25  C   UNL d   1      23.872 -17.792  -1.015  0.00  0.00    -0.002 C 
ATOM     26  C   UNL d   1      22.897 -16.802  -0.520  0.00  0.00     0.005 C 
ENDBRANCH  24  25
ENDBRANCH  23  24
BRANCH  23  27
ATOM     27  C   UNL d   1      25.228 -15.225  -2.548  0.00  0.00     0.168 A 
ATOM     28  N   UNL d   1      24.046 -14.651  -2.694  0.00  0.00    -0.145 NA
ATOM     29  N   UNL d   1      24.032 -14.075  -3.926  0.00  0.00     0.018 NA
ATOM     30  N   UNL d   1      25.151 -14.344  -4.579  0.00  0.00    -0.003 NA
ATOM     31  N   UNL d   1      25.918 -15.091  -3.749  0.00  0.00    -0.252 N 
BRANCH  31  32
ATOM     32  C   UNL d   1      27.215 -15.575  -4.302  0.00  0.00     0.259 C 
BRANCH  32  33
ATOM     33  C   UNL d   1      27.815 -14.726  -5.381  0.00  0.00     0.278 C 
ATOM     34  O   UNL d   1      27.718 -15.039  -6.522  0.00  0.00    -0.263 OA
BRANCH  33  35
ATOM     35  O   UNL d   1      28.456 -13.565  -5.196  0.00  0.00    -0.321 OA
BRANCH  35  36
ATOM     36  C   UNL d   1      27.555 -12.474  -5.635  0.00  0.00     0.174 C 
ATOM     37  C   UNL d   1      27.047 -11.766  -4.430  0.00  0.00     0.034 C 
ENDBRANCH  35  36
ENDBRANCH  33  35
ENDBRANCH  32  33
ENDBRANCH  31  32
ENDBRANCH  23  27
ENDBRANCH   1  23
TORSDOF 11
ENDMDL
MODEL 8
REMARK VINA RESULT:    -8.381      2.054      4.430
REMARK INTER + INTRA:         -16.732
REMARK INTER:                 -11.662
REMARK INTRA:                  -5.070
REMARK CONF_INDEPENDENT:        3.281
REMARK UNBOUND:                -5.070
REMARK  11 active torsions:
REMARK  status: ('A' for Active; 'I' for Inactive)
REMARK    1  A    between atoms: C_2  and  C_3 
REMARK    2  A    between atoms: C_3  and  C_4 
REMARK    3  A    between atoms: C_4  and  C_5 
REMARK    4  A    between atoms: N_16  and  C_4 
REMARK    5  A    between atoms: N_9  and  C_10 
REMARK    6  A    between atoms: C_10  and  C_11 
REMARK    7  A    between atoms: C_11  and  O_13 
REMARK    8  A    between atoms: O_13  and  C_14 
REMARK    9  A    between atoms: N_16  and  C_30 
REMARK   10  A    between atoms: N_16  and  C_17 
REMARK   11  A    between atoms: C_17  and  C_18 
ROOT
ATOM      1  N   UNL d   1      26.906 -13.945  -0.771  0.00  0.00    -0.052 N 
ATOM      2  H   UNL d   1      27.659 -14.574  -0.477  0.00  0.00     0.281 HD
ENDROOT
BRANCH   1   3
ATOM      3  C   UNL d   1      27.338 -12.841  -1.770  0.00  0.00     0.189 C 
ATOM      4  C   UNL d   1      26.280 -12.186  -2.588  0.00  0.00     0.033 C 
ATOM      5  C   UNL d   1      26.609 -10.923  -3.334  0.00  0.00     0.002 C 
ATOM      6  C   UNL d   1      27.023  -9.860  -2.344  0.00  0.00     0.000 C 
ATOM      7  C   UNL d   1      28.180 -10.409  -1.568  0.00  0.00     0.002 C 
ATOM      8  C   UNL d   1      27.811 -11.723  -0.956  0.00  0.00     0.033 C 
ENDBRANCH   1   3
BRANCH   1   9
ATOM      9  C   UNL d   1      26.466 -13.217   0.549  0.00  0.00     0.280 C 
BRANCH   9  10
ATOM     10  C   UNL d   1      27.404 -13.349   1.688  0.00  0.00     0.036 C 
ATOM     11  C   UNL d   1      27.868 -12.298   2.391  0.00  0.00     0.028 C 
ATOM     12  C   UNL d   1      28.094 -12.515   3.824  0.00  0.00    -0.009 C 
ATOM     13  C   UNL d   1      27.780 -11.539   4.800  0.00  0.00     0.014 C 
ATOM     14  C   UNL d   1      28.387 -13.812   4.221  0.00  0.00     0.045 C 
ATOM     15  C   UNL d   1      27.811 -11.876   6.144  0.00  0.00     0.007 C 
ATOM     16  C   UNL d   1      28.464 -13.051   6.493  0.00  0.00    -0.060 C 
ATOM     17  C   UNL d   1      29.025 -13.217   7.863  0.00  0.00     0.048 C 
ATOM     18  C   UNL d   1      28.732 -14.033   5.530  0.00  0.00     0.037 C 
ATOM     19  N   UNL d   1      28.293 -14.877   3.310  0.00  0.00    -0.322 N 
ATOM     20  C   UNL d   1      27.750 -14.735   2.066  0.00  0.00     0.253 C 
ATOM     21  H   UNL d   1      28.530 -15.816   3.602  0.00  0.00     0.169 HD
ATOM     22  O   UNL d   1      27.559 -15.654   1.278  0.00  0.00    -0.268 OA
ENDBRANCH   9  10
ENDBRANCH   1   9
BRANCH   1  23
ATOM     23  C   UNL d   1      25.856 -14.978  -1.443  0.00  0.00     0.260 C 
BRANCH  23  24
ATOM     24  C   UNL d   1      25.420 -16.212  -0.596  0.00  0.00     0.041 C 
BRANCH  24  25
ATOM     25  C   UNL d   1      24.808 -17.383  -1.305  0.00  0.00    -0.002 C 
ATOM     26  C   UNL d   1      23.612 -18.028  -0.732  0.00  0.00     0.005 C 
ENDBRANCH  24  25
ENDBRANCH  23  24
BRANCH  23  27
ATOM     27  C   UNL d   1      26.002 -15.173  -2.916  0.00  0.00     0.168 A 
ATOM     28  N   UNL d   1      25.008 -15.032  -3.776  0.00  0.00    -0.145 NA
ATOM     29  N   UNL d   1      25.530 -15.200  -5.020  0.00  0.00     0.018 NA
ATOM     30  N   UNL d   1      26.812 -15.518  -4.949  0.00  0.00    -0.003 NA
ATOM     31  N   UNL d   1      27.137 -15.537  -3.633  0.00  0.00    -0.252 N 
BRANCH  31  32
ATOM     32  C   UNL d   1      28.532 -15.943  -3.302  0.00  0.00     0.259 C 
BRANCH  32  33
ATOM     33  C   UNL d   1      28.935 -15.764  -1.870  0.00  0.00     0.278 C 
ATOM     34  O   UNL d   1      29.598 -14.836  -1.539  0.00  0.00    -0.263 OA
BRANCH  33  35
ATOM     35  O   UNL d   1      28.580 -16.560  -0.853  0.00  0.00    -0.321 OA
BRANCH  35  36
ATOM     36  C   UNL d   1      29.816 -16.982  -0.153  0.00  0.00     0.174 C 
ATOM     37  C   UNL d   1      30.425 -18.110  -0.906  0.00  0.00     0.034 C 
ENDBRANCH  35  36
ENDBRANCH  33  35
ENDBRANCH  32  33
ENDBRANCH  31  32
ENDBRANCH  23  27
ENDBRANCH   1  23
TORSDOF 11
ENDMDL
