MODEL 1
REMARK VINA RESULT:   -11.156      0.000      0.000
REMARK INTER + INTRA:         -16.990
REMARK INTER:                 -14.735
REMARK INTRA:                  -2.255
REMARK CONF_INDEPENDENT:        3.580
REMARK UNBOUND:                -2.255
REMARK  12 active torsions:
REMARK  status: ('A' for Active; 'I' for Inactive)
REMARK    1  A    between atoms: C_2  and  N_3 
REMARK    2  A    between atoms: N_3  and  C_4 
REMARK    3  A    between atoms: N_3  and  C_6 
REMARK    4  A    between atoms: C_6  and  C_7 
REMARK    5  A    between atoms: C_7  and  N_8 
REMARK    6  A    between atoms: C_14  and  O_15 
REMARK    7  A    between atoms: C_14  and  C_16 
REMARK    8  A    between atoms: C_19  and  O_20 
REMARK    9  A    between atoms: O_20  and  C_21 
REMARK   10  A    between atoms: C_21  and  C_22 
REMARK   11  A    between atoms: C_31  and  C_32 
REMARK   12  A    between atoms: C_35  and  O_36 
ROOT
ATOM      1  N   UNL d   1      29.539 -14.449   0.520  0.00  0.00    -0.331 N 
ATOM      2  C   UNL d   1      28.439 -13.758   0.117  0.00  0.00     0.295 C 
ATOM      3  O   UNL d   1      28.284 -12.640  -0.273  0.00  0.00    -0.264 OA
ATOM      4  C   UNL d   1      27.415 -14.632   0.728  0.00  0.00     0.250 C 
ATOM      5  O   UNL d   1      26.832 -14.107   1.666  0.00  0.00    -0.282 OA
ATOM      6  C   UNL d   1      27.772 -16.092   0.416  0.00  0.00     0.059 C 
ATOM      7  C   UNL d   1      27.068 -17.227   0.062  0.00  0.00     0.089 C 
ATOM      8  C   UNL d   1      29.299 -15.900   0.450  0.00  0.00     0.161 C 
ENDROOT
BRANCH   7   9
ATOM      9  O   UNL d   1      27.721 -18.443  -0.154  0.00  0.00    -0.359 OA
ATOM     10  H   UNL d   1      28.544 -18.546   0.342  0.00  0.00     0.217 HD
ENDBRANCH   7   9
BRANCH   7  11
ATOM     11  C   UNL d   1      25.563 -17.431  -0.204  0.00  0.00     0.004 A 
ATOM     12  C   UNL d   1      24.754 -18.465   0.311  0.00  0.00     0.017 A 
ATOM     13  C   UNL d   1      23.338 -18.508   0.054  0.00  0.00     0.038 A 
ATOM     14  C   UNL d   1      22.694 -17.526  -0.704  0.00  0.00     0.069 A 
ATOM     15  C   UNL d   1      23.487 -16.575  -1.245  0.00  0.00     0.044 A 
ATOM     16  C   UNL d   1      24.846 -16.567  -1.028  0.00  0.00    -0.046 A 
ATOM     17  C   UNL d   1      25.426 -15.397  -1.650  0.00  0.00     0.049 C 
BRANCH  14  18
ATOM     18  O   UNL d   1      21.345 -17.509  -0.895  0.00  0.00    -0.347 OA
BRANCH  18  19
ATOM     19  C   UNL d   1      20.697 -18.757  -1.270  0.00  0.00     0.214 C 
BRANCH  19  20
ATOM     20  C   UNL d   1      19.989 -19.439  -0.120  0.00  0.00    -0.034 A 
ATOM     21  C   UNL d   1      20.514 -19.365   1.183  0.00  0.00     0.009 A 
ATOM     22  C   UNL d   1      19.902 -20.058   2.231  0.00  0.00     0.001 A 
ATOM     23  C   UNL d   1      18.758 -20.817   1.993  0.00  0.00     0.000 A 
ATOM     24  C   UNL d   1      18.211 -20.868   0.714  0.00  0.00     0.001 A 
ATOM     25  C   UNL d   1      18.820 -20.180  -0.331  0.00  0.00     0.009 A 
ENDBRANCH  19  20
ENDBRANCH  18  19
ENDBRANCH  14  18
ENDBRANCH   7  11
BRANCH   8  26
ATOM     26  C   UNL d   1      29.968 -16.332  -0.832  0.00  0.00    -0.030 A 
ATOM     27  C   UNL d   1      31.176 -17.065  -0.803  0.00  0.00     0.012 A 
ATOM     28  C   UNL d   1      31.833 -17.401  -1.977  0.00  0.00     0.037 A 
ATOM     29  C   UNL d   1      31.232 -17.095  -3.186  0.00  0.00     0.065 A 
ATOM     30  C   UNL d   1      30.029 -16.396  -3.235  0.00  0.00     0.037 A 
ATOM     31  C   UNL d   1      29.390 -16.015  -2.060  0.00  0.00     0.012 A 
BRANCH  29  32
ATOM     32  O   UNL d   1      31.787 -17.484  -4.366  0.00  0.00    -0.361 OA
ATOM     33  H   UNL d   1      32.539 -18.074  -4.184  0.00  0.00     0.217 HD
ENDBRANCH  29  32
ENDBRANCH   8  26
BRANCH   1  34
ATOM     34  C   UNL d   1      30.523 -13.815   1.352  0.00  0.00     0.155 C 
BRANCH  34  35
ATOM     35  C   UNL d   1      30.911 -14.633   2.618  0.00  0.00     0.254 C 
BRANCH  35  36
ATOM     36  N   UNL d   1      30.625 -13.880   3.913  0.00  0.00    -0.070 N 
ATOM     37  H   UNL d   1      31.509 -13.886   4.443  0.00  0.00     0.279 HD
BRANCH  36  38
ATOM     38  C   UNL d   1      30.319 -12.428   3.547  0.00  0.00     0.230 C 
ATOM     39  C   UNL d   1      28.849 -12.087   3.671  0.00  0.00     0.034 C 
ENDBRANCH  36  38
BRANCH  36  40
ATOM     40  C   UNL d   1      29.542 -14.588   4.695  0.00  0.00     0.230 C 
ATOM     41  C   UNL d   1      29.674 -14.448   6.190  0.00  0.00     0.034 C 
ENDBRANCH  36  40
ENDBRANCH  35  36
ENDBRANCH  34  35
ENDBRANCH   1  34
TORSDOF 12
ENDMDL
MODEL 2
REMARK VINA RESULT:    -9.820      3.295      5.130
REMARK INTER + INTRA:         -16.379
REMARK INTER:                 -13.400
REMARK INTRA:                  -2.979
REMARK CONF_INDEPENDENT:        3.580
REMARK UNBOUND:                -2.979
REMARK  12 active torsions:
REMARK  status: ('A' for Active; 'I' for Inactive)
REMARK    1  A    between atoms: C_2  and  N_3 
REMARK    2  A    between atoms: N_3  and  C_4 
REMARK    3  A    between atoms: N_3  and  C_6 
REMARK    4  A    between atoms: C_6  and  C_7 
REMARK    5  A    between atoms: C_7  and  N_8 
REMARK    6  A    between atoms: C_14  and  O_15 
REMARK    7  A    between atoms: C_14  and  C_16 
REMARK    8  A    between atoms: C_19  and  O_20 
REMARK    9  A    between atoms: O_20  and  C_21 
REMARK   10  A    between atoms: C_21  and  C_22 
REMARK   11  A    between atoms: C_31  and  C_32 
REMARK   12  A    between atoms: C_35  and  O_36 
ROOT
ATOM      1  N   UNL d   1      27.845 -13.904  -4.364  0.00  0.00    -0.331 N 
ATOM      2  C   UNL d   1      27.044 -14.843  -4.935  0.00  0.00     0.295 C 
ATOM      3  O   UNL d   1      27.027 -15.340  -6.021  0.00  0.00    -0.264 OA
ATOM      4  C   UNL d   1      25.914 -14.749  -3.986  0.00  0.00     0.250 C 
ATOM      5  O   UNL d   1      24.910 -14.259  -4.483  0.00  0.00    -0.282 OA
ATOM      6  C   UNL d   1      26.476 -14.739  -2.559  0.00  0.00     0.059 C 
ATOM      7  C   UNL d   1      26.117 -15.307  -1.351  0.00  0.00     0.089 C 
ATOM      8  C   UNL d   1      27.769 -13.976  -2.896  0.00  0.00     0.161 C 
ENDROOT
BRANCH   7   9
ATOM      9  O   UNL d   1      26.872 -15.087  -0.196  0.00  0.00    -0.359 OA
ATOM     10  H   UNL d   1      27.675 -14.566  -0.340  0.00  0.00     0.217 HD
ENDBRANCH   7   9
BRANCH   7  11
ATOM     11  C   UNL d   1      24.959 -16.261  -0.997  0.00  0.00     0.004 A 
ATOM     12  C   UNL d   1      23.583 -16.016  -1.193  0.00  0.00     0.017 A 
ATOM     13  C   UNL d   1      22.593 -17.018  -0.895  0.00  0.00     0.038 A 
ATOM     14  C   UNL d   1      22.944 -18.281  -0.410  0.00  0.00     0.069 A 
ATOM     15  C   UNL d   1      24.257 -18.484  -0.167  0.00  0.00     0.044 A 
ATOM     16  C   UNL d   1      25.191 -17.504  -0.415  0.00  0.00    -0.046 A 
ATOM     17  C   UNL d   1      26.515 -18.022  -0.147  0.00  0.00     0.049 C 
BRANCH  14  18
ATOM     18  O   UNL d   1      22.028 -19.267  -0.193  0.00  0.00    -0.347 OA
BRANCH  18  19
ATOM     19  C   UNL d   1      20.663 -19.038  -0.645  0.00  0.00     0.214 C 
BRANCH  19  20
ATOM     20  C   UNL d   1      19.623 -19.755   0.187  0.00  0.00    -0.034 A 
ATOM     21  C   UNL d   1      19.716 -19.763   1.591  0.00  0.00     0.009 A 
ATOM     22  C   UNL d   1      18.798 -20.489   2.355  0.00  0.00     0.001 A 
ATOM     23  C   UNL d   1      17.776 -21.200   1.730  0.00  0.00     0.000 A 
ATOM     24  C   UNL d   1      17.655 -21.170   0.344  0.00  0.00     0.001 A 
ATOM     25  C   UNL d   1      18.569 -20.450  -0.419  0.00  0.00     0.009 A 
ENDBRANCH  19  20
ENDBRANCH  18  19
ENDBRANCH  14  18
ENDBRANCH   7  11
BRANCH   8  26
ATOM     26  C   UNL d   1      29.012 -14.730  -2.490  0.00  0.00    -0.030 A 
ATOM     27  C   UNL d   1      29.058 -16.140  -2.572  0.00  0.00     0.012 A 
ATOM     28  C   UNL d   1      30.170 -16.843  -2.133  0.00  0.00     0.037 A 
ATOM     29  C   UNL d   1      31.279 -16.133  -1.705  0.00  0.00     0.065 A 
ATOM     30  C   UNL d   1      31.263 -14.742  -1.642  0.00  0.00     0.037 A 
ATOM     31  C   UNL d   1      30.132 -14.035  -2.036  0.00  0.00     0.012 A 
BRANCH  29  32
ATOM     32  O   UNL d   1      32.429 -16.769  -1.352  0.00  0.00    -0.361 OA
ATOM     33  H   UNL d   1      32.206 -17.564  -0.836  0.00  0.00     0.217 HD
ENDBRANCH  29  32
ENDBRANCH   8  26
BRANCH   1  34
ATOM     34  C   UNL d   1      28.244 -12.746  -5.115  0.00  0.00     0.155 C 
BRANCH  34  35
ATOM     35  C   UNL d   1      27.616 -11.414  -4.613  0.00  0.00     0.254 C 
BRANCH  35  36
ATOM     36  N   UNL d   1      26.104 -11.369  -4.807  0.00  0.00    -0.070 N 
ATOM     37  H   UNL d   1      25.764 -12.317  -4.591  0.00  0.00     0.279 HD
BRANCH  36  38
ATOM     38  C   UNL d   1      25.530 -10.423  -3.753  0.00  0.00     0.230 C 
ATOM     39  C   UNL d   1      26.599  -9.764  -2.908  0.00  0.00     0.034 C 
ENDBRANCH  36  38
BRANCH  36  40
ATOM     40  C   UNL d   1      25.777 -11.011  -6.240  0.00  0.00     0.230 C 
ATOM     41  C   UNL d   1      26.698  -9.978  -6.839  0.00  0.00     0.034 C 
ENDBRANCH  36  40
ENDBRANCH  35  36
ENDBRANCH  34  35
ENDBRANCH   1  34
TORSDOF 12
ENDMDL
MODEL 3
REMARK VINA RESULT:    -9.784      3.257      5.395
REMARK INTER + INTRA:         -16.441
REMARK INTER:                 -13.364
REMARK INTRA:                  -3.078
REMARK CONF_INDEPENDENT:        3.580
REMARK UNBOUND:                -3.078
REMARK  12 active torsions:
REMARK  status: ('A' for Active; 'I' for Inactive)
REMARK    1  A    between atoms: C_2  and  N_3 
REMARK    2  A    between atoms: N_3  and  C_4 
REMARK    3  A    between atoms: N_3  and  C_6 
REMARK    4  A    between atoms: C_6  and  C_7 
REMARK    5  A    between atoms: C_7  and  N_8 
REMARK    6  A    between atoms: C_14  and  O_15 
REMARK    7  A    between atoms: C_14  and  C_16 
REMARK    8  A    between atoms: C_19  and  O_20 
REMARK    9  A    between atoms: O_20  and  C_21 
REMARK   10  A    between atoms: C_21  and  C_22 
REMARK   11  A    between atoms: C_31  and  C_32 
REMARK   12  A    between atoms: C_35  and  O_36 
ROOT
ATOM      1  N   UNL d   1      27.854 -13.830  -4.267  0.00  0.00    -0.331 N 
ATOM      2  C   UNL d   1      27.049 -14.748  -4.865  0.00  0.00     0.295 C 
ATOM      3  O   UNL d   1      27.020 -15.201  -5.970  0.00  0.00    -0.264 OA
ATOM      4  C   UNL d   1      25.931 -14.697  -3.899  0.00  0.00     0.250 C 
ATOM      5  O   UNL d   1      24.919 -14.191  -4.362  0.00  0.00    -0.282 OA
ATOM      6  C   UNL d   1      26.511 -14.743  -2.479  0.00  0.00     0.059 C 
ATOM      7  C   UNL d   1      26.170 -15.362  -1.292  0.00  0.00     0.089 C 
ATOM      8  C   UNL d   1      27.798 -13.962  -2.801  0.00  0.00     0.161 C 
ENDROOT
BRANCH   7   9
ATOM      9  O   UNL d   1      26.939 -15.185  -0.139  0.00  0.00    -0.359 OA
ATOM     10  H   UNL d   1      27.770 -15.680  -0.136  0.00  0.00     0.217 HD
ENDBRANCH   7   9
BRANCH   7  11
ATOM     11  C   UNL d   1      25.019 -16.333  -0.963  0.00  0.00     0.004 A 
ATOM     12  C   UNL d   1      23.643 -16.102  -1.169  0.00  0.00     0.017 A 
ATOM     13  C   UNL d   1      22.661 -17.118  -0.895  0.00  0.00     0.038 A 
ATOM     14  C   UNL d   1      23.021 -18.384  -0.423  0.00  0.00     0.069 A 
ATOM     15  C   UNL d   1      24.335 -18.575  -0.169  0.00  0.00     0.044 A 
ATOM     16  C   UNL d   1      25.259 -17.581  -0.395  0.00  0.00    -0.046 A 
ATOM     17  C   UNL d   1      26.587 -18.087  -0.119  0.00  0.00     0.049 C 
BRANCH  14  18
ATOM     18  O   UNL d   1      22.115 -19.383  -0.228  0.00  0.00    -0.347 OA
BRANCH  18  19
ATOM     19  C   UNL d   1      20.757 -19.170  -0.706  0.00  0.00     0.214 C 
BRANCH  19  20
ATOM     20  C   UNL d   1      19.704 -19.840   0.150  0.00  0.00    -0.034 A 
ATOM     21  C   UNL d   1      19.848 -19.889   1.548  0.00  0.00     0.009 A 
ATOM     22  C   UNL d   1      18.915 -20.573   2.331  0.00  0.00     0.001 A 
ATOM     23  C   UNL d   1      17.826 -21.201   1.730  0.00  0.00     0.000 A 
ATOM     24  C   UNL d   1      17.655 -21.129   0.350  0.00  0.00     0.001 A 
ATOM     25  C   UNL d   1      18.585 -20.450  -0.431  0.00  0.00     0.009 A 
ENDBRANCH  19  20
ENDBRANCH  18  19
ENDBRANCH  14  18
ENDBRANCH   7  11
BRANCH   8  26
ATOM     26  C   UNL d   1      29.048 -14.728  -2.442  0.00  0.00    -0.030 A 
ATOM     27  C   UNL d   1      28.991 -16.113  -2.169  0.00  0.00     0.012 A 
ATOM     28  C   UNL d   1      30.123 -16.807  -1.768  0.00  0.00     0.037 A 
ATOM     29  C   UNL d   1      31.336 -16.139  -1.739  0.00  0.00     0.065 A 
ATOM     30  C   UNL d   1      31.417 -14.781  -2.030  0.00  0.00     0.037 A 
ATOM     31  C   UNL d   1      30.275 -14.070  -2.386  0.00  0.00     0.012 A 
BRANCH  29  32
ATOM     32  O   UNL d   1      32.492 -16.794  -1.444  0.00  0.00    -0.361 OA
ATOM     33  H   UNL d   1      32.283 -17.589  -0.923  0.00  0.00     0.217 HD
ENDBRANCH  29  32
ENDBRANCH   8  26
BRANCH   1  34
ATOM     34  C   UNL d   1      28.241 -12.641  -4.974  0.00  0.00     0.155 C 
BRANCH  34  35
ATOM     35  C   UNL d   1      29.475 -12.824  -5.903  0.00  0.00     0.254 C 
BRANCH  35  36
ATOM     36  N   UNL d   1      29.200 -13.777  -7.062  0.00  0.00    -0.070 N 
ATOM     37  H   UNL d   1      28.249 -14.142  -6.907  0.00  0.00     0.279 HD
BRANCH  36  38
ATOM     38  C   UNL d   1      29.172 -12.949  -8.345  0.00  0.00     0.230 C 
ATOM     39  C   UNL d   1      28.109 -11.870  -8.327  0.00  0.00     0.034 C 
ENDBRANCH  36  38
BRANCH  36  40
ATOM     40  C   UNL d   1      30.203 -14.910  -7.049  0.00  0.00     0.230 C 
ATOM     41  C   UNL d   1      30.131 -15.777  -5.818  0.00  0.00     0.034 C 
ENDBRANCH  36  40
ENDBRANCH  35  36
ENDBRANCH  34  35
ENDBRANCH   1  34
TORSDOF 12
ENDMDL
MODEL 4
REMARK VINA RESULT:    -9.400      1.710      2.215
REMARK INTER + INTRA:         -16.090
REMARK INTER:                 -12.980
REMARK INTRA:                  -3.110
REMARK CONF_INDEPENDENT:        3.580
REMARK UNBOUND:                -3.110
REMARK  12 active torsions:
REMARK  status: ('A' for Active; 'I' for Inactive)
REMARK    1  A    between atoms: C_2  and  N_3 
REMARK    2  A    between atoms: N_3  and  C_4 
REMARK    3  A    between atoms: N_3  and  C_6 
REMARK    4  A    between atoms: C_6  and  C_7 
REMARK    5  A    between atoms: C_7  and  N_8 
REMARK    6  A    between atoms: C_14  and  O_15 
REMARK    7  A    between atoms: C_14  and  C_16 
REMARK    8  A    between atoms: C_19  and  O_20 
REMARK    9  A    between atoms: O_20  and  C_21 
REMARK   10  A    between atoms: C_21  and  C_22 
REMARK   11  A    between atoms: C_31  and  C_32 
REMARK   12  A    between atoms: C_35  and  O_36 
ROOT
ATOM      1  N   UNL d   1      29.607 -13.618   0.474  0.00  0.00    -0.331 N 
ATOM      2  C   UNL d   1      28.411 -13.239   0.999  0.00  0.00     0.295 C 
ATOM      3  O   UNL d   1      28.032 -12.223   1.498  0.00  0.00    -0.264 OA
ATOM      4  C   UNL d   1      27.839 -14.588   1.194  0.00  0.00     0.250 C 
ATOM      5  O   UNL d   1      27.732 -14.900   2.371  0.00  0.00    -0.282 OA
ATOM      6  C   UNL d   1      28.086 -15.411  -0.078  0.00  0.00     0.059 C 
ATOM      7  C   UNL d   1      27.360 -16.321  -0.823  0.00  0.00     0.089 C 
ATOM      8  C   UNL d   1      29.440 -14.769  -0.429  0.00  0.00     0.161 C 
ENDROOT
BRANCH   7   9
ATOM      9  O   UNL d   1      27.901 -16.911  -1.969  0.00  0.00    -0.359 OA
ATOM     10  H   UNL d   1      28.861 -16.821  -2.046  0.00  0.00     0.217 HD
ENDBRANCH   7   9
BRANCH   7  11
ATOM     11  C   UNL d   1      25.918 -16.837  -0.647  0.00  0.00     0.004 A 
ATOM     12  C   UNL d   1      25.496 -17.863   0.223  0.00  0.00     0.017 A 
ATOM     13  C   UNL d   1      24.106 -18.207   0.360  0.00  0.00     0.038 A 
ATOM     14  C   UNL d   1      23.106 -17.536  -0.351  0.00  0.00     0.069 A 
ATOM     15  C   UNL d   1      23.525 -16.598  -1.228  0.00  0.00     0.044 A 
ATOM     16  C   UNL d   1      24.861 -16.307  -1.381  0.00  0.00    -0.046 A 
ATOM     17  C   UNL d   1      25.011 -15.211  -2.315  0.00  0.00     0.049 C 
BRANCH  14  18
ATOM     18  O   UNL d   1      21.779 -17.797  -0.180  0.00  0.00    -0.347 OA
BRANCH  18  19
ATOM     19  C   UNL d   1      21.250 -19.028  -0.749  0.00  0.00     0.214 C 
BRANCH  19  20
ATOM     20  C   UNL d   1      20.153 -19.654   0.084  0.00  0.00    -0.034 A 
ATOM     21  C   UNL d   1      20.283 -19.745   1.481  0.00  0.00     0.009 A 
ATOM     22  C   UNL d   1      19.305 -20.392   2.242  0.00  0.00     0.001 A 
ATOM     23  C   UNL d   1      18.185 -20.940   1.619  0.00  0.00     0.000 A 
ATOM     24  C   UNL d   1      18.030 -20.825   0.240  0.00  0.00     0.001 A 
ATOM     25  C   UNL d   1      19.004 -20.183  -0.518  0.00  0.00     0.009 A 
ENDBRANCH  19  20
ENDBRANCH  18  19
ENDBRANCH  14  18
ENDBRANCH   7  11
BRANCH   8  26
ATOM     26  C   UNL d   1      29.456 -14.168  -1.814  0.00  0.00    -0.030 A 
ATOM     27  C   UNL d   1      30.447 -14.541  -2.750  0.00  0.00     0.012 A 
ATOM     28  C   UNL d   1      30.510 -13.938  -3.998  0.00  0.00     0.037 A 
ATOM     29  C   UNL d   1      29.522 -13.035  -4.351  0.00  0.00     0.065 A 
ATOM     30  C   UNL d   1      28.523 -12.674  -3.451  0.00  0.00     0.037 A 
ATOM     31  C   UNL d   1      28.483 -13.240  -2.181  0.00  0.00     0.012 A 
BRANCH  29  32
ATOM     32  O   UNL d   1      29.483 -12.485  -5.595  0.00  0.00    -0.361 OA
ATOM     33  H   UNL d   1      30.257 -11.907  -5.710  0.00  0.00     0.217 HD
ENDBRANCH  29  32
ENDBRANCH   8  26
BRANCH   1  34
ATOM     34  C   UNL d   1      30.830 -13.260   1.136  0.00  0.00     0.155 C 
BRANCH  34  35
ATOM     35  C   UNL d   1      30.775 -13.380   2.687  0.00  0.00     0.254 C 
BRANCH  35  36
ATOM     36  N   UNL d   1      30.617 -14.822   3.157  0.00  0.00    -0.070 N 
ATOM     37  H   UNL d   1      29.882 -15.233   2.565  0.00  0.00     0.279 HD
BRANCH  36  38
ATOM     38  C   UNL d   1      31.921 -15.555   2.848  0.00  0.00     0.230 C 
ATOM     39  C   UNL d   1      31.902 -16.248   1.501  0.00  0.00     0.034 C 
ENDBRANCH  36  38
BRANCH  36  40
ATOM     40  C   UNL d   1      30.193 -14.849   4.609  0.00  0.00     0.230 C 
ATOM     41  C   UNL d   1      29.054 -13.916   4.932  0.00  0.00     0.034 C 
ENDBRANCH  36  40
ENDBRANCH  35  36
ENDBRANCH  34  35
ENDBRANCH   1  34
TORSDOF 12
ENDMDL
MODEL 5
REMARK VINA RESULT:    -9.212      3.106      8.196
REMARK INTER + INTRA:         -15.665
REMARK INTER:                 -12.791
REMARK INTRA:                  -2.874
REMARK CONF_INDEPENDENT:        3.580
REMARK UNBOUND:                -2.874
REMARK  12 active torsions:
REMARK  status: ('A' for Active; 'I' for Inactive)
REMARK    1  A    between atoms: C_2  and  N_3 
REMARK    2  A    between atoms: N_3  and  C_4 
REMARK    3  A    between atoms: N_3  and  C_6 
REMARK    4  A    between atoms: C_6  and  C_7 
REMARK    5  A    between atoms: C_7  and  N_8 
REMARK    6  A    between atoms: C_14  and  O_15 
REMARK    7  A    between atoms: C_14  and  C_16 
REMARK    8  A    between atoms: C_19  and  O_20 
REMARK    9  A    between atoms: O_20  and  C_21 
REMARK   10  A    between atoms: C_21  and  C_22 
REMARK   11  A    between atoms: C_31  and  C_32 
REMARK   12  A    between atoms: C_35  and  O_36 
ROOT
ATOM      1  N   UNL d   1      27.245 -14.814   0.497  0.00  0.00    -0.331 N 
ATOM      2  C   UNL d   1      28.502 -15.192   0.142  0.00  0.00     0.295 C 
ATOM      3  O   UNL d   1      29.417 -15.640   0.764  0.00  0.00    -0.264 OA
ATOM      4  C   UNL d   1      28.574 -14.470  -1.146  0.00  0.00     0.250 C 
ATOM      5  O   UNL d   1      29.360 -13.534  -1.129  0.00  0.00    -0.282 OA
ATOM      6  C   UNL d   1      27.269 -14.713  -1.916  0.00  0.00     0.059 C 
ATOM      7  C   UNL d   1      26.928 -14.956  -3.233  0.00  0.00     0.089 C 
ATOM      8  C   UNL d   1      26.357 -14.781  -0.677  0.00  0.00     0.161 C 
ENDROOT
BRANCH   7   9
ATOM      9  O   UNL d   1      25.596 -15.136  -3.613  0.00  0.00    -0.359 OA
ATOM     10  H   UNL d   1      25.050 -14.341  -3.539  0.00  0.00     0.217 HD
ENDBRANCH   7   9
BRANCH   7  11
ATOM     11  C   UNL d   1      27.815 -15.121  -4.483  0.00  0.00     0.004 A 
ATOM     12  C   UNL d   1      27.621 -14.502  -5.735  0.00  0.00     0.017 A 
ATOM     13  C   UNL d   1      28.563 -14.670  -6.810  0.00  0.00     0.038 A 
ATOM     14  C   UNL d   1      29.719 -15.442  -6.664  0.00  0.00     0.069 A 
ATOM     15  C   UNL d   1      29.865 -16.082  -5.483  0.00  0.00     0.044 A 
ATOM     16  C   UNL d   1      28.936 -15.947  -4.477  0.00  0.00    -0.046 A 
ATOM     17  C   UNL d   1      29.387 -16.667  -3.306  0.00  0.00     0.049 C 
BRANCH  14  18
ATOM     18  O   UNL d   1      30.660 -15.554  -7.645  0.00  0.00    -0.347 OA
BRANCH  18  19
ATOM     19  C   UNL d   1      31.827 -16.381  -7.376  0.00  0.00     0.214 C 
BRANCH  19  20
ATOM     20  C   UNL d   1      31.633 -17.836  -7.747  0.00  0.00    -0.034 A 
ATOM     21  C   UNL d   1      32.118 -18.328  -8.972  0.00  0.00     0.009 A 
ATOM     22  C   UNL d   1      31.874 -19.651  -9.349  0.00  0.00     0.001 A 
ATOM     23  C   UNL d   1      31.157 -20.496  -8.503  0.00  0.00     0.000 A 
ATOM     24  C   UNL d   1      30.702 -20.028  -7.274  0.00  0.00     0.001 A 
ATOM     25  C   UNL d   1      30.944 -18.710  -6.899  0.00  0.00     0.009 A 
ENDBRANCH  19  20
ENDBRANCH  18  19
ENDBRANCH  14  18
ENDBRANCH   7  11
BRANCH   8  26
ATOM     26  C   UNL d   1      25.578 -16.071  -0.598  0.00  0.00    -0.030 A 
ATOM     27  C   UNL d   1      24.268 -16.156  -1.122  0.00  0.00     0.012 A 
ATOM     28  C   UNL d   1      23.521 -17.317  -0.987  0.00  0.00     0.037 A 
ATOM     29  C   UNL d   1      24.119 -18.430  -0.418  0.00  0.00     0.065 A 
ATOM     30  C   UNL d   1      25.417 -18.374   0.080  0.00  0.00     0.037 A 
ATOM     31  C   UNL d   1      26.154 -17.196  -0.010  0.00  0.00     0.012 A 
BRANCH  29  32
ATOM     32  O   UNL d   1      23.464 -19.620  -0.347  0.00  0.00    -0.361 OA
ATOM     33  H   UNL d   1      23.044 -19.699   0.528  0.00  0.00     0.217 HD
ENDBRANCH  29  32
ENDBRANCH   8  26
BRANCH   1  34
ATOM     34  C   UNL d   1      27.030 -14.081   1.714  0.00  0.00     0.155 C 
BRANCH  34  35
ATOM     35  C   UNL d   1      28.335 -13.564   2.386  0.00  0.00     0.254 C 
BRANCH  35  36
ATOM     36  N   UNL d   1      28.930 -14.573   3.363  0.00  0.00    -0.070 N 
ATOM     37  H   UNL d   1      29.075 -15.438   2.822  0.00  0.00     0.279 HD
BRANCH  36  38
ATOM     38  C   UNL d   1      30.305 -14.056   3.782  0.00  0.00     0.230 C 
ATOM     39  C   UNL d   1      31.411 -14.500   2.847  0.00  0.00     0.034 C 
ENDBRANCH  36  38
BRANCH  36  40
ATOM     40  C   UNL d   1      27.963 -14.825   4.499  0.00  0.00     0.230 C 
ATOM     41  C   UNL d   1      28.607 -14.825   5.862  0.00  0.00     0.034 C 
ENDBRANCH  36  40
ENDBRANCH  35  36
ENDBRANCH  34  35
ENDBRANCH   1  34
TORSDOF 12
ENDMDL
MODEL 6
REMARK VINA RESULT:    -8.795      3.540      5.346
REMARK INTER + INTRA:         -15.345
REMARK INTER:                 -12.374
REMARK INTRA:                  -2.970
REMARK CONF_INDEPENDENT:        3.580
REMARK UNBOUND:                -2.970
REMARK  12 active torsions:
REMARK  status: ('A' for Active; 'I' for Inactive)
REMARK    1  A    between atoms: C_2  and  N_3 
REMARK    2  A    between atoms: N_3  and  C_4 
REMARK    3  A    between atoms: N_3  and  C_6 
REMARK    4  A    between atoms: C_6  and  C_7 
REMARK    5  A    between atoms: C_7  and  N_8 
REMARK    6  A    between atoms: C_14  and  O_15 
REMARK    7  A    between atoms: C_14  and  C_16 
REMARK    8  A    between atoms: C_19  and  O_20 
REMARK    9  A    between atoms: O_20  and  C_21 
REMARK   10  A    between atoms: C_21  and  C_22 
REMARK   11  A    between atoms: C_31  and  C_32 
REMARK   12  A    between atoms: C_35  and  O_36 
ROOT
ATOM      1  N   UNL d   1      29.251 -14.730  -4.836  0.00  0.00    -0.331 N 
ATOM      2  C   UNL d   1      28.072 -15.118  -5.391  0.00  0.00     0.295 C 
ATOM      3  O   UNL d   1      27.721 -15.269  -6.522  0.00  0.00    -0.264 OA
ATOM      4  C   UNL d   1      27.205 -14.862  -4.221  0.00  0.00     0.250 C 
ATOM      5  O   UNL d   1      26.441 -13.922  -4.385  0.00  0.00    -0.282 OA
ATOM      6  C   UNL d   1      27.888 -15.437  -2.973  0.00  0.00     0.059 C 
ATOM      7  C   UNL d   1      27.475 -16.126  -1.849  0.00  0.00     0.089 C 
ATOM      8  C   UNL d   1      29.331 -15.150  -3.427  0.00  0.00     0.161 C 
ENDROOT
BRANCH   7   9
ATOM      9  O   UNL d   1      28.387 -16.513  -0.863  0.00  0.00    -0.359 OA
ATOM     10  H   UNL d   1      28.662 -17.439  -0.919  0.00  0.00     0.217 HD
ENDBRANCH   7   9
BRANCH   7  11
ATOM     11  C   UNL d   1      26.078 -16.636  -1.443  0.00  0.00     0.004 A 
ATOM     12  C   UNL d   1      25.787 -17.851  -0.788  0.00  0.00     0.017 A 
ATOM     13  C   UNL d   1      24.446 -18.186  -0.388  0.00  0.00     0.038 A 
ATOM     14  C   UNL d   1      23.370 -17.324  -0.617  0.00  0.00     0.069 A 
ATOM     15  C   UNL d   1      23.647 -16.192  -1.301  0.00  0.00     0.044 A 
ATOM     16  C   UNL d   1      24.927 -15.902  -1.716  0.00  0.00    -0.046 A 
ATOM     17  C   UNL d   1      24.945 -14.597  -2.342  0.00  0.00     0.049 C 
BRANCH  14  18
ATOM     18  O   UNL d   1      22.107 -17.590  -0.180  0.00  0.00    -0.347 OA
BRANCH  18  19
ATOM     19  C   UNL d   1      21.350 -18.621  -0.877  0.00  0.00     0.214 C 
BRANCH  19  20
ATOM     20  C   UNL d   1      20.414 -19.395   0.025  0.00  0.00    -0.034 A 
ATOM     21  C   UNL d   1      19.311 -20.081  -0.514  0.00  0.00     0.009 A 
ATOM     22  C   UNL d   1      18.404 -20.732   0.327  0.00  0.00     0.001 A 
ATOM     23  C   UNL d   1      18.596 -20.716   1.707  0.00  0.00     0.000 A 
ATOM     24  C   UNL d   1      19.703 -20.069   2.248  0.00  0.00     0.001 A 
ATOM     25  C   UNL d   1      20.606 -19.418   1.412  0.00  0.00     0.009 A 
ENDBRANCH  19  20
ENDBRANCH  18  19
ENDBRANCH  14  18
ENDBRANCH   7  11
BRANCH   8  26
ATOM     26  C   UNL d   1      30.190 -16.391  -3.452  0.00  0.00    -0.030 A 
ATOM     27  C   UNL d   1      30.115 -17.299  -4.533  0.00  0.00     0.012 A 
ATOM     28  C   UNL d   1      30.848 -18.476  -4.526  0.00  0.00     0.037 A 
ATOM     29  C   UNL d   1      31.734 -18.701  -3.487  0.00  0.00     0.065 A 
ATOM     30  C   UNL d   1      31.841 -17.807  -2.426  0.00  0.00     0.037 A 
ATOM     31  C   UNL d   1      31.073 -16.647  -2.404  0.00  0.00     0.012 A 
BRANCH  29  32
ATOM     32  O   UNL d   1      32.545 -19.794  -3.478  0.00  0.00    -0.361 OA
ATOM     33  H   UNL d   1      32.548 -20.180  -2.585  0.00  0.00     0.217 HD
ENDBRANCH  29  32
ENDBRANCH   8  26
BRANCH   1  34
ATOM     34  C   UNL d   1      30.000 -13.650  -5.418  0.00  0.00     0.155 C 
BRANCH  34  35
ATOM     35  C   UNL d   1      29.316 -12.259  -5.291  0.00  0.00     0.254 C 
BRANCH  35  36
ATOM     36  N   UNL d   1      28.031 -12.161  -6.106  0.00  0.00    -0.070 N 
ATOM     37  H   UNL d   1      27.600 -13.096  -6.066  0.00  0.00     0.279 HD
BRANCH  36  38
ATOM     38  C   UNL d   1      27.097 -11.192  -5.383  0.00  0.00     0.230 C 
ATOM     39  C   UNL d   1      25.698 -11.180  -5.963  0.00  0.00     0.034 C 
ENDBRANCH  36  38
BRANCH  36  40
ATOM     40  C   UNL d   1      28.353 -11.796  -7.538  0.00  0.00     0.230 C 
ATOM     41  C   UNL d   1      28.863 -12.948  -8.365  0.00  0.00     0.034 C 
ENDBRANCH  36  40
ENDBRANCH  35  36
ENDBRANCH  34  35
ENDBRANCH   1  34
TORSDOF 12
ENDMDL
MODEL 7
REMARK VINA RESULT:    -8.604      2.176      3.547
REMARK INTER + INTRA:         -15.448
REMARK INTER:                 -12.183
REMARK INTRA:                  -3.265
REMARK CONF_INDEPENDENT:        3.580
REMARK UNBOUND:                -3.265
REMARK  12 active torsions:
REMARK  status: ('A' for Active; 'I' for Inactive)
REMARK    1  A    between atoms: C_2  and  N_3 
REMARK    2  A    between atoms: N_3  and  C_4 
REMARK    3  A    between atoms: N_3  and  C_6 
REMARK    4  A    between atoms: C_6  and  C_7 
REMARK    5  A    between atoms: C_7  and  N_8 
REMARK    6  A    between atoms: C_14  and  O_15 
REMARK    7  A    between atoms: C_14  and  C_16 
REMARK    8  A    between atoms: C_19  and  O_20 
REMARK    9  A    between atoms: O_20  and  C_21 
REMARK   10  A    between atoms: C_21  and  C_22 
REMARK   11  A    between atoms: C_31  and  C_32 
REMARK   12  A    between atoms: C_35  and  O_36 
ROOT
ATOM      1  N   UNL d   1      28.705 -12.765   0.207  0.00  0.00    -0.331 N 
ATOM      2  C   UNL d   1      27.664 -12.885   1.072  0.00  0.00     0.295 C 
ATOM      3  O   UNL d   1      27.257 -12.186   1.951  0.00  0.00    -0.264 OA
ATOM      4  C   UNL d   1      27.446 -14.340   0.925  0.00  0.00     0.250 C 
ATOM      5  O   UNL d   1      27.749 -14.975   1.926  0.00  0.00    -0.282 OA
ATOM      6  C   UNL d   1      27.468 -14.688  -0.569  0.00  0.00     0.059 C 
ATOM      7  C   UNL d   1      26.748 -15.526  -1.399  0.00  0.00     0.089 C 
ATOM      8  C   UNL d   1      28.510 -13.629  -0.970  0.00  0.00     0.161 C 
ENDROOT
BRANCH   7   9
ATOM      9  O   UNL d   1      27.037 -15.612  -2.764  0.00  0.00    -0.359 OA
ATOM     10  H   UNL d   1      27.602 -16.359  -3.004  0.00  0.00     0.217 HD
ENDBRANCH   7   9
BRANCH   7  11
ATOM     11  C   UNL d   1      25.548 -16.445  -1.099  0.00  0.00     0.004 A 
ATOM     12  C   UNL d   1      24.217 -16.251  -1.524  0.00  0.00     0.017 A 
ATOM     13  C   UNL d   1      23.191 -17.222  -1.247  0.00  0.00     0.038 A 
ATOM     14  C   UNL d   1      23.464 -18.407  -0.558  0.00  0.00     0.069 A 
ATOM     15  C   UNL d   1      24.726 -18.555  -0.101  0.00  0.00     0.044 A 
ATOM     16  C   UNL d   1      25.689 -17.600  -0.334  0.00  0.00    -0.046 A 
ATOM     17  C   UNL d   1      26.958 -18.057   0.189  0.00  0.00     0.049 C 
BRANCH  14  18
ATOM     18  O   UNL d   1      22.523 -19.372  -0.351  0.00  0.00    -0.347 OA
BRANCH  18  19
ATOM     19  C   UNL d   1      21.160 -19.095  -0.781  0.00  0.00     0.214 C 
BRANCH  19  20
ATOM     20  C   UNL d   1      20.108 -19.732   0.101  0.00  0.00    -0.034 A 
ATOM     21  C   UNL d   1      20.281 -19.776   1.496  0.00  0.00     0.009 A 
ATOM     22  C   UNL d   1      19.347 -20.430   2.303  0.00  0.00     0.001 A 
ATOM     23  C   UNL d   1      18.229 -21.033   1.729  0.00  0.00     0.000 A 
ATOM     24  C   UNL d   1      18.031 -20.965   0.353  0.00  0.00     0.001 A 
ATOM     25  C   UNL d   1      18.962 -20.315  -0.452  0.00  0.00     0.009 A 
ENDBRANCH  19  20
ENDBRANCH  18  19
ENDBRANCH  14  18
ENDBRANCH   7  11
BRANCH   8  26
ATOM     26  C   UNL d   1      28.007 -12.695  -2.044  0.00  0.00    -0.030 A 
ATOM     27  C   UNL d   1      26.625 -12.435  -2.183  0.00  0.00     0.012 A 
ATOM     28  C   UNL d   1      26.151 -11.636  -3.213  0.00  0.00     0.037 A 
ATOM     29  C   UNL d   1      27.065 -11.013  -4.046  0.00  0.00     0.065 A 
ATOM     30  C   UNL d   1      28.432 -11.236  -3.908  0.00  0.00     0.037 A 
ATOM     31  C   UNL d   1      28.910 -12.075  -2.906  0.00  0.00     0.012 A 
BRANCH  29  32
ATOM     32  O   UNL d   1      26.659 -10.146  -5.012  0.00  0.00    -0.361 OA
ATOM     33  H   UNL d   1      25.686 -10.138  -5.044  0.00  0.00     0.217 HD
ENDBRANCH  29  32
ENDBRANCH   8  26
BRANCH   1  34
ATOM     34  C   UNL d   1      29.975 -12.277   0.670  0.00  0.00     0.155 C 
BRANCH  34  35
ATOM     35  C   UNL d   1      31.067 -13.376   0.813  0.00  0.00     0.254 C 
BRANCH  35  36
ATOM     36  N   UNL d   1      30.592 -14.571   1.634  0.00  0.00    -0.070 N 
ATOM     37  H   UNL d   1      29.568 -14.597   1.527  0.00  0.00     0.279 HD
BRANCH  36  38
ATOM     38  C   UNL d   1      31.155 -15.833   0.983  0.00  0.00     0.230 C 
ATOM     39  C   UNL d   1      30.454 -16.192  -0.310  0.00  0.00     0.034 C 
ENDBRANCH  36  38
BRANCH  36  40
ATOM     40  C   UNL d   1      30.960 -14.377   3.088  0.00  0.00     0.230 C 
ATOM     41  C   UNL d   1      29.784 -14.084   3.984  0.00  0.00     0.034 C 
ENDBRANCH  36  40
ENDBRANCH  35  36
ENDBRANCH  34  35
ENDBRANCH   1  34
TORSDOF 12
ENDMDL
MODEL 8
REMARK VINA RESULT:    -8.579      2.837      5.116
REMARK INTER + INTRA:         -15.554
REMARK INTER:                 -12.159
REMARK INTRA:                  -3.396
REMARK CONF_INDEPENDENT:        3.580
REMARK UNBOUND:                -3.396
REMARK  12 active torsions:
REMARK  status: ('A' for Active; 'I' for Inactive)
REMARK    1  A    between atoms: C_2  and  N_3 
REMARK    2  A    between atoms: N_3  and  C_4 
REMARK    3  A    between atoms: N_3  and  C_6 
REMARK    4  A    between atoms: C_6  and  C_7 
REMARK    5  A    between atoms: C_7  and  N_8 
REMARK    6  A    between atoms: C_14  and  O_15 
REMARK    7  A    between atoms: C_14  and  C_16 
REMARK    8  A    between atoms: C_19  and  O_20 
REMARK    9  A    between atoms: O_20  and  C_21 
REMARK   10  A    between atoms: C_21  and  C_22 
REMARK   11  A    between atoms: C_31  and  C_32 
REMARK   12  A    between atoms: C_35  and  O_36 
ROOT
ATOM      1  N   UNL d   1      30.627 -16.232  -3.087  0.00  0.00    -0.331 N 
ATOM      2  C   UNL d   1      29.705 -16.925  -3.807  0.00  0.00     0.295 C 
ATOM      3  O   UNL d   1      29.777 -17.561  -4.815  0.00  0.00    -0.264 OA
ATOM      4  C   UNL d   1      28.493 -16.295  -3.242  0.00  0.00     0.250 C 
ATOM      5  O   UNL d   1      27.904 -15.583  -4.043  0.00  0.00    -0.282 OA
ATOM      6  C   UNL d   1      28.640 -16.236  -1.716  0.00  0.00     0.059 C 
ATOM      7  C   UNL d   1      27.803 -16.438  -0.634  0.00  0.00     0.089 C 
ATOM      8  C   UNL d   1      30.164 -16.026  -1.704  0.00  0.00     0.161 C 
ENDROOT
BRANCH   7   9
ATOM      9  O   UNL d   1      28.270 -16.296   0.675  0.00  0.00    -0.359 OA
ATOM     10  H   UNL d   1      28.802 -17.040   0.990  0.00  0.00     0.217 HD
ENDBRANCH   7   9
BRANCH   7  11
ATOM     11  C   UNL d   1      26.324 -16.867  -0.577  0.00  0.00     0.004 A 
ATOM     12  C   UNL d   1      25.799 -17.974   0.121  0.00  0.00     0.017 A 
ATOM     13  C   UNL d   1      24.384 -18.231   0.166  0.00  0.00     0.038 A 
ATOM     14  C   UNL d   1      23.461 -17.394  -0.468  0.00  0.00     0.069 A 
ATOM     15  C   UNL d   1      23.977 -16.373  -1.186  0.00  0.00     0.044 A 
ATOM     16  C   UNL d   1      25.334 -16.161  -1.257  0.00  0.00    -0.046 A 
ATOM     17  C   UNL d   1      25.595 -14.957  -2.016  0.00  0.00     0.049 C 
BRANCH  14  18
ATOM     18  O   UNL d   1      22.114 -17.579  -0.375  0.00  0.00    -0.347 OA
BRANCH  18  19
ATOM     19  C   UNL d   1      21.561 -18.821  -0.896  0.00  0.00     0.214 C 
BRANCH  19  20
ATOM     20  C   UNL d   1      20.496 -19.427  -0.008  0.00  0.00    -0.034 A 
ATOM     21  C   UNL d   1      20.640 -19.408   1.391  0.00  0.00     0.009 A 
ATOM     22  C   UNL d   1      19.695 -20.034   2.207  0.00  0.00     0.001 A 
ATOM     23  C   UNL d   1      18.594 -20.671   1.638  0.00  0.00     0.000 A 
ATOM     24  C   UNL d   1      18.424 -20.666   0.257  0.00  0.00     0.001 A 
ATOM     25  C   UNL d   1      19.366 -20.045  -0.558  0.00  0.00     0.009 A 
ENDBRANCH  19  20
ENDBRANCH  18  19
ENDBRANCH  14  18
ENDBRANCH   7  11
BRANCH   8  26
ATOM     26  C   UNL d   1      30.890 -17.079  -0.902  0.00  0.00    -0.030 A 
ATOM     27  C   UNL d   1      31.749 -16.711   0.159  0.00  0.00     0.012 A 
ATOM     28  C   UNL d   1      32.474 -17.670   0.852  0.00  0.00     0.037 A 
ATOM     29  C   UNL d   1      32.266 -19.006   0.553  0.00  0.00     0.065 A 
ATOM     30  C   UNL d   1      31.404 -19.388  -0.471  0.00  0.00     0.037 A 
ATOM     31  C   UNL d   1      30.711 -18.428  -1.201  0.00  0.00     0.012 A 
BRANCH  29  32
ATOM     32  O   UNL d   1      32.881 -19.989   1.265  0.00  0.00    -0.361 OA
ATOM     33  H   UNL d   1      33.510 -19.585   1.887  0.00  0.00     0.217 HD
ENDBRANCH  29  32
ENDBRANCH   8  26
BRANCH   1  34
ATOM     34  C   UNL d   1      31.605 -15.422  -3.759  0.00  0.00     0.155 C 
BRANCH  34  35
ATOM     35  C   UNL d   1      31.003 -14.247  -4.582  0.00  0.00     0.254 C 
BRANCH  35  36
ATOM     36  N   UNL d   1      30.172 -14.728  -5.767  0.00  0.00    -0.070 N 
ATOM     37  H   UNL d   1      29.609 -15.516  -5.415  0.00  0.00     0.279 HD
BRANCH  36  38
ATOM     38  C   UNL d   1      29.206 -13.605  -6.141  0.00  0.00     0.230 C 
ATOM     39  C   UNL d   1      29.343 -13.166  -7.584  0.00  0.00     0.034 C 
ENDBRANCH  36  38
BRANCH  36  40
ATOM     40  C   UNL d   1      31.081 -15.193  -6.883  0.00  0.00     0.230 C 
ATOM     41  C   UNL d   1      30.883 -16.635  -7.273  0.00  0.00     0.034 C 
ENDBRANCH  36  40
ENDBRANCH  35  36
ENDBRANCH  34  35
ENDBRANCH   1  34
TORSDOF 12
ENDMDL
MODEL 9
REMARK VINA RESULT:    -8.438      1.880      4.998
REMARK INTER + INTRA:         -15.291
REMARK INTER:                 -12.017
REMARK INTRA:                  -3.274
REMARK CONF_INDEPENDENT:        3.580
REMARK UNBOUND:                -3.274
REMARK  12 active torsions:
REMARK  status: ('A' for Active; 'I' for Inactive)
REMARK    1  A    between atoms: C_2  and  N_3 
REMARK    2  A    between atoms: N_3  and  C_4 
REMARK    3  A    between atoms: N_3  and  C_6 
REMARK    4  A    between atoms: C_6  and  C_7 
REMARK    5  A    between atoms: C_7  and  N_8 
REMARK    6  A    between atoms: C_14  and  O_15 
REMARK    7  A    between atoms: C_14  and  C_16 
REMARK    8  A    between atoms: C_19  and  O_20 
REMARK    9  A    between atoms: O_20  and  C_21 
REMARK   10  A    between atoms: C_21  and  C_22 
REMARK   11  A    between atoms: C_31  and  C_32 
REMARK   12  A    between atoms: C_35  and  O_36 
ROOT
ATOM      1  N   UNL d   1      30.332 -15.218  -1.318  0.00  0.00    -0.331 N 
ATOM      2  C   UNL d   1      30.046 -16.538  -1.479  0.00  0.00     0.295 C 
ATOM      3  O   UNL d   1      30.735 -17.506  -1.601  0.00  0.00    -0.264 OA
ATOM      4  C   UNL d   1      28.642 -16.388  -1.918  0.00  0.00     0.250 C 
ATOM      5  O   UNL d   1      28.472 -16.684  -3.092  0.00  0.00    -0.282 OA
ATOM      6  C   UNL d   1      27.945 -15.384  -0.991  0.00  0.00     0.059 C 
ATOM      7  C   UNL d   1      26.702 -15.287  -0.394  0.00  0.00     0.089 C 
ATOM      8  C   UNL d   1      29.181 -14.499  -0.747  0.00  0.00     0.161 C 
ENDROOT
BRANCH   7   9
ATOM      9  O   UNL d   1      26.375 -14.201   0.421  0.00  0.00    -0.359 OA
ATOM     10  H   UNL d   1      26.828 -13.379   0.188  0.00  0.00     0.217 HD
ENDBRANCH   7   9
BRANCH   7  11
ATOM     11  C   UNL d   1      25.500 -16.252  -0.421  0.00  0.00     0.004 A 
ATOM     12  C   UNL d   1      24.195 -15.952  -0.865  0.00  0.00     0.017 A 
ATOM     13  C   UNL d   1      23.170 -16.961  -0.917  0.00  0.00     0.038 A 
ATOM     14  C   UNL d   1      23.417 -18.285  -0.543  0.00  0.00     0.069 A 
ATOM     15  C   UNL d   1      24.651 -18.548  -0.060  0.00  0.00     0.044 A 
ATOM     16  C   UNL d   1      25.611 -17.566   0.025  0.00  0.00    -0.046 A 
ATOM     17  C   UNL d   1      26.852 -18.146   0.492  0.00  0.00     0.049 C 
BRANCH  14  18
ATOM     18  O   UNL d   1      22.481 -19.269  -0.655  0.00  0.00    -0.347 OA
BRANCH  18  19
ATOM     19  C   UNL d   1      21.102 -18.871  -0.900  0.00  0.00     0.214 C 
BRANCH  19  20
ATOM     20  C   UNL d   1      20.105 -19.564   0.003  0.00  0.00    -0.034 A 
ATOM     21  C   UNL d   1      20.355 -19.684   1.382  0.00  0.00     0.009 A 
ATOM     22  C   UNL d   1      19.471 -20.389   2.202  0.00  0.00     0.001 A 
ATOM     23  C   UNL d   1      18.326 -20.969   1.658  0.00  0.00     0.000 A 
ATOM     24  C   UNL d   1      18.052 -20.826   0.301  0.00  0.00     0.001 A 
ATOM     25  C   UNL d   1      18.932 -20.125  -0.517  0.00  0.00     0.009 A 
ENDBRANCH  19  20
ENDBRANCH  18  19
ENDBRANCH  14  18
ENDBRANCH   7  11
BRANCH   8  26
ATOM     26  C   UNL d   1      29.514 -14.357   0.719  0.00  0.00    -0.030 A 
ATOM     27  C   UNL d   1      30.716 -14.890   1.239  0.00  0.00     0.012 A 
ATOM     28  C   UNL d   1      30.993 -14.826   2.597  0.00  0.00     0.037 A 
ATOM     29  C   UNL d   1      30.118 -14.140   3.423  0.00  0.00     0.065 A 
ATOM     30  C   UNL d   1      28.943 -13.586   2.924  0.00  0.00     0.037 A 
ATOM     31  C   UNL d   1      28.636 -13.689   1.571  0.00  0.00     0.012 A 
BRANCH  29  32
ATOM     32  O   UNL d   1      30.389 -13.968   4.745  0.00  0.00    -0.361 OA
ATOM     33  H   UNL d   1      31.298 -13.634   4.842  0.00  0.00     0.217 HD
ENDBRANCH  29  32
ENDBRANCH   8  26
BRANCH   1  34
ATOM     34  C   UNL d   1      31.386 -14.611  -2.083  0.00  0.00     0.155 C 
BRANCH  34  35
ATOM     35  C   UNL d   1      31.118 -14.565  -3.615  0.00  0.00     0.254 C 
BRANCH  35  36
ATOM     36  N   UNL d   1      31.070 -15.953  -4.243  0.00  0.00    -0.070 N 
ATOM     37  H   UNL d   1      30.576 -16.552  -3.567  0.00  0.00     0.279 HD
BRANCH  36  38
ATOM     38  C   UNL d   1      30.203 -15.864  -5.498  0.00  0.00     0.230 C 
ATOM     39  C   UNL d   1      29.087 -14.848  -5.372  0.00  0.00     0.034 C 
ENDBRANCH  36  38
BRANCH  36  40
ATOM     40  C   UNL d   1      32.475 -16.468  -4.467  0.00  0.00     0.230 C 
ATOM     41  C   UNL d   1      32.763 -17.780  -3.782  0.00  0.00     0.034 C 
ENDBRANCH  36  40
ENDBRANCH  35  36
ENDBRANCH  34  35
ENDBRANCH   1  34
TORSDOF 12
ENDMDL
