MODEL 1
REMARK VINA RESULT:    -8.281      0.000      0.000
REMARK INTER + INTRA:         -11.407
REMARK INTER:                 -10.071
REMARK INTRA:                  -1.336
REMARK CONF_INDEPENDENT:        1.790
REMARK UNBOUND:                -1.336
REMARK  6 active torsions:
REMARK  status: ('A' for Active; 'I' for Inactive)
REMARK    1  A    between atoms: C_4  and  C_5 
REMARK    2  A    between atoms: C_12  and  C_13 
REMARK       I    between atoms: C_13  and  N_15 
REMARK    3  A    between atoms: N_15  and  N_16 
REMARK    4  A    between atoms: N_16  and  C_17 
REMARK    5  A    between atoms: C_17  and  N_19 
REMARK    6  A    between atoms: N_19  and  C_20 
ROOT
ATOM      1  C   UNL d   1      29.182 -14.523   5.528  0.00  0.00     0.275 C 
ATOM      2  O   UNL d   1      30.031 -15.423   5.474  0.00  0.00    -0.266 OA
ATOM      3  N   UNL d   1      28.443 -14.177   4.404  0.00  0.00    -0.263 N 
ATOM      4  H   UNL d   1      27.731 -13.449   4.410  0.00  0.00     0.190 HD
ENDROOT
BRANCH   3   5
ATOM      5  N   UNL d   1      28.635 -14.830   3.122  0.00  0.00    -0.273 N 
ATOM      6  H   UNL d   1      29.334 -15.572   3.109  0.00  0.00     0.189 HD
BRANCH   5   7
ATOM      7  C   UNL d   1      27.827 -14.457   2.035  0.00  0.00     0.191 C 
ATOM      8  S   UNL d   1      26.763 -13.152   2.205  0.00  0.00    -0.039 SA
BRANCH   7   9
ATOM      9  N   UNL d   1      27.978 -15.263   0.883  0.00  0.00    -0.331 N 
ATOM     10  H   UNL d   1      28.629 -16.037   0.932  0.00  0.00     0.168 HD
BRANCH   9  11
ATOM     11  C   UNL d   1      27.047 -15.304  -0.225  0.00  0.00     0.045 A 
ATOM     12  C   UNL d   1      27.104 -14.284  -1.185  0.00  0.00     0.030 A 
ATOM     13  C   UNL d   1      26.162 -14.175  -2.204  0.00  0.00     0.003 A 
ATOM     14  C   UNL d   1      25.163 -15.129  -2.326  0.00  0.00     0.012 A 
ATOM     15  C   UNL d   1      25.123 -16.227  -1.460  0.00  0.00    -0.024 A 
ATOM     16  C   UNL d   1      24.126 -17.199  -1.652  0.00  0.00     0.012 A 
ATOM     17  C   UNL d   1      26.073 -16.343  -0.394  0.00  0.00     0.001 A 
ATOM     18  C   UNL d   1      24.036 -18.303  -0.813  0.00  0.00     0.001 A 
ATOM     19  C   UNL d   1      24.937 -18.436   0.237  0.00  0.00     0.001 A 
ATOM     20  C   UNL d   1      25.932 -17.470   0.448  0.00  0.00     0.014 A 
ENDBRANCH   9  11
ENDBRANCH   7   9
ENDBRANCH   5   7
ENDBRANCH   3   5
BRANCH   1  21
ATOM     21  C   UNL d   1      28.919 -13.768   6.764  0.00  0.00     0.098 C 
ATOM     22  C   UNL d   1      28.031 -12.686   7.027  0.00  0.00     0.160 C 
ATOM     23  N   UNL d   1      28.121 -12.200   8.273  0.00  0.00    -0.181 NA
ATOM     24  N   UNL d   1      28.964 -13.052   8.877  0.00  0.00    -0.240 N 
ATOM     25  C   UNL d   1      29.330 -12.930  10.285  0.00  0.00     0.221 C 
ATOM     26  C   UNL d   1      29.536 -13.950   7.998  0.00  0.00     0.138 C 
ATOM     27  C   UNL d   1      30.163 -14.154  10.731  0.00  0.00     0.061 C 
ATOM     28  C   UNL d   1      31.220 -14.450   9.668  0.00  0.00     0.081 C 
ATOM     29  C   UNL d   1      32.146 -15.567  10.118  0.00  0.00     0.032 C 
ATOM     30  N   UNL d   1      30.495 -14.800   8.449  0.00  0.00    -0.370 N 
ATOM     31  H   UNL d   1      30.907 -15.488   7.815  0.00  0.00     0.161 HD
BRANCH  25  32
ATOM     32  C   UNL d   1      28.154 -12.725  11.232  0.00  0.00     0.409 C 
ATOM     33  F   UNL d   1      27.031 -12.242  10.671  0.00  0.00    -0.169 F 
ATOM     34  F   UNL d   1      27.803 -13.877  11.860  0.00  0.00    -0.169 F 
ATOM     35  F   UNL d   1      28.506 -11.861  12.223  0.00  0.00    -0.169 F 
ENDBRANCH  25  32
ENDBRANCH   1  21
TORSDOF 6
ENDMDL
MODEL 2
REMARK VINA RESULT:    -7.919      0.561      2.034
REMARK INTER + INTRA:         -11.026
REMARK INTER:                  -9.709
REMARK INTRA:                  -1.317
REMARK CONF_INDEPENDENT:        1.790
REMARK UNBOUND:                -1.317
REMARK  6 active torsions:
REMARK  status: ('A' for Active; 'I' for Inactive)
REMARK    1  A    between atoms: C_4  and  C_5 
REMARK    2  A    between atoms: C_12  and  C_13 
REMARK       I    between atoms: C_13  and  N_15 
REMARK    3  A    between atoms: N_15  and  N_16 
REMARK    4  A    between atoms: N_16  and  C_17 
REMARK    5  A    between atoms: C_17  and  N_19 
REMARK    6  A    between atoms: N_19  and  C_20 
ROOT
ATOM      1  C   UNL d   1      29.308 -14.360   5.381  0.00  0.00     0.275 C 
ATOM      2  O   UNL d   1      30.193 -15.226   5.348  0.00  0.00    -0.266 OA
ATOM      3  N   UNL d   1      28.574 -14.052   4.243  0.00  0.00    -0.263 N 
ATOM      4  H   UNL d   1      27.834 -13.353   4.231  0.00  0.00     0.190 HD
ENDROOT
BRANCH   3   5
ATOM      5  N   UNL d   1      28.811 -14.707   2.969  0.00  0.00    -0.273 N 
ATOM      6  H   UNL d   1      29.670 -15.253   2.911  0.00  0.00     0.189 HD
BRANCH   5   7
ATOM      7  C   UNL d   1      27.845 -14.605   1.955  0.00  0.00     0.191 C 
ATOM      8  S   UNL d   1      26.737 -13.326   1.995  0.00  0.00    -0.039 SA
BRANCH   7   9
ATOM      9  N   UNL d   1      27.887 -15.639   0.992  0.00  0.00    -0.331 N 
ATOM     10  H   UNL d   1      28.607 -16.344   1.090  0.00  0.00     0.168 HD
BRANCH   9  11
ATOM     11  C   UNL d   1      26.803 -15.979   0.095  0.00  0.00     0.045 A 
ATOM     12  C   UNL d   1      26.132 -17.196   0.289  0.00  0.00     0.030 A 
ATOM     13  C   UNL d   1      25.171 -17.659  -0.606  0.00  0.00     0.003 A 
ATOM     14  C   UNL d   1      24.811 -16.882  -1.696  0.00  0.00     0.012 A 
ATOM     15  C   UNL d   1      25.370 -15.613  -1.877  0.00  0.00    -0.024 A 
ATOM     16  C   UNL d   1      24.937 -14.837  -2.966  0.00  0.00     0.012 A 
ATOM     17  C   UNL d   1      26.375 -15.130  -0.978  0.00  0.00     0.001 A 
ATOM     18  C   UNL d   1      25.470 -13.574  -3.197  0.00  0.00     0.001 A 
ATOM     19  C   UNL d   1      26.453 -13.084  -2.347  0.00  0.00     0.001 A 
ATOM     20  C   UNL d   1      26.905 -13.850  -1.262  0.00  0.00     0.014 A 
ENDBRANCH   9  11
ENDBRANCH   7   9
ENDBRANCH   5   7
ENDBRANCH   3   5
BRANCH   1  21
ATOM     21  C   UNL d   1      28.995 -13.607   6.607  0.00  0.00     0.098 C 
ATOM     22  C   UNL d   1      28.123 -12.504   6.829  0.00  0.00     0.160 C 
ATOM     23  N   UNL d   1      28.155 -12.029   8.081  0.00  0.00    -0.181 NA
ATOM     24  N   UNL d   1      28.941 -12.907   8.725  0.00  0.00    -0.240 N 
ATOM     25  C   UNL d   1      29.232 -12.804  10.152  0.00  0.00     0.221 C 
ATOM     26  C   UNL d   1      29.539 -13.813   7.871  0.00  0.00     0.138 C 
ATOM     27  C   UNL d   1      30.007 -14.051  10.633  0.00  0.00     0.061 C 
ATOM     28  C   UNL d   1      31.113 -14.368   9.628  0.00  0.00     0.081 C 
ATOM     29  C   UNL d   1      31.985 -15.511  10.119  0.00  0.00     0.032 C 
ATOM     30  N   UNL d   1      30.449 -14.691   8.368  0.00  0.00    -0.370 N 
ATOM     31  H   UNL d   1      30.878 -15.385   7.752  0.00  0.00     0.161 HD
BRANCH  25  32
ATOM     32  C   UNL d   1      28.010 -12.575  11.034  0.00  0.00     0.409 C 
ATOM     33  F   UNL d   1      27.032 -11.827  10.492  0.00  0.00    -0.169 F 
ATOM     34  F   UNL d   1      27.433 -13.745  11.412  0.00  0.00    -0.169 F 
ATOM     35  F   UNL d   1      28.385 -11.961  12.189  0.00  0.00    -0.169 F 
ENDBRANCH  25  32
ENDBRANCH   1  21
TORSDOF 6
ENDMDL
MODEL 3
REMARK VINA RESULT:    -7.629      9.420     12.062
REMARK INTER + INTRA:         -10.850
REMARK INTER:                  -9.419
REMARK INTRA:                  -1.431
REMARK CONF_INDEPENDENT:        1.790
REMARK UNBOUND:                -1.431
REMARK  6 active torsions:
REMARK  status: ('A' for Active; 'I' for Inactive)
REMARK    1  A    between atoms: C_4  and  C_5 
REMARK    2  A    between atoms: C_12  and  C_13 
REMARK       I    between atoms: C_13  and  N_15 
REMARK    3  A    between atoms: N_15  and  N_16 
REMARK    4  A    between atoms: N_16  and  C_17 
REMARK    5  A    between atoms: C_17  and  N_19 
REMARK    6  A    between atoms: N_19  and  C_20 
ROOT
ATOM      1  C   UNL d   1      25.952 -11.461  -3.648  0.00  0.00     0.275 C 
ATOM      2  O   UNL d   1      26.087 -11.926  -2.508  0.00  0.00    -0.266 OA
ATOM      3  N   UNL d   1      25.241 -12.156  -4.617  0.00  0.00    -0.263 N 
ATOM      4  H   UNL d   1      25.101 -11.805  -5.563  0.00  0.00     0.190 HD
ENDROOT
BRANCH   3   5
ATOM      5  N   UNL d   1      24.640 -13.452  -4.355  0.00  0.00    -0.273 N 
ATOM      6  H   UNL d   1      23.670 -13.553  -4.653  0.00  0.00     0.189 HD
BRANCH   5   7
ATOM      7  C   UNL d   1      25.425 -14.470  -3.789  0.00  0.00     0.191 C 
ATOM      8  S   UNL d   1      26.204 -15.576  -4.808  0.00  0.00    -0.039 SA
BRANCH   7   9
ATOM      9  N   UNL d   1      25.455 -14.477  -2.377  0.00  0.00    -0.331 N 
ATOM     10  H   UNL d   1      25.043 -13.688  -1.893  0.00  0.00     0.168 HD
BRANCH   9  11
ATOM     11  C   UNL d   1      25.697 -15.647  -1.560  0.00  0.00     0.045 A 
ATOM     12  C   UNL d   1      27.021 -15.966  -1.223  0.00  0.00     0.030 A 
ATOM     13  C   UNL d   1      27.350 -17.142  -0.557  0.00  0.00     0.003 A 
ATOM     14  C   UNL d   1      26.348 -18.012  -0.154  0.00  0.00     0.012 A 
ATOM     15  C   UNL d   1      25.004 -17.691  -0.369  0.00  0.00    -0.024 A 
ATOM     16  C   UNL d   1      24.018 -18.575   0.104  0.00  0.00     0.012 A 
ATOM     17  C   UNL d   1      24.649 -16.494  -1.071  0.00  0.00     0.001 A 
ATOM     18  C   UNL d   1      22.668 -18.308  -0.095  0.00  0.00     0.001 A 
ATOM     19  C   UNL d   1      22.295 -17.160  -0.781  0.00  0.00     0.001 A 
ATOM     20  C   UNL d   1      23.266 -16.272  -1.268  0.00  0.00     0.014 A 
ENDBRANCH   9  11
ENDBRANCH   7   9
ENDBRANCH   5   7
ENDBRANCH   3   5
BRANCH   1  21
ATOM     21  C   UNL d   1      26.540 -10.170  -4.042  0.00  0.00     0.098 C 
ATOM     22  C   UNL d   1      27.884  -9.702  -3.994  0.00  0.00     0.160 C 
ATOM     23  N   UNL d   1      28.028  -8.424  -4.373  0.00  0.00    -0.181 NA
ATOM     24  N   UNL d   1      26.802  -8.090  -4.807  0.00  0.00    -0.240 N 
ATOM     25  C   UNL d   1      26.495  -6.774  -5.360  0.00  0.00     0.221 C 
ATOM     26  C   UNL d   1      25.860  -9.066  -4.547  0.00  0.00     0.138 C 
ATOM     27  C   UNL d   1      25.061  -6.755  -5.936  0.00  0.00     0.061 C 
ATOM     28  C   UNL d   1      24.117  -7.430  -4.942  0.00  0.00     0.081 C 
ATOM     29  C   UNL d   1      22.673  -7.325  -5.405  0.00  0.00     0.032 C 
ATOM     30  N   UNL d   1      24.555  -8.819  -4.830  0.00  0.00    -0.370 N 
ATOM     31  H   UNL d   1      23.851  -9.542  -4.668  0.00  0.00     0.161 HD
BRANCH  25  32
ATOM     32  C   UNL d   1      27.486  -6.277  -6.405  0.00  0.00     0.409 C 
ATOM     33  F   UNL d   1      28.706  -5.948  -5.943  0.00  0.00    -0.169 F 
ATOM     34  F   UNL d   1      27.683  -7.192  -7.390  0.00  0.00    -0.169 F 
ATOM     35  F   UNL d   1      26.986  -5.174  -7.026  0.00  0.00    -0.169 F 
ENDBRANCH  25  32
ENDBRANCH   1  21
TORSDOF 6
ENDMDL
MODEL 4
REMARK VINA RESULT:    -7.507      2.781      4.486
REMARK INTER + INTRA:         -10.761
REMARK INTER:                  -9.297
REMARK INTRA:                  -1.464
REMARK CONF_INDEPENDENT:        1.790
REMARK UNBOUND:                -1.464
REMARK  6 active torsions:
REMARK  status: ('A' for Active; 'I' for Inactive)
REMARK    1  A    between atoms: C_4  and  C_5 
REMARK    2  A    between atoms: C_12  and  C_13 
REMARK       I    between atoms: C_13  and  N_15 
REMARK    3  A    between atoms: N_15  and  N_16 
REMARK    4  A    between atoms: N_16  and  C_17 
REMARK    5  A    between atoms: C_17  and  N_19 
REMARK    6  A    between atoms: N_19  and  C_20 
ROOT
ATOM      1  C   UNL d   1      28.298 -14.137   1.872  0.00  0.00     0.275 C 
ATOM      2  O   UNL d   1      27.612 -13.434   1.118  0.00  0.00    -0.266 OA
ATOM      3  N   UNL d   1      29.175 -15.083   1.355  0.00  0.00    -0.263 N 
ATOM      4  H   UNL d   1      29.762 -15.675   1.941  0.00  0.00     0.190 HD
ENDROOT
BRANCH   3   5
ATOM      5  N   UNL d   1      29.320 -15.307  -0.072  0.00  0.00    -0.273 N 
ATOM      6  H   UNL d   1      29.099 -14.507  -0.664  0.00  0.00     0.189 HD
BRANCH   5   7
ATOM      7  C   UNL d   1      29.800 -16.545  -0.527  0.00  0.00     0.191 C 
ATOM      8  S   UNL d   1      31.370 -16.643  -1.154  0.00  0.00    -0.039 SA
BRANCH   7   9
ATOM      9  N   UNL d   1      28.873 -17.608  -0.436  0.00  0.00    -0.331 N 
ATOM     10  H   UNL d   1      29.222 -18.513  -0.145  0.00  0.00     0.168 HD
BRANCH   9  11
ATOM     11  C   UNL d   1      27.435 -17.450  -0.377  0.00  0.00     0.045 A 
ATOM     12  C   UNL d   1      26.718 -18.193   0.572  0.00  0.00     0.030 A 
ATOM     13  C   UNL d   1      25.327 -18.201   0.606  0.00  0.00     0.003 A 
ATOM     14  C   UNL d   1      24.610 -17.410  -0.280  0.00  0.00     0.012 A 
ATOM     15  C   UNL d   1      25.277 -16.567  -1.176  0.00  0.00    -0.024 A 
ATOM     16  C   UNL d   1      24.511 -15.743  -2.019  0.00  0.00     0.012 A 
ATOM     17  C   UNL d   1      26.708 -16.563  -1.237  0.00  0.00     0.001 A 
ATOM     18  C   UNL d   1      25.125 -14.897  -2.935  0.00  0.00     0.001 A 
ATOM     19  C   UNL d   1      26.511 -14.878  -3.024  0.00  0.00     0.001 A 
ATOM     20  C   UNL d   1      27.289 -15.702  -2.196  0.00  0.00     0.014 A 
ENDBRANCH   9  11
ENDBRANCH   7   9
ENDBRANCH   5   7
ENDBRANCH   3   5
BRANCH   1  21
ATOM     21  C   UNL d   1      28.218 -14.024   3.337  0.00  0.00     0.098 C 
ATOM     22  C   UNL d   1      28.155 -15.023   4.350  0.00  0.00     0.160 C 
ATOM     23  N   UNL d   1      28.012 -14.533   5.588  0.00  0.00    -0.181 NA
ATOM     24  N   UNL d   1      28.124 -13.207   5.411  0.00  0.00    -0.240 N 
ATOM     25  C   UNL d   1      28.068 -12.258   6.519  0.00  0.00     0.221 C 
ATOM     26  C   UNL d   1      28.158 -12.848   4.078  0.00  0.00     0.138 C 
ATOM     27  C   UNL d   1      28.409 -10.834   6.024  0.00  0.00     0.061 C 
ATOM     28  C   UNL d   1      27.655 -10.567   4.723  0.00  0.00     0.081 C 
ATOM     29  C   UNL d   1      27.857  -9.133   4.260  0.00  0.00     0.032 C 
ATOM     30  N   UNL d   1      28.156 -11.531   3.746  0.00  0.00    -0.370 N 
ATOM     31  H   UNL d   1      28.208 -11.251   2.765  0.00  0.00     0.161 HD
BRANCH  25  32
ATOM     32  C   UNL d   1      28.945 -12.621   7.712  0.00  0.00     0.409 C 
ATOM     33  F   UNL d   1      29.977 -13.443   7.448  0.00  0.00    -0.169 F 
ATOM     34  F   UNL d   1      29.475 -11.519   8.303  0.00  0.00    -0.169 F 
ATOM     35  F   UNL d   1      28.192 -13.225   8.670  0.00  0.00    -0.169 F 
ENDBRANCH  25  32
ENDBRANCH   1  21
TORSDOF 6
ENDMDL
MODEL 5
REMARK VINA RESULT:    -7.489      9.714     12.610
REMARK INTER + INTRA:         -11.069
REMARK INTER:                  -9.279
REMARK INTRA:                  -1.790
REMARK CONF_INDEPENDENT:        1.790
REMARK UNBOUND:                -1.790
REMARK  6 active torsions:
REMARK  status: ('A' for Active; 'I' for Inactive)
REMARK    1  A    between atoms: C_4  and  C_5 
REMARK    2  A    between atoms: C_12  and  C_13 
REMARK       I    between atoms: C_13  and  N_15 
REMARK    3  A    between atoms: N_15  and  N_16 
REMARK    4  A    between atoms: N_16  and  C_17 
REMARK    5  A    between atoms: C_17  and  N_19 
REMARK    6  A    between atoms: N_19  and  C_20 
ROOT
ATOM      1  C   UNL d   1      27.810 -14.488  -5.930  0.00  0.00     0.275 C 
ATOM      2  O   UNL d   1      27.365 -15.575  -5.535  0.00  0.00    -0.266 OA
ATOM      3  N   UNL d   1      27.120 -13.309  -5.683  0.00  0.00    -0.263 N 
ATOM      4  H   UNL d   1      27.456 -12.395  -5.984  0.00  0.00     0.190 HD
ENDROOT
BRANCH   3   5
ATOM      5  N   UNL d   1      25.851 -13.287  -4.977  0.00  0.00    -0.273 N 
ATOM      6  H   UNL d   1      25.049 -12.985  -5.529  0.00  0.00     0.189 HD
BRANCH   5   7
ATOM      7  C   UNL d   1      25.800 -13.731  -3.646  0.00  0.00     0.191 C 
ATOM      8  S   UNL d   1      25.905 -12.597  -2.393  0.00  0.00    -0.039 SA
BRANCH   7   9
ATOM      9  N   UNL d   1      25.692 -15.131  -3.493  0.00  0.00    -0.331 N 
ATOM     10  H   UNL d   1      25.521 -15.684  -4.324  0.00  0.00     0.168 HD
BRANCH   9  11
ATOM     11  C   UNL d   1      26.144 -15.875  -2.336  0.00  0.00     0.045 A 
ATOM     12  C   UNL d   1      27.510 -15.856  -2.020  0.00  0.00     0.030 A 
ATOM     13  C   UNL d   1      28.045 -16.649  -1.009  0.00  0.00     0.003 A 
ATOM     14  C   UNL d   1      27.209 -17.444  -0.239  0.00  0.00     0.012 A 
ATOM     15  C   UNL d   1      25.825 -17.419  -0.441  0.00  0.00    -0.024 A 
ATOM     16  C   UNL d   1      25.009 -18.200   0.397  0.00  0.00     0.012 A 
ATOM     17  C   UNL d   1      25.261 -16.625  -1.491  0.00  0.00     0.001 A 
ATOM     18  C   UNL d   1      23.630 -18.219   0.230  0.00  0.00     0.001 A 
ATOM     19  C   UNL d   1      23.055 -17.467  -0.786  0.00  0.00     0.001 A 
ATOM     20  C   UNL d   1      23.856 -16.690  -1.638  0.00  0.00     0.014 A 
ENDBRANCH   9  11
ENDBRANCH   7   9
ENDBRANCH   5   7
ENDBRANCH   3   5
BRANCH   1  21
ATOM     21  C   UNL d   1      29.072 -14.385  -6.681  0.00  0.00     0.098 C 
ATOM     22  C   UNL d   1      29.654 -13.292  -7.384  0.00  0.00     0.160 C 
ATOM     23  N   UNL d   1      30.792 -13.599  -8.020  0.00  0.00    -0.181 NA
ATOM     24  N   UNL d   1      31.040 -14.857  -7.621  0.00  0.00    -0.240 N 
ATOM     25  C   UNL d   1      32.225 -15.598  -8.043  0.00  0.00     0.221 C 
ATOM     26  C   UNL d   1      29.998 -15.401  -6.895  0.00  0.00     0.138 C 
ATOM     27  C   UNL d   1      32.322 -16.937  -7.279  0.00  0.00     0.061 C 
ATOM     28  C   UNL d   1      30.945 -17.601  -7.263  0.00  0.00     0.081 C 
ATOM     29  C   UNL d   1      31.013 -18.981  -6.632  0.00  0.00     0.032 C 
ATOM     30  N   UNL d   1      30.061 -16.705  -6.521  0.00  0.00    -0.370 N 
ATOM     31  H   UNL d   1      29.310 -17.113  -5.961  0.00  0.00     0.161 HD
BRANCH  25  32
ATOM     32  C   UNL d   1      33.534 -14.828  -7.917  0.00  0.00     0.409 C 
ATOM     33  F   UNL d   1      34.050 -14.362  -9.069  0.00  0.00    -0.169 F 
ATOM     34  F   UNL d   1      33.413 -13.757  -7.091  0.00  0.00    -0.169 F 
ATOM     35  F   UNL d   1      34.482 -15.622  -7.350  0.00  0.00    -0.169 F 
ENDBRANCH  25  32
ENDBRANCH   1  21
TORSDOF 6
ENDMDL
MODEL 6
REMARK VINA RESULT:    -7.391      8.905     11.706
REMARK INTER + INTRA:         -10.771
REMARK INTER:                  -9.181
REMARK INTRA:                  -1.590
REMARK CONF_INDEPENDENT:        1.790
REMARK UNBOUND:                -1.590
REMARK  6 active torsions:
REMARK  status: ('A' for Active; 'I' for Inactive)
REMARK    1  A    between atoms: C_4  and  C_5 
REMARK    2  A    between atoms: C_12  and  C_13 
REMARK       I    between atoms: C_13  and  N_15 
REMARK    3  A    between atoms: N_15  and  N_16 
REMARK    4  A    between atoms: N_16  and  C_17 
REMARK    5  A    between atoms: C_17  and  N_19 
REMARK    6  A    between atoms: N_19  and  C_20 
ROOT
ATOM      1  C   UNL d   1      28.770 -15.950  -4.785  0.00  0.00     0.275 C 
ATOM      2  O   UNL d   1      28.643 -15.565  -5.955  0.00  0.00    -0.266 OA
ATOM      3  N   UNL d   1      28.013 -15.385  -3.766  0.00  0.00    -0.263 N 
ATOM      4  H   UNL d   1      28.083 -15.680  -2.794  0.00  0.00     0.190 HD
ENDROOT
BRANCH   3   5
ATOM      5  N   UNL d   1      27.059 -14.319  -4.011  0.00  0.00    -0.273 N 
ATOM      6  H   UNL d   1      27.260 -13.729  -4.819  0.00  0.00     0.189 HD
BRANCH   5   7
ATOM      7  C   UNL d   1      25.925 -14.210  -3.190  0.00  0.00     0.191 C 
ATOM      8  S   UNL d   1      24.424 -13.870  -3.895  0.00  0.00    -0.039 SA
BRANCH   7   9
ATOM      9  N   UNL d   1      26.178 -14.373  -1.809  0.00  0.00    -0.331 N 
ATOM     10  H   UNL d   1      26.072 -13.562  -1.213  0.00  0.00     0.168 HD
BRANCH   9  11
ATOM     11  C   UNL d   1      26.231 -15.646  -1.123  0.00  0.00     0.045 A 
ATOM     12  C   UNL d   1      27.478 -16.123  -0.692  0.00  0.00     0.030 A 
ATOM     13  C   UNL d   1      27.633 -17.394  -0.146  0.00  0.00     0.003 A 
ATOM     14  C   UNL d   1      26.525 -18.206   0.041  0.00  0.00     0.012 A 
ATOM     15  C   UNL d   1      25.244 -17.739  -0.272  0.00  0.00    -0.024 A 
ATOM     16  C   UNL d   1      24.143 -18.575  -0.017  0.00  0.00     0.012 A 
ATOM     17  C   UNL d   1      25.069 -16.442  -0.854  0.00  0.00     0.001 A 
ATOM     18  C   UNL d   1      22.851 -18.162  -0.321  0.00  0.00     0.001 A 
ATOM     19  C   UNL d   1      22.651 -16.913  -0.895  0.00  0.00     0.001 A 
ATOM     20  C   UNL d   1      23.740 -16.071  -1.165  0.00  0.00     0.014 A 
ENDBRANCH   9  11
ENDBRANCH   7   9
ENDBRANCH   5   7
ENDBRANCH   3   5
BRANCH   1  21
ATOM     21  C   UNL d   1      29.725 -17.005  -4.407  0.00  0.00     0.098 C 
ATOM     22  C   UNL d   1      30.226 -17.400  -3.134  0.00  0.00     0.160 C 
ATOM     23  N   UNL d   1      31.153 -18.366  -3.191  0.00  0.00    -0.181 NA
ATOM     24  N   UNL d   1      31.163 -18.710  -4.488  0.00  0.00    -0.240 N 
ATOM     25  C   UNL d   1      32.014 -19.773  -5.014  0.00  0.00     0.221 C 
ATOM     26  C   UNL d   1      30.396 -17.867  -5.269  0.00  0.00     0.138 C 
ATOM     27  C   UNL d   1      31.669 -20.055  -6.493  0.00  0.00     0.061 C 
ATOM     28  C   UNL d   1      31.527 -18.725  -7.233  0.00  0.00     0.081 C 
ATOM     29  C   UNL d   1      31.312 -18.949  -8.720  0.00  0.00     0.032 C 
ATOM     30  N   UNL d   1      30.401 -18.026  -6.618  0.00  0.00    -0.370 N 
ATOM     31  H   UNL d   1      29.817 -17.427  -7.205  0.00  0.00     0.161 HD
BRANCH  25  32
ATOM     32  C   UNL d   1      31.979 -21.069  -4.213  0.00  0.00     0.409 C 
ATOM     33  F   UNL d   1      32.056 -20.931  -2.877  0.00  0.00    -0.169 F 
ATOM     34  F   UNL d   1      30.851 -21.785  -4.459  0.00  0.00    -0.169 F 
ATOM     35  F   UNL d   1      33.012 -21.871  -4.589  0.00  0.00    -0.169 F 
ENDBRANCH  25  32
ENDBRANCH   1  21
TORSDOF 6
ENDMDL
MODEL 7
REMARK VINA RESULT:    -7.288      5.369      9.418
REMARK INTER + INTRA:         -11.278
REMARK INTER:                  -9.078
REMARK INTRA:                  -2.200
REMARK CONF_INDEPENDENT:        1.790
REMARK UNBOUND:                -2.200
REMARK  6 active torsions:
REMARK  status: ('A' for Active; 'I' for Inactive)
REMARK    1  A    between atoms: C_4  and  C_5 
REMARK    2  A    between atoms: C_12  and  C_13 
REMARK       I    between atoms: C_13  and  N_15 
REMARK    3  A    between atoms: N_15  and  N_16 
REMARK    4  A    between atoms: N_16  and  C_17 
REMARK    5  A    between atoms: C_17  and  N_19 
REMARK    6  A    between atoms: N_19  and  C_20 
ROOT
ATOM      1  C   UNL d   1      29.197 -15.206   0.018  0.00  0.00     0.275 C 
ATOM      2  O   UNL d   1      29.353 -14.209  -0.701  0.00  0.00    -0.266 OA
ATOM      3  N   UNL d   1      30.124 -15.520   1.004  0.00  0.00    -0.263 N 
ATOM      4  H   UNL d   1      30.027 -16.325   1.621  0.00  0.00     0.190 HD
ENDROOT
BRANCH   3   5
ATOM      5  N   UNL d   1      31.314 -14.720   1.230  0.00  0.00    -0.273 N 
ATOM      6  H   UNL d   1      31.518 -14.026   0.511  0.00  0.00     0.189 HD
BRANCH   5   7
ATOM      7  C   UNL d   1      32.048 -14.901   2.414  0.00  0.00     0.191 C 
ATOM      8  S   UNL d   1      33.417 -15.897   2.393  0.00  0.00    -0.039 SA
BRANCH   7   9
ATOM      9  N   UNL d   1      31.524 -14.230   3.542  0.00  0.00    -0.331 N 
ATOM     10  H   UNL d   1      32.102 -13.523   3.979  0.00  0.00     0.168 HD
BRANCH   9  11
ATOM     11  C   UNL d   1      30.125 -14.206   3.914  0.00  0.00     0.045 A 
ATOM     12  C   UNL d   1      29.726 -14.909   5.060  0.00  0.00     0.030 A 
ATOM     13  C   UNL d   1      28.386 -15.047   5.412  0.00  0.00     0.003 A 
ATOM     14  C   UNL d   1      27.405 -14.430   4.651  0.00  0.00     0.012 A 
ATOM     15  C   UNL d   1      27.755 -13.627   3.560  0.00  0.00    -0.024 A 
ATOM     16  C   UNL d   1      26.732 -12.976   2.849  0.00  0.00     0.012 A 
ATOM     17  C   UNL d   1      29.128 -13.491   3.173  0.00  0.00     0.001 A 
ATOM     18  C   UNL d   1      27.027 -12.178   1.750  0.00  0.00     0.001 A 
ATOM     19  C   UNL d   1      28.348 -12.035   1.345  0.00  0.00     0.001 A 
ATOM     20  C   UNL d   1      29.380 -12.687   2.038  0.00  0.00     0.014 A 
ENDBRANCH   9  11
ENDBRANCH   7   9
ENDBRANCH   5   7
ENDBRANCH   3   5
BRANCH   1  21
ATOM     21  C   UNL d   1      28.045 -16.109  -0.135  0.00  0.00     0.098 C 
ATOM     22  C   UNL d   1      27.780 -17.390   0.430  0.00  0.00     0.160 C 
ATOM     23  N   UNL d   1      26.644 -17.950  -0.005  0.00  0.00    -0.181 NA
ATOM     24  N   UNL d   1      26.084 -16.981  -0.746  0.00  0.00    -0.240 N 
ATOM     25  C   UNL d   1      24.788 -17.139  -1.399  0.00  0.00     0.221 C 
ATOM     26  C   UNL d   1      26.922 -15.898  -0.928  0.00  0.00     0.138 C 
ATOM     27  C   UNL d   1      24.332 -15.799  -2.019  0.00  0.00     0.061 C 
ATOM     28  C   UNL d   1      25.511 -15.167  -2.758  0.00  0.00     0.081 C 
ATOM     29  C   UNL d   1      25.082 -13.908  -3.493  0.00  0.00     0.032 C 
ATOM     30  N   UNL d   1      26.532 -14.889  -1.750  0.00  0.00    -0.370 N 
ATOM     31  H   UNL d   1      27.130 -14.070  -1.872  0.00  0.00     0.161 HD
BRANCH  25  32
ATOM     32  C   UNL d   1      23.690 -17.700  -0.504  0.00  0.00     0.409 C 
ATOM     33  F   UNL d   1      24.059 -17.997   0.755  0.00  0.00    -0.169 F 
ATOM     34  F   UNL d   1      22.635 -16.850  -0.403  0.00  0.00    -0.169 F 
ATOM     35  F   UNL d   1      23.189 -18.842  -1.050  0.00  0.00    -0.169 F 
ENDBRANCH  25  32
ENDBRANCH   1  21
TORSDOF 6
ENDMDL
MODEL 8
REMARK VINA RESULT:    -7.142      8.548     10.760
REMARK INTER + INTRA:         -10.890
REMARK INTER:                  -8.932
REMARK INTRA:                  -1.959
REMARK CONF_INDEPENDENT:        1.790
REMARK UNBOUND:                -1.959
REMARK  6 active torsions:
REMARK  status: ('A' for Active; 'I' for Inactive)
REMARK    1  A    between atoms: C_4  and  C_5 
REMARK    2  A    between atoms: C_12  and  C_13 
REMARK       I    between atoms: C_13  and  N_15 
REMARK    3  A    between atoms: N_15  and  N_16 
REMARK    4  A    between atoms: N_16  and  C_17 
REMARK    5  A    between atoms: C_17  and  N_19 
REMARK    6  A    between atoms: N_19  and  C_20 
ROOT
ATOM      1  C   UNL d   1      27.795 -14.778  -5.365  0.00  0.00     0.275 C 
ATOM      2  O   UNL d   1      27.648 -15.200  -6.520  0.00  0.00    -0.266 OA
ATOM      3  N   UNL d   1      28.971 -14.143  -4.987  0.00  0.00    -0.263 N 
ATOM      4  H   UNL d   1      29.127 -13.775  -4.049  0.00  0.00     0.190 HD
ENDROOT
BRANCH   3   5
ATOM      5  N   UNL d   1      30.080 -13.958  -5.905  0.00  0.00    -0.273 N 
ATOM      6  H   UNL d   1      30.307 -12.989  -6.127  0.00  0.00     0.189 HD
BRANCH   5   7
ATOM      7  C   UNL d   1      30.787 -15.081  -6.362  0.00  0.00     0.191 C 
ATOM      8  S   UNL d   1      32.406 -14.906  -6.828  0.00  0.00    -0.039 SA
BRANCH   7   9
ATOM      9  N   UNL d   1      30.032 -16.275  -6.412  0.00  0.00    -0.331 N 
ATOM     10  H   UNL d   1      29.351 -16.370  -7.155  0.00  0.00     0.168 HD
BRANCH   9  11
ATOM     11  C   UNL d   1      30.377 -17.502  -5.726  0.00  0.00     0.045 A 
ATOM     12  C   UNL d   1      30.336 -17.520  -4.325  0.00  0.00     0.030 A 
ATOM     13  C   UNL d   1      30.780 -18.613  -3.587  0.00  0.00     0.003 A 
ATOM     14  C   UNL d   1      31.227 -19.752  -4.240  0.00  0.00     0.012 A 
ATOM     15  C   UNL d   1      31.188 -19.829  -5.636  0.00  0.00    -0.024 A 
ATOM     16  C   UNL d   1      31.599 -21.022  -6.256  0.00  0.00     0.012 A 
ATOM     17  C   UNL d   1      30.753 -18.705  -6.411  0.00  0.00     0.001 A 
ATOM     18  C   UNL d   1      31.591 -21.144  -7.640  0.00  0.00     0.001 A 
ATOM     19  C   UNL d   1      31.184 -20.067  -8.418  0.00  0.00     0.001 A 
ATOM     20  C   UNL d   1      30.780 -18.866  -7.815  0.00  0.00     0.014 A 
ENDBRANCH   9  11
ENDBRANCH   7   9
ENDBRANCH   5   7
ENDBRANCH   3   5
BRANCH   1  21
ATOM     21  C   UNL d   1      26.753 -14.933  -4.337  0.00  0.00     0.098 C 
ATOM     22  C   UNL d   1      25.406 -14.473  -4.295  0.00  0.00     0.160 C 
ATOM     23  N   UNL d   1      24.774 -14.745  -3.145  0.00  0.00    -0.181 NA
ATOM     24  N   UNL d   1      25.656 -15.509  -2.481  0.00  0.00    -0.240 N 
ATOM     25  C   UNL d   1      25.371 -16.079  -1.167  0.00  0.00     0.221 C 
ATOM     26  C   UNL d   1      26.884 -15.575  -3.110  0.00  0.00     0.138 C 
ATOM     27  C   UNL d   1      26.496 -17.052  -0.749  0.00  0.00     0.061 C 
ATOM     28  C   UNL d   1      27.848 -16.407  -1.048  0.00  0.00     0.081 C 
ATOM     29  C   UNL d   1      28.989 -17.272  -0.538  0.00  0.00     0.032 C 
ATOM     30  N   UNL d   1      27.909 -16.222  -2.496  0.00  0.00    -0.370 N 
ATOM     31  H   UNL d   1      28.815 -16.301  -2.962  0.00  0.00     0.161 HD
BRANCH  25  32
ATOM     32  C   UNL d   1      24.016 -16.766  -1.053  0.00  0.00     0.409 C 
ATOM     33  F   UNL d   1      22.943 -15.957  -1.127  0.00  0.00    -0.169 F 
ATOM     34  F   UNL d   1      23.847 -17.713  -2.013  0.00  0.00    -0.169 F 
ATOM     35  F   UNL d   1      23.933 -17.427   0.133  0.00  0.00    -0.169 F 
ENDBRANCH  25  32
ENDBRANCH   1  21
TORSDOF 6
ENDMDL
MODEL 9
REMARK VINA RESULT:    -6.907      8.519     10.639
REMARK INTER + INTRA:         -10.834
REMARK INTER:                  -8.697
REMARK INTRA:                  -2.137
REMARK CONF_INDEPENDENT:        1.790
REMARK UNBOUND:                -2.137
REMARK  6 active torsions:
REMARK  status: ('A' for Active; 'I' for Inactive)
REMARK    1  A    between atoms: C_4  and  C_5 
REMARK    2  A    between atoms: C_12  and  C_13 
REMARK       I    between atoms: C_13  and  N_15 
REMARK    3  A    between atoms: N_15  and  N_16 
REMARK    4  A    between atoms: N_16  and  C_17 
REMARK    5  A    between atoms: C_17  and  N_19 
REMARK    6  A    between atoms: N_19  and  C_20 
ROOT
ATOM      1  C   UNL d   1      27.923 -14.787  -5.410  0.00  0.00     0.275 C 
ATOM      2  O   UNL d   1      27.791 -15.200  -6.570  0.00  0.00    -0.266 OA
ATOM      3  N   UNL d   1      29.090 -14.145  -5.016  0.00  0.00    -0.263 N 
ATOM      4  H   UNL d   1      29.235 -13.784  -4.074  0.00  0.00     0.190 HD
ENDROOT
BRANCH   3   5
ATOM      5  N   UNL d   1      30.206 -13.941  -5.922  0.00  0.00    -0.273 N 
ATOM      6  H   UNL d   1      30.383 -12.973  -6.187  0.00  0.00     0.189 HD
BRANCH   5   7
ATOM      7  C   UNL d   1      30.984 -15.044  -6.312  0.00  0.00     0.191 C 
ATOM      8  S   UNL d   1      32.667 -14.968  -6.143  0.00  0.00    -0.039 SA
BRANCH   7   9
ATOM      9  N   UNL d   1      30.249 -16.124  -6.849  0.00  0.00    -0.331 N 
ATOM     10  H   UNL d   1      29.577 -15.920  -7.578  0.00  0.00     0.168 HD
BRANCH   9  11
ATOM     11  C   UNL d   1      30.609 -17.520  -6.710  0.00  0.00     0.045 A 
ATOM     12  C   UNL d   1      30.780 -18.286  -7.873  0.00  0.00     0.030 A 
ATOM     13  C   UNL d   1      30.994 -19.661  -7.826  0.00  0.00     0.003 A 
ATOM     14  C   UNL d   1      31.102 -20.302  -6.601  0.00  0.00     0.012 A 
ATOM     15  C   UNL d   1      31.046 -19.569  -5.411  0.00  0.00    -0.024 A 
ATOM     16  C   UNL d   1      31.214 -20.251  -4.193  0.00  0.00     0.012 A 
ATOM     17  C   UNL d   1      30.806 -18.157  -5.441  0.00  0.00     0.001 A 
ATOM     18  C   UNL d   1      31.155 -19.571  -2.982  0.00  0.00     0.001 A 
ATOM     19  C   UNL d   1      30.914 -18.203  -2.980  0.00  0.00     0.001 A 
ATOM     20  C   UNL d   1      30.734 -17.509  -4.187  0.00  0.00     0.014 A 
ENDBRANCH   9  11
ENDBRANCH   7   9
ENDBRANCH   5   7
ENDBRANCH   3   5
BRANCH   1  21
ATOM     21  C   UNL d   1      26.874 -14.961  -4.393  0.00  0.00     0.098 C 
ATOM     22  C   UNL d   1      25.509 -14.555  -4.380  0.00  0.00     0.160 C 
ATOM     23  N   UNL d   1      24.872 -14.827  -3.232  0.00  0.00    -0.181 NA
ATOM     24  N   UNL d   1      25.774 -15.540  -2.539  0.00  0.00    -0.240 N 
ATOM     25  C   UNL d   1      25.493 -16.091  -1.217  0.00  0.00     0.221 C 
ATOM     26  C   UNL d   1      27.013 -15.570  -3.150  0.00  0.00     0.138 C 
ATOM     27  C   UNL d   1      26.650 -17.008  -0.761  0.00  0.00     0.061 C 
ATOM     28  C   UNL d   1      27.980 -16.315  -1.056  0.00  0.00     0.081 C 
ATOM     29  C   UNL d   1      29.147 -17.121  -0.512  0.00  0.00     0.032 C 
ATOM     30  N   UNL d   1      28.054 -16.160  -2.507  0.00  0.00    -0.370 N 
ATOM     31  H   UNL d   1      28.969 -16.214  -2.959  0.00  0.00     0.161 HD
BRANCH  25  32
ATOM     32  C   UNL d   1      24.165 -16.829  -1.105  0.00  0.00     0.409 C 
ATOM     33  F   UNL d   1      23.988 -17.543   0.021  0.00  0.00    -0.169 F 
ATOM     34  F   UNL d   1      23.107 -15.983  -1.193  0.00  0.00    -0.169 F 
ATOM     35  F   UNL d   1      24.030 -17.694  -2.148  0.00  0.00    -0.169 F 
ENDBRANCH  25  32
ENDBRANCH   1  21
TORSDOF 6
ENDMDL
