MODEL 1
REMARK VINA RESULT:    -8.384      0.000      0.000
REMARK INTER + INTRA:         -11.415
REMARK INTER:                  -9.876
REMARK INTRA:                  -1.539
REMARK CONF_INDEPENDENT:        1.492
REMARK UNBOUND:                -1.539
REMARK  5 active torsions:
REMARK  status: ('A' for Active; 'I' for Inactive)
REMARK    1  A    between atoms: C_3  and  C_4 
REMARK       I    between atoms: C_4  and  N_6 
REMARK    2  A    between atoms: N_6  and  N_7 
REMARK       I    between atoms: N_7  and  C_8 
REMARK       I    between atoms: C_8  and  N_10 
REMARK    3  A    between atoms: N_10  and  C_11 
REMARK    4  A    between atoms: C_11  and  C_12 
REMARK    5  A    between atoms: C_16  and  N_17 
ROOT
ATOM      1  N   UNL d   1      25.512 -11.431  -3.904  0.00  0.00    -0.249 N 
ATOM      2  C   UNL d   1      26.153 -10.323  -3.343  0.00  0.00     0.335 C 
ATOM      3  O   UNL d   1      26.729 -10.368  -2.258  0.00  0.00    -0.246 OA
ATOM      4  N   UNL d   1      26.089  -9.201  -4.119  0.00  0.00    -0.338 N 
ATOM      5  H   UNL d   1      25.034 -11.451  -4.799  0.00  0.00     0.192 HD
ATOM      6  H   UNL d   1      25.497  -9.280  -4.922  0.00  0.00     0.164 HD
ENDROOT
BRANCH   1   7
ATOM      7  N   UNL d   1      25.571 -12.640  -3.170  0.00  0.00    -0.260 N 
ATOM      8  C   UNL d   1      25.007 -13.856  -3.565  0.00  0.00     0.294 C 
ATOM      9  O   UNL d   1      24.405 -13.926  -4.645  0.00  0.00    -0.264 OA
ATOM     10  H   UNL d   1      26.097 -12.519  -2.324  0.00  0.00     0.190 HD
BRANCH   8  11
ATOM     11  C   UNL d   1      25.173 -15.009  -2.640  0.00  0.00     0.152 A 
ATOM     12  C   UNL d   1      26.283 -15.682  -2.120  0.00  0.00    -0.009 A 
ATOM     13  C   UNL d   1      27.734 -15.457  -2.310  0.00  0.00     0.052 C 
ATOM     14  C   UNL d   1      25.793 -16.723  -1.261  0.00  0.00     0.007 A 
ATOM     15  C   UNL d   1      26.411 -17.715  -0.466  0.00  0.00     0.015 A 
ATOM     16  C   UNL d   1      24.413 -16.633  -1.269  0.00  0.00     0.087 A 
ATOM     17  C   UNL d   1      25.622 -18.574   0.307  0.00  0.00     0.001 A 
ATOM     18  C   UNL d   1      24.234 -18.455   0.289  0.00  0.00     0.003 A 
ATOM     19  C   UNL d   1      23.595 -17.483  -0.507  0.00  0.00     0.038 A 
ATOM     20  O   UNL d   1      24.030 -15.611  -2.106  0.00  0.00    -0.304 OA
ENDBRANCH   8  11
ENDBRANCH   1   7
BRANCH   4  21
ATOM     21  C   UNL d   1      26.669  -7.900  -3.750  0.00  0.00     0.163 C 
BRANCH  21  22
ATOM     22  C   UNL d   1      25.870  -7.120  -2.711  0.00  0.00    -0.038 A 
ATOM     23  C   UNL d   1      25.262  -5.888  -3.027  0.00  0.00     0.009 A 
ATOM     24  C   UNL d   1      24.654  -5.101  -2.031  0.00  0.00     0.003 A 
ATOM     25  C   UNL d   1      24.577  -5.557  -0.714  0.00  0.00     0.036 A 
ATOM     26  C   UNL d   1      25.137  -6.794  -0.401  0.00  0.00     0.103 A 
ATOM     27  C   UNL d   1      25.755  -7.569  -1.389  0.00  0.00     0.045 A 
BRANCH  26  28
ATOM     28  N   UNL d   1      25.155  -7.289   0.980  0.00  0.00    -0.116 N 
ATOM     29  O   UNL d   1      24.779  -8.450   1.184  0.00  0.00    -0.532 OA
ATOM     30  O   UNL d   1      25.529  -6.504   1.866  0.00  0.00    -0.532 OA
ENDBRANCH  26  28
ENDBRANCH  21  22
ENDBRANCH   4  21
TORSDOF 5
ENDMDL
MODEL 2
REMARK VINA RESULT:    -8.133      5.130      9.944
REMARK INTER + INTRA:         -11.285
REMARK INTER:                  -9.625
REMARK INTRA:                  -1.660
REMARK CONF_INDEPENDENT:        1.492
REMARK UNBOUND:                -1.660
REMARK  5 active torsions:
REMARK  status: ('A' for Active; 'I' for Inactive)
REMARK    1  A    between atoms: C_3  and  C_4 
REMARK       I    between atoms: C_4  and  N_6 
REMARK    2  A    between atoms: N_6  and  N_7 
REMARK       I    between atoms: N_7  and  C_8 
REMARK       I    between atoms: C_8  and  N_10 
REMARK    3  A    between atoms: N_10  and  C_11 
REMARK    4  A    between atoms: C_11  and  C_12 
REMARK    5  A    between atoms: C_16  and  N_17 
ROOT
ATOM      1  N   UNL d   1      24.331 -15.694  -2.227  0.00  0.00    -0.249 N 
ATOM      2  C   UNL d   1      24.375 -16.871  -1.476  0.00  0.00     0.335 C 
ATOM      3  O   UNL d   1      25.304 -17.673  -1.551  0.00  0.00    -0.246 OA
ATOM      4  N   UNL d   1      23.301 -17.035  -0.648  0.00  0.00    -0.338 N 
ATOM      5  H   UNL d   1      23.596 -14.995  -2.195  0.00  0.00     0.192 HD
ATOM      6  H   UNL d   1      22.571 -16.361  -0.772  0.00  0.00     0.164 HD
ENDROOT
BRANCH   1   7
ATOM      7  N   UNL d   1      25.432 -15.441  -3.081  0.00  0.00    -0.260 N 
ATOM      8  C   UNL d   1      25.455 -14.506  -4.119  0.00  0.00     0.294 C 
ATOM      9  O   UNL d   1      24.451 -13.815  -4.338  0.00  0.00    -0.264 OA
ATOM     10  H   UNL d   1      26.218 -16.012  -2.828  0.00  0.00     0.190 HD
BRANCH   8  11
ATOM     11  C   UNL d   1      26.712 -14.404  -4.907  0.00  0.00     0.152 A 
ATOM     12  C   UNL d   1      27.336 -13.365  -5.606  0.00  0.00    -0.009 A 
ATOM     13  C   UNL d   1      26.946 -11.949  -5.795  0.00  0.00     0.052 C 
ATOM     14  C   UNL d   1      28.550 -13.888  -6.164  0.00  0.00     0.007 A 
ATOM     15  C   UNL d   1      29.588 -13.340  -6.952  0.00  0.00     0.015 A 
ATOM     16  C   UNL d   1      28.636 -15.211  -5.769  0.00  0.00     0.087 A 
ATOM     17  C   UNL d   1      30.685 -14.134  -7.303  0.00  0.00     0.001 A 
ATOM     18  C   UNL d   1      30.752 -15.461  -6.882  0.00  0.00     0.003 A 
ATOM     19  C   UNL d   1      29.722 -16.034  -6.108  0.00  0.00     0.038 A 
ATOM     20  O   UNL d   1      27.527 -15.533  -5.020  0.00  0.00    -0.304 OA
ENDBRANCH   8  11
ENDBRANCH   1   7
BRANCH   4  21
ATOM     21  C   UNL d   1      23.099 -18.195   0.234  0.00  0.00     0.163 C 
BRANCH  21  22
ATOM     22  C   UNL d   1      21.737 -18.867   0.097  0.00  0.00    -0.038 A 
ATOM     23  C   UNL d   1      21.111 -19.008  -1.159  0.00  0.00     0.009 A 
ATOM     24  C   UNL d   1      19.794 -19.494  -1.265  0.00  0.00     0.003 A 
ATOM     25  C   UNL d   1      19.099 -19.915  -0.129  0.00  0.00     0.036 A 
ATOM     26  C   UNL d   1      19.725 -19.820   1.112  0.00  0.00     0.103 A 
ATOM     27  C   UNL d   1      21.029 -19.322   1.217  0.00  0.00     0.045 A 
BRANCH  26  28
ATOM     28  N   UNL d   1      19.016 -20.173   2.346  0.00  0.00    -0.116 N 
ATOM     29  O   UNL d   1      17.801 -19.946   2.400  0.00  0.00    -0.532 OA
ATOM     30  O   UNL d   1      19.683 -20.662   3.271  0.00  0.00    -0.532 OA
ENDBRANCH  26  28
ENDBRANCH  21  22
ENDBRANCH   4  21
TORSDOF 5
ENDMDL
MODEL 3
REMARK VINA RESULT:    -8.008      1.009      1.589
REMARK INTER + INTRA:         -10.834
REMARK INTER:                  -9.499
REMARK INTRA:                  -1.335
REMARK CONF_INDEPENDENT:        1.492
REMARK UNBOUND:                -1.335
REMARK  5 active torsions:
REMARK  status: ('A' for Active; 'I' for Inactive)
REMARK    1  A    between atoms: C_3  and  C_4 
REMARK       I    between atoms: C_4  and  N_6 
REMARK    2  A    between atoms: N_6  and  N_7 
REMARK       I    between atoms: N_7  and  C_8 
REMARK       I    between atoms: C_8  and  N_10 
REMARK    3  A    between atoms: N_10  and  C_11 
REMARK    4  A    between atoms: C_11  and  C_12 
REMARK    5  A    between atoms: C_16  and  N_17 
ROOT
ATOM      1  N   UNL d   1      25.297 -11.457  -3.888  0.00  0.00    -0.249 N 
ATOM      2  C   UNL d   1      25.828 -10.282  -3.349  0.00  0.00     0.335 C 
ATOM      3  O   UNL d   1      26.429 -10.255  -2.277  0.00  0.00    -0.246 OA
ATOM      4  N   UNL d   1      25.628  -9.180  -4.130  0.00  0.00    -0.338 N 
ATOM      5  H   UNL d   1      24.804 -11.537  -4.772  0.00  0.00     0.192 HD
ATOM      6  H   UNL d   1      25.029  -9.330  -4.920  0.00  0.00     0.164 HD
ENDROOT
BRANCH   1   7
ATOM      7  N   UNL d   1      25.500 -12.646  -3.148  0.00  0.00    -0.260 N 
ATOM      8  C   UNL d   1      25.117 -13.928  -3.551  0.00  0.00     0.294 C 
ATOM      9  O   UNL d   1      24.556 -14.080  -4.645  0.00  0.00    -0.264 OA
ATOM     10  H   UNL d   1      25.985 -12.455  -2.290  0.00  0.00     0.190 HD
BRANCH   8  11
ATOM     11  C   UNL d   1      25.414 -15.047  -2.618  0.00  0.00     0.152 A 
ATOM     12  C   UNL d   1      26.593 -15.571  -2.077  0.00  0.00    -0.009 A 
ATOM     13  C   UNL d   1      28.006 -15.162  -2.247  0.00  0.00     0.052 C 
ATOM     14  C   UNL d   1      26.227 -16.662  -1.219  0.00  0.00     0.007 A 
ATOM     15  C   UNL d   1      26.954 -17.565  -0.410  0.00  0.00     0.015 A 
ATOM     16  C   UNL d   1      24.847 -16.750  -1.249  0.00  0.00     0.087 A 
ATOM     17  C   UNL d   1      26.270 -18.514   0.356  0.00  0.00     0.001 A 
ATOM     18  C   UNL d   1      24.878 -18.575   0.317  0.00  0.00     0.003 A 
ATOM     19  C   UNL d   1      24.132 -17.695  -0.494  0.00  0.00     0.038 A 
ATOM     20  O   UNL d   1      24.349 -15.788  -2.097  0.00  0.00    -0.304 OA
ENDBRANCH   8  11
ENDBRANCH   1   7
BRANCH   4  21
ATOM     21  C   UNL d   1      26.072  -7.822  -3.784  0.00  0.00     0.163 C 
BRANCH  21  22
ATOM     22  C   UNL d   1      26.683  -7.688  -2.393  0.00  0.00    -0.038 A 
ATOM     23  C   UNL d   1      28.077  -7.739  -2.196  0.00  0.00     0.009 A 
ATOM     24  C   UNL d   1      28.629  -7.763  -0.901  0.00  0.00     0.003 A 
ATOM     25  C   UNL d   1      27.805  -7.668   0.223  0.00  0.00     0.036 A 
ATOM     26  C   UNL d   1      26.428  -7.573   0.037  0.00  0.00     0.103 A 
ATOM     27  C   UNL d   1      25.880  -7.564  -1.251  0.00  0.00     0.045 A 
BRANCH  26  28
ATOM     28  N   UNL d   1      25.510  -7.548   1.181  0.00  0.00    -0.116 N 
ATOM     29  O   UNL d   1      25.159  -6.444   1.617  0.00  0.00    -0.532 OA
ATOM     30  O   UNL d   1      25.155  -8.638   1.655  0.00  0.00    -0.532 OA
ENDBRANCH  26  28
ENDBRANCH  21  22
ENDBRANCH   4  21
TORSDOF 5
ENDMDL
MODEL 4
REMARK VINA RESULT:    -7.985      8.063     10.596
REMARK INTER + INTRA:         -10.524
REMARK INTER:                  -9.476
REMARK INTRA:                  -1.047
REMARK CONF_INDEPENDENT:        1.492
REMARK UNBOUND:                -1.047
REMARK  5 active torsions:
REMARK  status: ('A' for Active; 'I' for Inactive)
REMARK    1  A    between atoms: C_3  and  C_4 
REMARK       I    between atoms: C_4  and  N_6 
REMARK    2  A    between atoms: N_6  and  N_7 
REMARK       I    between atoms: N_7  and  C_8 
REMARK       I    between atoms: C_8  and  N_10 
REMARK    3  A    between atoms: N_10  and  C_11 
REMARK    4  A    between atoms: C_11  and  C_12 
REMARK    5  A    between atoms: C_16  and  N_17 
ROOT
ATOM      1  N   UNL d   1      28.720 -15.145   4.277  0.00  0.00    -0.249 N 
ATOM      2  C   UNL d   1      27.978 -14.350   3.400  0.00  0.00     0.335 C 
ATOM      3  O   UNL d   1      27.322 -13.381   3.777  0.00  0.00    -0.246 OA
ATOM      4  N   UNL d   1      28.062 -14.744   2.096  0.00  0.00    -0.338 N 
ATOM      5  H   UNL d   1      29.287 -15.947   4.018  0.00  0.00     0.192 HD
ATOM      6  H   UNL d   1      28.540 -15.612   1.951  0.00  0.00     0.164 HD
ENDROOT
BRANCH   1   7
ATOM      7  N   UNL d   1      28.709 -14.772   5.642  0.00  0.00    -0.260 N 
ATOM      8  C   UNL d   1      29.071 -13.519   6.143  0.00  0.00     0.294 C 
ATOM      9  O   UNL d   1      29.431 -12.630   5.360  0.00  0.00    -0.264 OA
ATOM     10  H   UNL d   1      28.380 -15.527   6.216  0.00  0.00     0.190 HD
BRANCH   8  11
ATOM     11  C   UNL d   1      29.000 -13.335   7.617  0.00  0.00     0.152 A 
ATOM     12  C   UNL d   1      29.138 -12.230   8.464  0.00  0.00    -0.009 A 
ATOM     13  C   UNL d   1      29.400 -10.804   8.166  0.00  0.00     0.052 C 
ATOM     14  C   UNL d   1      28.951 -12.691   9.810  0.00  0.00     0.007 A 
ATOM     15  C   UNL d   1      28.968 -12.065  11.077  0.00  0.00     0.015 A 
ATOM     16  C   UNL d   1      28.683 -14.046   9.736  0.00  0.00     0.087 A 
ATOM     17  C   UNL d   1      28.699 -12.816  12.225  0.00  0.00     0.001 A 
ATOM     18  C   UNL d   1      28.421 -14.178  12.122  0.00  0.00     0.003 A 
ATOM     19  C   UNL d   1      28.414 -14.828  10.871  0.00  0.00     0.038 A 
ATOM     20  O   UNL d   1      28.722 -14.445   8.420  0.00  0.00    -0.304 OA
ENDBRANCH   8  11
ENDBRANCH   1   7
BRANCH   4  21
ATOM     21  C   UNL d   1      27.363 -14.088   0.981  0.00  0.00     0.163 C 
BRANCH  21  22
ATOM     22  C   UNL d   1      26.663 -15.042   0.018  0.00  0.00    -0.038 A 
ATOM     23  C   UNL d   1      26.587 -16.424   0.282  0.00  0.00     0.009 A 
ATOM     24  C   UNL d   1      26.073 -17.320  -0.674  0.00  0.00     0.003 A 
ATOM     25  C   UNL d   1      25.560 -16.849  -1.885  0.00  0.00     0.036 A 
ATOM     26  C   UNL d   1      25.592 -15.479  -2.136  0.00  0.00     0.103 A 
ATOM     27  C   UNL d   1      26.117 -14.591  -1.191  0.00  0.00     0.045 A 
BRANCH  26  28
ATOM     28  N   UNL d   1      25.140 -14.936  -3.422  0.00  0.00    -0.116 N 
ATOM     29  O   UNL d   1      24.211 -14.118  -3.409  0.00  0.00    -0.532 OA
ATOM     30  O   UNL d   1      25.704 -15.345  -4.448  0.00  0.00    -0.532 OA
ENDBRANCH  26  28
ENDBRANCH  21  22
ENDBRANCH   4  21
TORSDOF 5
ENDMDL
MODEL 5
REMARK VINA RESULT:    -7.960      2.987      9.742
REMARK INTER + INTRA:         -10.942
REMARK INTER:                  -9.452
REMARK INTRA:                  -1.490
REMARK CONF_INDEPENDENT:        1.492
REMARK UNBOUND:                -1.490
REMARK  5 active torsions:
REMARK  status: ('A' for Active; 'I' for Inactive)
REMARK    1  A    between atoms: C_3  and  C_4 
REMARK       I    between atoms: C_4  and  N_6 
REMARK    2  A    between atoms: N_6  and  N_7 
REMARK       I    between atoms: N_7  and  C_8 
REMARK       I    between atoms: C_8  and  N_10 
REMARK    3  A    between atoms: N_10  and  C_11 
REMARK    4  A    between atoms: C_11  and  C_12 
REMARK    5  A    between atoms: C_16  and  N_17 
ROOT
ATOM      1  N   UNL d   1      25.893 -12.590  -2.944  0.00  0.00    -0.249 N 
ATOM      2  C   UNL d   1      25.518 -13.878  -3.336  0.00  0.00     0.335 C 
ATOM      3  O   UNL d   1      24.809 -14.092  -4.317  0.00  0.00    -0.246 OA
ATOM      4  N   UNL d   1      26.023 -14.864  -2.539  0.00  0.00    -0.338 N 
ATOM      5  H   UNL d   1      26.484 -12.358  -2.152  0.00  0.00     0.192 HD
ATOM      6  H   UNL d   1      26.491 -14.538  -1.715  0.00  0.00     0.164 HD
ENDROOT
BRANCH   1   7
ATOM      7  N   UNL d   1      25.435 -11.519  -3.748  0.00  0.00    -0.260 N 
ATOM      8  C   UNL d   1      25.920 -10.209  -3.708  0.00  0.00     0.294 C 
ATOM      9  O   UNL d   1      26.833  -9.922  -2.922  0.00  0.00    -0.264 OA
ATOM     10  H   UNL d   1      24.719 -11.828  -4.380  0.00  0.00     0.190 HD
BRANCH   8  11
ATOM     11  C   UNL d   1      25.292  -9.228  -4.632  0.00  0.00     0.152 A 
ATOM     12  C   UNL d   1      25.657  -8.693  -5.872  0.00  0.00    -0.009 A 
ATOM     13  C   UNL d   1      26.838  -8.943  -6.729  0.00  0.00     0.052 C 
ATOM     14  C   UNL d   1      24.620  -7.785  -6.273  0.00  0.00     0.007 A 
ATOM     15  C   UNL d   1      24.417  -6.959  -7.401  0.00  0.00     0.015 A 
ATOM     16  C   UNL d   1      23.655  -7.816  -5.282  0.00  0.00     0.087 A 
ATOM     17  C   UNL d   1      23.244  -6.205  -7.506  0.00  0.00     0.001 A 
ATOM     18  C   UNL d   1      22.282  -6.262  -6.499  0.00  0.00     0.003 A 
ATOM     19  C   UNL d   1      22.469  -7.067  -5.357  0.00  0.00     0.038 A 
ATOM     20  O   UNL d   1      24.056  -8.674  -4.285  0.00  0.00    -0.304 OA
ENDBRANCH   8  11
ENDBRANCH   1   7
BRANCH   4  21
ATOM     21  C   UNL d   1      25.765 -16.300  -2.726  0.00  0.00     0.163 C 
BRANCH  21  22
ATOM     22  C   UNL d   1      25.018 -16.967  -1.576  0.00  0.00    -0.038 A 
ATOM     23  C   UNL d   1      25.682 -17.346  -0.391  0.00  0.00     0.009 A 
ATOM     24  C   UNL d   1      25.024 -18.091   0.605  0.00  0.00     0.003 A 
ATOM     25  C   UNL d   1      23.672 -18.415   0.472  0.00  0.00     0.036 A 
ATOM     26  C   UNL d   1      22.996 -18.007  -0.676  0.00  0.00     0.103 A 
ATOM     27  C   UNL d   1      23.655 -17.279  -1.672  0.00  0.00     0.045 A 
BRANCH  26  28
ATOM     28  N   UNL d   1      21.597 -18.385  -0.905  0.00  0.00    -0.116 N 
ATOM     29  O   UNL d   1      21.347 -19.580  -1.112  0.00  0.00    -0.532 OA
ATOM     30  O   UNL d   1      20.749 -17.479  -0.896  0.00  0.00    -0.532 OA
ENDBRANCH  26  28
ENDBRANCH  21  22
ENDBRANCH   4  21
TORSDOF 5
ENDMDL
MODEL 6
REMARK VINA RESULT:    -7.536      6.268      9.685
REMARK INTER + INTRA:         -10.413
REMARK INTER:                  -9.027
REMARK INTRA:                  -1.386
REMARK CONF_INDEPENDENT:        1.492
REMARK UNBOUND:                -1.386
REMARK  5 active torsions:
REMARK  status: ('A' for Active; 'I' for Inactive)
REMARK    1  A    between atoms: C_3  and  C_4 
REMARK       I    between atoms: C_4  and  N_6 
REMARK    2  A    between atoms: N_6  and  N_7 
REMARK       I    between atoms: N_7  and  C_8 
REMARK       I    between atoms: C_8  and  N_10 
REMARK    3  A    between atoms: N_10  and  C_11 
REMARK    4  A    between atoms: C_11  and  C_12 
REMARK    5  A    between atoms: C_16  and  N_17 
ROOT
ATOM      1  N   UNL d   1      26.808 -13.150   1.317  0.00  0.00    -0.249 N 
ATOM      2  C   UNL d   1      26.654 -14.309   0.552  0.00  0.00     0.335 C 
ATOM      3  O   UNL d   1      26.985 -15.421   0.957  0.00  0.00    -0.246 OA
ATOM      4  N   UNL d   1      26.094 -14.087  -0.674  0.00  0.00    -0.338 N 
ATOM      5  H   UNL d   1      26.542 -12.212   1.037  0.00  0.00     0.192 HD
ATOM      6  H   UNL d   1      25.977 -13.121  -0.912  0.00  0.00     0.164 HD
ENDROOT
BRANCH   1   7
ATOM      7  N   UNL d   1      27.350 -13.311   2.615  0.00  0.00    -0.260 N 
ATOM      8  C   UNL d   1      27.456 -12.305   3.580  0.00  0.00     0.294 C 
ATOM      9  O   UNL d   1      27.046 -11.166   3.320  0.00  0.00    -0.264 OA
ATOM     10  H   UNL d   1      27.633 -14.261   2.768  0.00  0.00     0.190 HD
BRANCH   8  11
ATOM     11  C   UNL d   1      28.069 -12.681   4.882  0.00  0.00     0.152 A 
ATOM     12  C   UNL d   1      29.091 -13.561   5.254  0.00  0.00    -0.009 A 
ATOM     13  C   UNL d   1      29.957 -14.444   4.440  0.00  0.00     0.052 C 
ATOM     14  C   UNL d   1      29.234 -13.479   6.679  0.00  0.00     0.007 A 
ATOM     15  C   UNL d   1      30.078 -14.108   7.622  0.00  0.00     0.015 A 
ATOM     16  C   UNL d   1      28.317 -12.542   7.121  0.00  0.00     0.087 A 
ATOM     17  C   UNL d   1      29.986 -13.764   8.974  0.00  0.00     0.001 A 
ATOM     18  C   UNL d   1      29.061 -12.808   9.392  0.00  0.00     0.003 A 
ATOM     19  C   UNL d   1      28.198 -12.178   8.472  0.00  0.00     0.038 A 
ATOM     20  O   UNL d   1      27.604 -12.064   6.046  0.00  0.00    -0.304 OA
ENDBRANCH   8  11
ENDBRANCH   1   7
BRANCH   4  21
ATOM     21  C   UNL d   1      25.840 -15.134  -1.675  0.00  0.00     0.163 C 
BRANCH  21  22
ATOM     22  C   UNL d   1      25.191 -16.399  -1.122  0.00  0.00    -0.038 A 
ATOM     23  C   UNL d   1      25.957 -17.400  -0.492  0.00  0.00     0.009 A 
ATOM     24  C   UNL d   1      25.380 -18.628  -0.117  0.00  0.00     0.003 A 
ATOM     25  C   UNL d   1      24.014 -18.856  -0.298  0.00  0.00     0.036 A 
ATOM     26  C   UNL d   1      23.241 -17.855  -0.880  0.00  0.00     0.103 A 
ATOM     27  C   UNL d   1      23.818 -16.640  -1.267  0.00  0.00     0.045 A 
BRANCH  26  28
ATOM     28  N   UNL d   1      21.818 -18.067  -1.166  0.00  0.00    -0.116 N 
ATOM     29  O   UNL d   1      21.030 -17.152  -0.895  0.00  0.00    -0.532 OA
ATOM     30  O   UNL d   1      21.486 -19.163  -1.644  0.00  0.00    -0.532 OA
ENDBRANCH  26  28
ENDBRANCH  21  22
ENDBRANCH   4  21
TORSDOF 5
ENDMDL
MODEL 7
REMARK VINA RESULT:    -7.171      2.442      3.942
REMARK INTER + INTRA:         -10.227
REMARK INTER:                  -8.663
REMARK INTRA:                  -1.564
REMARK CONF_INDEPENDENT:        1.492
REMARK UNBOUND:                -1.564
REMARK  5 active torsions:
REMARK  status: ('A' for Active; 'I' for Inactive)
REMARK    1  A    between atoms: C_3  and  C_4 
REMARK       I    between atoms: C_4  and  N_6 
REMARK    2  A    between atoms: N_6  and  N_7 
REMARK       I    between atoms: N_7  and  C_8 
REMARK       I    between atoms: C_8  and  N_10 
REMARK    3  A    between atoms: N_10  and  C_11 
REMARK    4  A    between atoms: C_11  and  C_12 
REMARK    5  A    between atoms: C_16  and  N_17 
ROOT
ATOM      1  N   UNL d   1      25.572 -11.667  -4.435  0.00  0.00    -0.249 N 
ATOM      2  C   UNL d   1      26.004 -10.367  -4.162  0.00  0.00     0.335 C 
ATOM      3  O   UNL d   1      27.181 -10.092  -3.937  0.00  0.00    -0.246 OA
ATOM      4  N   UNL d   1      25.002  -9.439  -4.183  0.00  0.00    -0.338 N 
ATOM      5  H   UNL d   1      24.618 -11.947  -4.638  0.00  0.00     0.192 HD
ATOM      6  H   UNL d   1      24.080  -9.821  -4.270  0.00  0.00     0.164 HD
ENDROOT
BRANCH   1   7
ATOM      7  N   UNL d   1      26.565 -12.676  -4.466  0.00  0.00    -0.260 N 
ATOM      8  C   UNL d   1      26.324 -14.048  -4.566  0.00  0.00     0.294 C 
ATOM      9  O   UNL d   1      25.158 -14.458  -4.645  0.00  0.00    -0.264 OA
ATOM     10  H   UNL d   1      27.483 -12.273  -4.429  0.00  0.00     0.190 HD
BRANCH   8  11
ATOM     11  C   UNL d   1      27.511 -14.944  -4.571  0.00  0.00     0.152 A 
ATOM     12  C   UNL d   1      28.187 -15.663  -3.579  0.00  0.00    -0.009 A 
ATOM     13  C   UNL d   1      27.929 -15.794  -2.127  0.00  0.00     0.052 C 
ATOM     14  C   UNL d   1      29.271 -16.358  -4.213  0.00  0.00     0.007 A 
ATOM     15  C   UNL d   1      30.286 -17.228  -3.752  0.00  0.00     0.015 A 
ATOM     16  C   UNL d   1      29.205 -16.060  -5.562  0.00  0.00     0.087 A 
ATOM     17  C   UNL d   1      31.189 -17.783  -4.664  0.00  0.00     0.001 A 
ATOM     18  C   UNL d   1      31.094 -17.475  -6.020  0.00  0.00     0.003 A 
ATOM     19  C   UNL d   1      30.100 -16.598  -6.501  0.00  0.00     0.038 A 
ATOM     20  O   UNL d   1      28.155 -15.200  -5.785  0.00  0.00    -0.304 OA
ENDBRANCH   8  11
ENDBRANCH   1   7
BRANCH   4  21
ATOM     21  C   UNL d   1      25.188  -8.006  -3.913  0.00  0.00     0.163 C 
BRANCH  21  22
ATOM     22  C   UNL d   1      25.986  -7.695  -2.651  0.00  0.00    -0.038 A 
ATOM     23  C   UNL d   1      27.376  -7.470  -2.699  0.00  0.00     0.009 A 
ATOM     24  C   UNL d   1      28.131  -7.330  -1.519  0.00  0.00     0.003 A 
ATOM     25  C   UNL d   1      27.506  -7.342  -0.270  0.00  0.00     0.036 A 
ATOM     26  C   UNL d   1      26.126  -7.520  -0.215  0.00  0.00     0.103 A 
ATOM     27  C   UNL d   1      25.378  -7.674  -1.389  0.00  0.00     0.045 A 
BRANCH  26  28
ATOM     28  N   UNL d   1      25.426  -7.618   1.070  0.00  0.00    -0.116 N 
ATOM     29  O   UNL d   1      25.167  -6.567   1.669  0.00  0.00    -0.532 OA
ATOM     30  O   UNL d   1      25.154  -8.754   1.490  0.00  0.00    -0.532 OA
ENDBRANCH  26  28
ENDBRANCH  21  22
ENDBRANCH   4  21
TORSDOF 5
ENDMDL
MODEL 8
REMARK VINA RESULT:    -6.807      1.727      2.187
REMARK INTER + INTRA:         -10.120
REMARK INTER:                  -8.299
REMARK INTRA:                  -1.821
REMARK CONF_INDEPENDENT:        1.492
REMARK UNBOUND:                -1.821
REMARK  5 active torsions:
REMARK  status: ('A' for Active; 'I' for Inactive)
REMARK    1  A    between atoms: C_3  and  C_4 
REMARK       I    between atoms: C_4  and  N_6 
REMARK    2  A    between atoms: N_6  and  N_7 
REMARK       I    between atoms: N_7  and  C_8 
REMARK       I    between atoms: C_8  and  N_10 
REMARK    3  A    between atoms: N_10  and  C_11 
REMARK    4  A    between atoms: C_11  and  C_12 
REMARK    5  A    between atoms: C_16  and  N_17 
ROOT
ATOM      1  N   UNL d   1      27.733 -12.315  -1.734  0.00  0.00    -0.249 N 
ATOM      2  C   UNL d   1      27.114 -11.152  -2.200  0.00  0.00     0.335 C 
ATOM      3  O   UNL d   1      25.903 -11.078  -2.396  0.00  0.00    -0.246 OA
ATOM      4  N   UNL d   1      27.977 -10.113  -2.401  0.00  0.00    -0.338 N 
ATOM      5  H   UNL d   1      28.724 -12.426  -1.544  0.00  0.00     0.192 HD
ATOM      6  H   UNL d   1      28.946 -10.350  -2.306  0.00  0.00     0.164 HD
ENDROOT
BRANCH   1   7
ATOM      7  N   UNL d   1      26.893 -13.422  -1.468  0.00  0.00    -0.260 N 
ATOM      8  C   UNL d   1      27.326 -14.725  -1.205  0.00  0.00     0.294 C 
ATOM      9  O   UNL d   1      28.539 -14.971  -1.186  0.00  0.00    -0.264 OA
ATOM     10  H   UNL d   1      25.928 -13.146  -1.469  0.00  0.00     0.190 HD
BRANCH   8  11
ATOM     11  C   UNL d   1      26.275 -15.749  -0.961  0.00  0.00     0.152 A 
ATOM     12  C   UNL d   1      26.301 -17.081  -0.533  0.00  0.00    -0.009 A 
ATOM     13  C   UNL d   1      27.430 -17.956  -0.145  0.00  0.00     0.052 C 
ATOM     14  C   UNL d   1      24.943 -17.544  -0.484  0.00  0.00     0.007 A 
ATOM     15  C   UNL d   1      24.334 -18.771  -0.135  0.00  0.00     0.015 A 
ATOM     16  C   UNL d   1      24.143 -16.481  -0.859  0.00  0.00     0.087 A 
ATOM     17  C   UNL d   1      22.940 -18.883  -0.156  0.00  0.00     0.001 A 
ATOM     18  C   UNL d   1      22.155 -17.793  -0.528  0.00  0.00     0.003 A 
ATOM     19  C   UNL d   1      22.741 -16.564  -0.895  0.00  0.00     0.038 A 
ATOM     20  O   UNL d   1      24.937 -15.399  -1.159  0.00  0.00    -0.304 OA
ENDBRANCH   8  11
ENDBRANCH   1   7
BRANCH   4  21
ATOM     21  C   UNL d   1      27.583  -8.788  -2.903  0.00  0.00     0.163 C 
BRANCH  21  22
ATOM     22  C   UNL d   1      26.649  -8.011  -1.980  0.00  0.00    -0.038 A 
ATOM     23  C   UNL d   1      26.028  -6.818  -2.402  0.00  0.00     0.009 A 
ATOM     24  C   UNL d   1      25.287  -6.027  -1.503  0.00  0.00     0.003 A 
ATOM     25  C   UNL d   1      25.091  -6.445  -0.185  0.00  0.00     0.036 A 
ATOM     26  C   UNL d   1      25.665  -7.645   0.229  0.00  0.00     0.103 A 
ATOM     27  C   UNL d   1      26.414  -8.423  -0.662  0.00  0.00     0.045 A 
BRANCH  26  28
ATOM     28  N   UNL d   1      25.559  -8.094   1.621  0.00  0.00    -0.116 N 
ATOM     29  O   UNL d   1      24.833  -9.068   1.861  0.00  0.00    -0.532 OA
ATOM     30  O   UNL d   1      26.189  -7.457   2.479  0.00  0.00    -0.532 OA
ENDBRANCH  26  28
ENDBRANCH  21  22
ENDBRANCH   4  21
TORSDOF 5
ENDMDL
MODEL 9
REMARK VINA RESULT:    -6.775      7.063     10.420
REMARK INTER + INTRA:         -10.022
REMARK INTER:                  -8.266
REMARK INTRA:                  -1.756
REMARK CONF_INDEPENDENT:        1.492
REMARK UNBOUND:                -1.756
REMARK  5 active torsions:
REMARK  status: ('A' for Active; 'I' for Inactive)
REMARK    1  A    between atoms: C_3  and  C_4 
REMARK       I    between atoms: C_4  and  N_6 
REMARK    2  A    between atoms: N_6  and  N_7 
REMARK       I    between atoms: N_7  and  C_8 
REMARK       I    between atoms: C_8  and  N_10 
REMARK    3  A    between atoms: N_10  and  C_11 
REMARK    4  A    between atoms: C_11  and  C_12 
REMARK    5  A    between atoms: C_16  and  N_17 
ROOT
ATOM      1  N   UNL d   1      28.898 -14.608   3.322  0.00  0.00    -0.249 N 
ATOM      2  C   UNL d   1      28.905 -14.178   1.992  0.00  0.00     0.335 C 
ATOM      3  O   UNL d   1      29.040 -12.998   1.676  0.00  0.00    -0.246 OA
ATOM      4  N   UNL d   1      28.763 -15.191   1.087  0.00  0.00    -0.338 N 
ATOM      5  H   UNL d   1      28.802 -15.568   3.636  0.00  0.00     0.192 HD
ATOM      6  H   UNL d   1      28.553 -16.085   1.488  0.00  0.00     0.164 HD
ENDROOT
BRANCH   1   7
ATOM      7  N   UNL d   1      29.078 -13.614   4.314  0.00  0.00    -0.260 N 
ATOM      8  C   UNL d   1      28.925 -13.805   5.689  0.00  0.00     0.294 C 
ATOM      9  O   UNL d   1      28.614 -14.924   6.119  0.00  0.00    -0.264 OA
ATOM     10  H   UNL d   1      29.357 -12.743   3.900  0.00  0.00     0.190 HD
BRANCH   8  11
ATOM     11  C   UNL d   1      29.150 -12.623   6.563  0.00  0.00     0.152 A 
ATOM     12  C   UNL d   1      29.456 -12.464   7.919  0.00  0.00    -0.009 A 
ATOM     13  C   UNL d   1      29.685 -13.463   8.987  0.00  0.00     0.052 C 
ATOM     14  C   UNL d   1      29.558 -11.056   8.177  0.00  0.00     0.007 A 
ATOM     15  C   UNL d   1      29.840 -10.283   9.326  0.00  0.00     0.015 A 
ATOM     16  C   UNL d   1      29.335 -10.411   6.974  0.00  0.00     0.087 A 
ATOM     17  C   UNL d   1      29.906  -8.890   9.226  0.00  0.00     0.001 A 
ATOM     18  C   UNL d   1      29.688  -8.265   7.999  0.00  0.00     0.003 A 
ATOM     19  C   UNL d   1      29.390  -9.013   6.842  0.00  0.00     0.038 A 
ATOM     20  O   UNL d   1      29.077 -11.346   5.999  0.00  0.00    -0.304 OA
ENDBRANCH   8  11
ENDBRANCH   1   7
BRANCH   4  21
ATOM     21  C   UNL d   1      28.722 -15.005  -0.371  0.00  0.00     0.163 C 
BRANCH  21  22
ATOM     22  C   UNL d   1      27.436 -15.482  -1.038  0.00  0.00    -0.038 A 
ATOM     23  C   UNL d   1      26.594 -16.426  -0.415  0.00  0.00     0.009 A 
ATOM     24  C   UNL d   1      25.489 -16.974  -1.093  0.00  0.00     0.003 A 
ATOM     25  C   UNL d   1      25.159 -16.541  -2.379  0.00  0.00     0.036 A 
ATOM     26  C   UNL d   1      25.960 -15.575  -2.986  0.00  0.00     0.103 A 
ATOM     27  C   UNL d   1      27.068 -15.043  -2.316  0.00  0.00     0.045 A 
BRANCH  26  28
ATOM     28  N   UNL d   1      25.708 -15.140  -4.364  0.00  0.00    -0.116 N 
ATOM     29  O   UNL d   1      26.449 -15.576  -5.253  0.00  0.00    -0.532 OA
ATOM     30  O   UNL d   1      24.776 -14.342  -4.551  0.00  0.00    -0.532 OA
ENDBRANCH  26  28
ENDBRANCH  21  22
ENDBRANCH   4  21
TORSDOF 5
ENDMDL
