MODEL 1
REMARK VINA RESULT:    -9.760      0.000      0.000
REMARK INTER + INTRA:         -12.460
REMARK INTER:                 -11.550
REMARK INTRA:                  -0.911
REMARK CONF_INDEPENDENT:        1.790
REMARK UNBOUND:                -0.911
REMARK  6 active torsions:
REMARK  status: ('A' for Active; 'I' for Inactive)
REMARK    1  A    between atoms: O_2  and  C_3 
REMARK       I    between atoms: C_3  and  N_5 
REMARK    2  A    between atoms: N_5  and  C_6 
REMARK    3  A    between atoms: C_9  and  C_10 
REMARK    4  A    between atoms: C_10  and  N_11 
REMARK       I    between atoms: N_11  and  C_12 
REMARK    5  A    between atoms: C_12  and  C_14 
REMARK       I    between atoms: C_14  and  N_16 
REMARK    6  A    between atoms: N_16  and  C_17 
ROOT
ATOM      1  N   UNL d   1      26.332 -15.730  -2.306  0.00  0.00    -0.349 N 
ATOM      2  C   UNL d   1      25.859 -15.122  -3.454  0.00  0.00     0.309 C 
ATOM      3  O   UNL d   1      24.829 -14.473  -3.551  0.00  0.00    -0.262 OA
ATOM      4  H   UNL d   1      27.233 -16.183  -2.410  0.00  0.00     0.163 HD
ENDROOT
BRANCH   1   5
ATOM      5  C   UNL d   1      25.660 -15.691  -1.013  0.00  0.00     0.161 C 
BRANCH   5   6
ATOM      6  C   UNL d   1      24.550 -16.716  -0.809  0.00  0.00    -0.040 A 
ATOM      7  C   UNL d   1      23.197 -16.325  -0.893  0.00  0.00     0.011 A 
ATOM      8  C   UNL d   1      22.149 -17.215  -0.563  0.00  0.00     0.030 A 
ATOM      9  C   UNL d   1      22.435 -18.523  -0.165  0.00  0.00     0.036 A 
ATOM     10  C   UNL d   1      23.766 -18.932  -0.145  0.00  0.00     0.030 A 
ATOM     11  C   UNL d   1      24.801 -18.051  -0.474  0.00  0.00     0.011 A 
BRANCH   9  12
ATOM     12  N   UNL d   1      21.407 -19.427   0.182  0.00  0.00    -0.303 N 
ATOM     13  C   UNL d   1      20.432 -19.831  -0.706  0.00  0.00     0.364 C 
ATOM     14  O   UNL d   1      20.356 -19.491  -1.888  0.00  0.00    -0.238 OA
ATOM     15  H   UNL d   1      21.468 -19.936   1.055  0.00  0.00     0.171 HD
BRANCH  13  16
ATOM     16  O   UNL d   1      19.571 -20.721  -0.137  0.00  0.00    -0.309 OA
ATOM     17  C   UNL d   1      18.790 -20.155   0.930  0.00  0.00     0.215 C 
ENDBRANCH  13  16
ENDBRANCH   9  12
ENDBRANCH   5   6
ENDBRANCH   1   5
BRANCH   2  18
ATOM     18  C   UNL d   1      26.782 -15.335  -4.691  0.00  0.00     0.313 C 
ATOM     19  O   UNL d   1      26.249 -15.575  -5.770  0.00  0.00    -0.262 OA
ATOM     20  N   UNL d   1      28.153 -15.284  -4.443  0.00  0.00    -0.319 N 
ATOM     21  H   UNL d   1      28.447 -15.245  -3.470  0.00  0.00     0.169 HD
BRANCH  20  22
ATOM     22  C   UNL d   1      29.133 -15.393  -5.461  0.00  0.00     0.038 A 
ATOM     23  C   UNL d   1      29.737 -16.624  -5.747  0.00  0.00     0.053 A 
ATOM     24  C   UNL d   1      30.759 -16.693  -6.708  0.00  0.00     0.037 A 
ATOM     25 CL   UNL d   1      31.596 -18.177  -6.970  0.00  0.00    -0.084 Cl
ATOM     26  C   UNL d   1      31.155 -15.565  -7.422  0.00  0.00     0.048 A 
ATOM     27  C   UNL d   1      30.565 -14.344  -7.122  0.00  0.00     0.037 A 
ATOM     28 CL   UNL d   1      31.121 -12.913  -7.898  0.00  0.00    -0.084 Cl
ATOM     29  C   UNL d   1      29.562 -14.256  -6.154  0.00  0.00     0.053 A 
ENDBRANCH  20  22
ENDBRANCH   2  18
TORSDOF 6
ENDMDL
MODEL 2
REMARK VINA RESULT:    -9.744      0.141      1.767
REMARK INTER + INTRA:         -12.460
REMARK INTER:                 -11.534
REMARK INTRA:                  -0.926
REMARK CONF_INDEPENDENT:        1.790
REMARK UNBOUND:                -0.926
REMARK  6 active torsions:
REMARK  status: ('A' for Active; 'I' for Inactive)
REMARK    1  A    between atoms: O_2  and  C_3 
REMARK       I    between atoms: C_3  and  N_5 
REMARK    2  A    between atoms: N_5  and  C_6 
REMARK    3  A    between atoms: C_9  and  C_10 
REMARK    4  A    between atoms: C_10  and  N_11 
REMARK       I    between atoms: N_11  and  C_12 
REMARK    5  A    between atoms: C_12  and  C_14 
REMARK       I    between atoms: C_14  and  N_16 
REMARK    6  A    between atoms: N_16  and  C_17 
ROOT
ATOM      1  N   UNL d   1      26.294 -15.621  -2.299  0.00  0.00    -0.349 N 
ATOM      2  C   UNL d   1      25.839 -15.074  -3.485  0.00  0.00     0.309 C 
ATOM      3  O   UNL d   1      24.785 -14.478  -3.644  0.00  0.00    -0.262 OA
ATOM      4  H   UNL d   1      27.218 -16.034  -2.353  0.00  0.00     0.163 HD
ENDROOT
BRANCH   1   5
ATOM      5  C   UNL d   1      25.570 -15.572  -1.035  0.00  0.00     0.161 C 
BRANCH   5   6
ATOM      6  C   UNL d   1      24.518 -16.655  -0.827  0.00  0.00    -0.040 A 
ATOM      7  C   UNL d   1      23.145 -16.329  -0.857  0.00  0.00     0.011 A 
ATOM      8  C   UNL d   1      22.153 -17.278  -0.521  0.00  0.00     0.030 A 
ATOM      9  C   UNL d   1      22.515 -18.582  -0.173  0.00  0.00     0.036 A 
ATOM     10  C   UNL d   1      23.864 -18.925  -0.208  0.00  0.00     0.030 A 
ATOM     11  C   UNL d   1      24.844 -17.986  -0.542  0.00  0.00     0.011 A 
BRANCH   9  12
ATOM     12  N   UNL d   1      21.544 -19.545   0.178  0.00  0.00    -0.303 N 
ATOM     13  C   UNL d   1      20.487 -19.879  -0.643  0.00  0.00     0.364 C 
ATOM     14  O   UNL d   1      20.281 -19.418  -1.766  0.00  0.00    -0.238 OA
ATOM     15  H   UNL d   1      21.705 -20.142   0.980  0.00  0.00     0.171 HD
BRANCH  13  16
ATOM     16  O   UNL d   1      19.705 -20.847  -0.087  0.00  0.00    -0.309 OA
ATOM     17  C   UNL d   1      18.635 -20.323   0.718  0.00  0.00     0.215 C 
ENDBRANCH  13  16
ENDBRANCH   9  12
ENDBRANCH   5   6
ENDBRANCH   1   5
BRANCH   2  18
ATOM     18  C   UNL d   1      26.820 -15.284  -4.678  0.00  0.00     0.313 C 
ATOM     19  O   UNL d   1      26.341 -15.565  -5.772  0.00  0.00    -0.262 OA
ATOM     20  N   UNL d   1      28.177 -15.184  -4.374  0.00  0.00    -0.319 N 
ATOM     21  H   UNL d   1      28.429 -15.115  -3.392  0.00  0.00     0.169 HD
BRANCH  20  22
ATOM     22  C   UNL d   1      29.201 -15.284  -5.349  0.00  0.00     0.038 A 
ATOM     23  C   UNL d   1      29.620 -14.158  -6.068  0.00  0.00     0.053 A 
ATOM     24  C   UNL d   1      30.584 -14.294  -7.080  0.00  0.00     0.037 A 
ATOM     25 CL   UNL d   1      31.007 -12.938  -8.055  0.00  0.00    -0.084 Cl
ATOM     26  C   UNL d   1      31.170 -15.527  -7.356  0.00  0.00     0.048 A 
ATOM     27  C   UNL d   1      30.737 -16.644  -6.652  0.00  0.00     0.037 A 
ATOM     28 CL   UNL d   1      31.352 -18.199  -7.057  0.00  0.00    -0.084 Cl
ATOM     29  C   UNL d   1      29.765 -16.527  -5.656  0.00  0.00     0.053 A 
ENDBRANCH  20  22
ENDBRANCH   2  18
TORSDOF 6
ENDMDL
MODEL 3
REMARK VINA RESULT:    -9.325      5.975      7.799
REMARK INTER + INTRA:         -12.851
REMARK INTER:                 -11.115
REMARK INTRA:                  -1.736
REMARK CONF_INDEPENDENT:        1.790
REMARK UNBOUND:                -1.736
REMARK  6 active torsions:
REMARK  status: ('A' for Active; 'I' for Inactive)
REMARK    1  A    between atoms: O_2  and  C_3 
REMARK       I    between atoms: C_3  and  N_5 
REMARK    2  A    between atoms: N_5  and  C_6 
REMARK    3  A    between atoms: C_9  and  C_10 
REMARK    4  A    between atoms: C_10  and  N_11 
REMARK       I    between atoms: N_11  and  C_12 
REMARK    5  A    between atoms: C_12  and  C_14 
REMARK       I    between atoms: C_14  and  N_16 
REMARK    6  A    between atoms: N_16  and  C_17 
ROOT
ATOM      1  N   UNL d   1      26.291 -15.032   0.046  0.00  0.00    -0.349 N 
ATOM      2  C   UNL d   1      27.279 -15.328   0.967  0.00  0.00     0.309 C 
ATOM      3  O   UNL d   1      27.986 -16.324   0.969  0.00  0.00    -0.262 OA
ATOM      4  H   UNL d   1      25.845 -14.133   0.182  0.00  0.00     0.163 HD
ENDROOT
BRANCH   1   5
ATOM      5  C   UNL d   1      25.933 -15.882  -1.083  0.00  0.00     0.161 C 
BRANCH   5   6
ATOM      6  C   UNL d   1      24.749 -16.817  -0.864  0.00  0.00    -0.040 A 
ATOM      7  C   UNL d   1      23.430 -16.318  -0.915  0.00  0.00     0.011 A 
ATOM      8  C   UNL d   1      22.321 -17.125  -0.571  0.00  0.00     0.030 A 
ATOM      9  C   UNL d   1      22.509 -18.456  -0.192  0.00  0.00     0.036 A 
ATOM     10  C   UNL d   1      23.803 -18.970  -0.204  0.00  0.00     0.030 A 
ATOM     11  C   UNL d   1      24.899 -18.172  -0.547  0.00  0.00     0.011 A 
BRANCH   9  12
ATOM     12  N   UNL d   1      21.420 -19.279   0.169  0.00  0.00    -0.303 N 
ATOM     13  C   UNL d   1      20.473 -19.709  -0.737  0.00  0.00     0.364 C 
ATOM     14  O   UNL d   1      20.476 -19.466  -1.945  0.00  0.00    -0.238 OA
ATOM     15  H   UNL d   1      21.409 -19.715   1.082  0.00  0.00     0.171 HD
BRANCH  13  16
ATOM     16  O   UNL d   1      19.539 -20.507  -0.147  0.00  0.00    -0.309 OA
ATOM     17  C   UNL d   1      19.139 -20.048   1.156  0.00  0.00     0.215 C 
ENDBRANCH  13  16
ENDBRANCH   9  12
ENDBRANCH   5   6
ENDBRANCH   1   5
BRANCH   2  18
ATOM     18  C   UNL d   1      27.439 -14.240   2.072  0.00  0.00     0.313 C 
ATOM     19  O   UNL d   1      26.858 -13.171   1.912  0.00  0.00    -0.262 OA
ATOM     20  N   UNL d   1      28.283 -14.569   3.131  0.00  0.00    -0.319 N 
ATOM     21  H   UNL d   1      28.827 -15.423   3.044  0.00  0.00     0.169 HD
BRANCH  20  22
ATOM     22  C   UNL d   1      28.491 -13.724   4.251  0.00  0.00     0.038 A 
ATOM     23  C   UNL d   1      28.802 -14.260   5.506  0.00  0.00     0.053 A 
ATOM     24  C   UNL d   1      28.931 -13.410   6.617  0.00  0.00     0.037 A 
ATOM     25 CL   UNL d   1      29.183 -14.074   8.187  0.00  0.00    -0.084 Cl
ATOM     26  C   UNL d   1      28.799 -12.029   6.486  0.00  0.00     0.048 A 
ATOM     27  C   UNL d   1      28.473 -11.505   5.242  0.00  0.00     0.037 A 
ATOM     28 CL   UNL d   1      28.182  -9.817   5.077  0.00  0.00    -0.084 Cl
ATOM     29  C   UNL d   1      28.323 -12.340   4.133  0.00  0.00     0.053 A 
ENDBRANCH  20  22
ENDBRANCH   2  18
TORSDOF 6
ENDMDL
MODEL 4
REMARK VINA RESULT:    -9.199      5.877      7.893
REMARK INTER + INTRA:         -12.727
REMARK INTER:                 -10.989
REMARK INTRA:                  -1.737
REMARK CONF_INDEPENDENT:        1.790
REMARK UNBOUND:                -1.737
REMARK  6 active torsions:
REMARK  status: ('A' for Active; 'I' for Inactive)
REMARK    1  A    between atoms: O_2  and  C_3 
REMARK       I    between atoms: C_3  and  N_5 
REMARK    2  A    between atoms: N_5  and  C_6 
REMARK    3  A    between atoms: C_9  and  C_10 
REMARK    4  A    between atoms: C_10  and  N_11 
REMARK       I    between atoms: N_11  and  C_12 
REMARK    5  A    between atoms: C_12  and  C_14 
REMARK       I    between atoms: C_14  and  N_16 
REMARK    6  A    between atoms: N_16  and  C_17 
ROOT
ATOM      1  N   UNL d   1      26.060 -14.953  -0.039  0.00  0.00    -0.349 N 
ATOM      2  C   UNL d   1      27.135 -15.171   0.802  0.00  0.00     0.309 C 
ATOM      3  O   UNL d   1      27.933 -16.092   0.725  0.00  0.00    -0.262 OA
ATOM      4  H   UNL d   1      25.539 -14.105   0.153  0.00  0.00     0.163 HD
ENDROOT
BRANCH   1   5
ATOM      5  C   UNL d   1      25.704 -15.809  -1.164  0.00  0.00     0.161 C 
BRANCH   5   6
ATOM      6  C   UNL d   1      24.559 -16.786  -0.924  0.00  0.00    -0.040 A 
ATOM      7  C   UNL d   1      23.226 -16.324  -0.888  0.00  0.00     0.011 A 
ATOM      8  C   UNL d   1      22.159 -17.175  -0.521  0.00  0.00     0.030 A 
ATOM      9  C   UNL d   1      22.403 -18.514  -0.205  0.00  0.00     0.036 A 
ATOM     10  C   UNL d   1      23.708 -18.989  -0.304  0.00  0.00     0.030 A 
ATOM     11  C   UNL d   1      24.762 -18.146  -0.670  0.00  0.00     0.011 A 
BRANCH   9  12
ATOM     12  N   UNL d   1      21.356 -19.382   0.177  0.00  0.00    -0.303 N 
ATOM     13  C   UNL d   1      20.422 -19.867  -0.714  0.00  0.00     0.364 C 
ATOM     14  O   UNL d   1      20.402 -19.640  -1.924  0.00  0.00    -0.238 OA
ATOM     15  H   UNL d   1      21.374 -19.806   1.096  0.00  0.00     0.171 HD
BRANCH  13  16
ATOM     16  O   UNL d   1      19.532 -20.700  -0.104  0.00  0.00    -0.309 OA
ATOM     17  C   UNL d   1      18.852 -20.092   1.008  0.00  0.00     0.215 C 
ENDBRANCH  13  16
ENDBRANCH   9  12
ENDBRANCH   5   6
ENDBRANCH   1   5
BRANCH   2  18
ATOM     18  C   UNL d   1      27.269 -14.098   1.924  0.00  0.00     0.313 C 
ATOM     19  O   UNL d   1      26.681 -13.031   1.771  0.00  0.00    -0.262 OA
ATOM     20  N   UNL d   1      28.100 -14.434   2.991  0.00  0.00    -0.319 N 
ATOM     21  H   UNL d   1      28.652 -15.283   2.900  0.00  0.00     0.169 HD
BRANCH  20  22
ATOM     22  C   UNL d   1      28.284 -13.604   4.125  0.00  0.00     0.038 A 
ATOM     23  C   UNL d   1      28.227 -12.209   4.011  0.00  0.00     0.053 A 
ATOM     24  C   UNL d   1      28.487 -11.405   5.133  0.00  0.00     0.037 A 
ATOM     25 CL   UNL d   1      28.548  -9.691   4.969  0.00  0.00    -0.084 Cl
ATOM     26  C   UNL d   1      28.758 -11.970   6.377  0.00  0.00     0.048 A 
ATOM     27  C   UNL d   1      28.831 -13.353   6.480  0.00  0.00     0.037 A 
ATOM     28 CL   UNL d   1      29.286 -14.075   7.975  0.00  0.00    -0.084 Cl
ATOM     29  C   UNL d   1      28.595 -14.165   5.369  0.00  0.00     0.053 A 
ENDBRANCH  20  22
ENDBRANCH   2  18
TORSDOF 6
ENDMDL
MODEL 5
REMARK VINA RESULT:    -8.674      6.401      8.439
REMARK INTER + INTRA:         -12.193
REMARK INTER:                 -10.464
REMARK INTRA:                  -1.729
REMARK CONF_INDEPENDENT:        1.790
REMARK UNBOUND:                -1.729
REMARK  6 active torsions:
REMARK  status: ('A' for Active; 'I' for Inactive)
REMARK    1  A    between atoms: O_2  and  C_3 
REMARK       I    between atoms: C_3  and  N_5 
REMARK    2  A    between atoms: N_5  and  C_6 
REMARK    3  A    between atoms: C_9  and  C_10 
REMARK    4  A    between atoms: C_10  and  N_11 
REMARK       I    between atoms: N_11  and  C_12 
REMARK    5  A    between atoms: C_12  and  C_14 
REMARK       I    between atoms: C_14  and  N_16 
REMARK    6  A    between atoms: N_16  and  C_17 
ROOT
ATOM      1  N   UNL d   1      28.223 -15.918   0.818  0.00  0.00    -0.349 N 
ATOM      2  C   UNL d   1      27.543 -14.849   1.370  0.00  0.00     0.309 C 
ATOM      3  O   UNL d   1      26.501 -14.367   0.954  0.00  0.00    -0.262 OA
ATOM      4  H   UNL d   1      29.045 -16.208   1.335  0.00  0.00     0.163 HD
ENDROOT
BRANCH   1   5
ATOM      5  C   UNL d   1      27.794 -16.645  -0.371  0.00  0.00     0.161 C 
BRANCH   5   6
ATOM      6  C   UNL d   1      26.325 -17.051  -0.411  0.00  0.00    -0.040 A 
ATOM      7  C   UNL d   1      25.391 -16.272  -1.128  0.00  0.00     0.011 A 
ATOM      8  C   UNL d   1      24.004 -16.537  -1.061  0.00  0.00     0.030 A 
ATOM      9  C   UNL d   1      23.526 -17.602  -0.295  0.00  0.00     0.036 A 
ATOM     10  C   UNL d   1      24.450 -18.412   0.360  0.00  0.00     0.030 A 
ATOM     11  C   UNL d   1      25.822 -18.151   0.292  0.00  0.00     0.011 A 
BRANCH   9  12
ATOM     12  N   UNL d   1      22.145 -17.880  -0.202  0.00  0.00    -0.303 N 
ATOM     13  C   UNL d   1      21.486 -18.711  -1.084  0.00  0.00     0.364 C 
ATOM     14  O   UNL d   1      22.009 -19.325  -2.015  0.00  0.00    -0.238 OA
ATOM     15  H   UNL d   1      21.638 -17.604   0.629  0.00  0.00     0.171 HD
BRANCH  13  16
ATOM     16  O   UNL d   1      20.165 -18.833  -0.768  0.00  0.00    -0.309 OA
ATOM     17  C   UNL d   1      19.868 -20.019  -0.011  0.00  0.00     0.215 C 
ENDBRANCH  13  16
ENDBRANCH   9  12
ENDBRANCH   5   6
ENDBRANCH   1   5
BRANCH   2  18
ATOM     18  C   UNL d   1      28.238 -14.263   2.636  0.00  0.00     0.313 C 
ATOM     19  O   UNL d   1      29.445 -14.445   2.764  0.00  0.00    -0.262 OA
ATOM     20  N   UNL d   1      27.401 -13.622   3.548  0.00  0.00    -0.319 N 
ATOM     21  H   UNL d   1      26.399 -13.696   3.390  0.00  0.00     0.169 HD
BRANCH  20  22
ATOM     22  C   UNL d   1      27.874 -12.978   4.719  0.00  0.00     0.038 A 
ATOM     23  C   UNL d   1      28.040 -11.588   4.756  0.00  0.00     0.053 A 
ATOM     24  C   UNL d   1      28.581 -10.980   5.901  0.00  0.00     0.037 A 
ATOM     25 CL   UNL d   1      28.910  -9.288   5.904  0.00  0.00    -0.084 Cl
ATOM     26  C   UNL d   1      28.915 -11.730   7.025  0.00  0.00     0.048 A 
ATOM     27  C   UNL d   1      28.765 -13.110   6.976  0.00  0.00     0.037 A 
ATOM     28 CL   UNL d   1      29.286 -14.074   8.303  0.00  0.00    -0.084 Cl
ATOM     29  C   UNL d   1      28.248 -13.731   5.837  0.00  0.00     0.053 A 
ENDBRANCH  20  22
ENDBRANCH   2  18
TORSDOF 6
ENDMDL
MODEL 6
REMARK VINA RESULT:    -8.668      3.968      5.222
REMARK INTER + INTRA:         -12.277
REMARK INTER:                 -10.458
REMARK INTRA:                  -1.819
REMARK CONF_INDEPENDENT:        1.790
REMARK UNBOUND:                -1.819
REMARK  6 active torsions:
REMARK  status: ('A' for Active; 'I' for Inactive)
REMARK    1  A    between atoms: O_2  and  C_3 
REMARK       I    between atoms: C_3  and  N_5 
REMARK    2  A    between atoms: N_5  and  C_6 
REMARK    3  A    between atoms: C_9  and  C_10 
REMARK    4  A    between atoms: C_10  and  N_11 
REMARK       I    between atoms: N_11  and  C_12 
REMARK    5  A    between atoms: C_12  and  C_14 
REMARK       I    between atoms: C_14  and  N_16 
REMARK    6  A    between atoms: N_16  and  C_17 
ROOT
ATOM      1  N   UNL d   1      26.126 -14.959  -2.071  0.00  0.00    -0.349 N 
ATOM      2  C   UNL d   1      25.686 -14.289  -3.198  0.00  0.00     0.309 C 
ATOM      3  O   UNL d   1      25.170 -14.797  -4.181  0.00  0.00    -0.262 OA
ATOM      4  H   UNL d   1      26.481 -14.359  -1.336  0.00  0.00     0.163 HD
ENDROOT
BRANCH   1   5
ATOM      5  C   UNL d   1      26.044 -16.402  -1.884  0.00  0.00     0.161 C 
BRANCH   5   6
ATOM      6  C   UNL d   1      24.742 -16.924  -1.288  0.00  0.00    -0.040 A 
ATOM      7  C   UNL d   1      24.677 -18.228  -0.752  0.00  0.00     0.011 A 
ATOM      8  C   UNL d   1      23.452 -18.793  -0.330  0.00  0.00     0.030 A 
ATOM      9  C   UNL d   1      22.270 -18.054  -0.412  0.00  0.00     0.036 A 
ATOM     10  C   UNL d   1      22.341 -16.744  -0.879  0.00  0.00     0.030 A 
ATOM     11  C   UNL d   1      23.554 -16.185  -1.294  0.00  0.00     0.011 A 
BRANCH   9  12
ATOM     12  N   UNL d   1      21.031 -18.599  -0.009  0.00  0.00    -0.303 N 
ATOM     13  C   UNL d   1      20.245 -19.370  -0.841  0.00  0.00     0.364 C 
ATOM     14  O   UNL d   1      20.531 -19.699  -1.993  0.00  0.00    -0.238 OA
ATOM     15  H   UNL d   1      20.774 -18.576   0.969  0.00  0.00     0.171 HD
BRANCH  13  16
ATOM     16  O   UNL d   1      19.113 -19.793  -0.211  0.00  0.00    -0.309 OA
ATOM     17  C   UNL d   1      19.375 -20.607   0.945  0.00  0.00     0.215 C 
ENDBRANCH  13  16
ENDBRANCH   9  12
ENDBRANCH   5   6
ENDBRANCH   1   5
BRANCH   2  18
ATOM     18  C   UNL d   1      25.906 -12.748  -3.124  0.00  0.00     0.313 C 
ATOM     19  O   UNL d   1      26.488 -12.297  -2.143  0.00  0.00    -0.262 OA
ATOM     20  N   UNL d   1      25.367 -12.006  -4.174  0.00  0.00    -0.319 N 
ATOM     21  H   UNL d   1      24.766 -12.498  -4.830  0.00  0.00     0.169 HD
BRANCH  20  22
ATOM     22  C   UNL d   1      25.529 -10.603  -4.299  0.00  0.00     0.038 A 
ATOM     23  C   UNL d   1      25.752 -10.015  -5.550  0.00  0.00     0.053 A 
ATOM     24  C   UNL d   1      25.984  -8.632  -5.640  0.00  0.00     0.037 A 
ATOM     25 CL   UNL d   1      26.389  -7.924  -7.158  0.00  0.00    -0.084 Cl
ATOM     26  C   UNL d   1      25.952  -7.821  -4.509  0.00  0.00     0.048 A 
ATOM     27  C   UNL d   1      25.747  -8.412  -3.269  0.00  0.00     0.037 A 
ATOM     28 CL   UNL d   1      25.826  -7.453  -1.842  0.00  0.00    -0.084 Cl
ATOM     29  C   UNL d   1      25.535  -9.788  -3.162  0.00  0.00     0.053 A 
ENDBRANCH  20  22
ENDBRANCH   2  18
TORSDOF 6
ENDMDL
MODEL 7
REMARK VINA RESULT:    -8.541      6.632      8.484
REMARK INTER + INTRA:         -12.141
REMARK INTER:                 -10.331
REMARK INTRA:                  -1.810
REMARK CONF_INDEPENDENT:        1.790
REMARK UNBOUND:                -1.810
REMARK  6 active torsions:
REMARK  status: ('A' for Active; 'I' for Inactive)
REMARK    1  A    between atoms: O_2  and  C_3 
REMARK       I    between atoms: C_3  and  N_5 
REMARK    2  A    between atoms: N_5  and  C_6 
REMARK    3  A    between atoms: C_9  and  C_10 
REMARK    4  A    between atoms: C_10  and  N_11 
REMARK       I    between atoms: N_11  and  C_12 
REMARK    5  A    between atoms: C_12  and  C_14 
REMARK       I    between atoms: C_14  and  N_16 
REMARK    6  A    between atoms: N_16  and  C_17 
ROOT
ATOM      1  N   UNL d   1      28.351 -15.697   0.952  0.00  0.00    -0.349 N 
ATOM      2  C   UNL d   1      27.677 -14.665   1.578  0.00  0.00     0.309 C 
ATOM      3  O   UNL d   1      26.628 -14.161   1.207  0.00  0.00    -0.262 OA
ATOM      4  H   UNL d   1      29.181 -16.014   1.439  0.00  0.00     0.163 HD
ENDROOT
BRANCH   1   5
ATOM      5  C   UNL d   1      27.906 -16.351  -0.272  0.00  0.00     0.161 C 
BRANCH   5   6
ATOM      6  C   UNL d   1      26.447 -16.792  -0.300  0.00  0.00    -0.040 A 
ATOM      7  C   UNL d   1      25.480 -16.009  -0.968  0.00  0.00     0.011 A 
ATOM      8  C   UNL d   1      24.102 -16.311  -0.886  0.00  0.00     0.030 A 
ATOM      9  C   UNL d   1      23.665 -17.417  -0.154  0.00  0.00     0.036 A 
ATOM     10  C   UNL d   1      24.621 -18.229   0.451  0.00  0.00     0.030 A 
ATOM     11  C   UNL d   1      25.985 -17.931   0.367  0.00  0.00     0.011 A 
BRANCH   9  12
ATOM     12  N   UNL d   1      22.293 -17.733  -0.046  0.00  0.00    -0.303 N 
ATOM     13  C   UNL d   1      21.656 -18.611  -0.899  0.00  0.00     0.364 C 
ATOM     14  O   UNL d   1      22.194 -19.237  -1.813  0.00  0.00    -0.238 OA
ATOM     15  H   UNL d   1      21.781 -17.446   0.778  0.00  0.00     0.171 HD
BRANCH  13  16
ATOM     16  O   UNL d   1      20.341 -18.762  -0.574  0.00  0.00    -0.309 OA
ATOM     17  C   UNL d   1      20.110 -19.803   0.392  0.00  0.00     0.215 C 
ENDBRANCH  13  16
ENDBRANCH   9  12
ENDBRANCH   5   6
ENDBRANCH   1   5
BRANCH   2  18
ATOM     18  C   UNL d   1      28.390 -14.155   2.867  0.00  0.00     0.313 C 
ATOM     19  O   UNL d   1      29.571 -14.449   3.024  0.00  0.00    -0.262 OA
ATOM     20  N   UNL d   1      27.592 -13.443   3.762  0.00  0.00    -0.319 N 
ATOM     21  H   UNL d   1      26.593 -13.422   3.577  0.00  0.00     0.169 HD
BRANCH  20  22
ATOM     22  C   UNL d   1      28.092 -12.854   4.951  0.00  0.00     0.038 A 
ATOM     23  C   UNL d   1      28.323 -13.629   6.093  0.00  0.00     0.053 A 
ATOM     24  C   UNL d   1      28.747 -13.011   7.282  0.00  0.00     0.037 A 
ATOM     25 CL   UNL d   1      28.907 -13.939   8.725  0.00  0.00    -0.084 Cl
ATOM     26  C   UNL d   1      28.986 -11.641   7.336  0.00  0.00     0.048 A 
ATOM     27  C   UNL d   1      28.738 -10.874   6.204  0.00  0.00     0.037 A 
ATOM     28 CL   UNL d   1      28.906  -9.163   6.278  0.00  0.00    -0.084 Cl
ATOM     29  C   UNL d   1      28.297 -11.472   5.021  0.00  0.00     0.053 A 
ENDBRANCH  20  22
ENDBRANCH   2  18
TORSDOF 6
ENDMDL
MODEL 8
REMARK VINA RESULT:    -8.537      3.526      4.412
REMARK INTER + INTRA:         -12.084
REMARK INTER:                 -10.327
REMARK INTRA:                  -1.757
REMARK CONF_INDEPENDENT:        1.790
REMARK UNBOUND:                -1.757
REMARK  6 active torsions:
REMARK  status: ('A' for Active; 'I' for Inactive)
REMARK    1  A    between atoms: O_2  and  C_3 
REMARK       I    between atoms: C_3  and  N_5 
REMARK    2  A    between atoms: N_5  and  C_6 
REMARK    3  A    between atoms: C_9  and  C_10 
REMARK    4  A    between atoms: C_10  and  N_11 
REMARK       I    between atoms: N_11  and  C_12 
REMARK    5  A    between atoms: C_12  and  C_14 
REMARK       I    between atoms: C_14  and  N_16 
REMARK    6  A    between atoms: N_16  and  C_17 
ROOT
ATOM      1  N   UNL d   1      25.765 -15.384  -2.176  0.00  0.00    -0.349 N 
ATOM      2  C   UNL d   1      25.977 -14.024  -2.050  0.00  0.00     0.309 C 
ATOM      3  O   UNL d   1      26.279 -13.435  -1.024  0.00  0.00    -0.262 OA
ATOM      4  H   UNL d   1      25.571 -15.694  -3.122  0.00  0.00     0.163 HD
ENDROOT
BRANCH   1   5
ATOM      5  C   UNL d   1      25.869 -16.341  -1.082  0.00  0.00     0.161 C 
BRANCH   5   6
ATOM      6  C   UNL d   1      24.644 -17.217  -0.844  0.00  0.00    -0.040 A 
ATOM      7  C   UNL d   1      23.349 -16.656  -0.889  0.00  0.00     0.011 A 
ATOM      8  C   UNL d   1      22.207 -17.406  -0.528  0.00  0.00     0.030 A 
ATOM      9  C   UNL d   1      22.335 -18.741  -0.137  0.00  0.00     0.036 A 
ATOM     10  C   UNL d   1      23.603 -19.316  -0.155  0.00  0.00     0.030 A 
ATOM     11  C   UNL d   1      24.733 -18.574  -0.515  0.00  0.00     0.011 A 
BRANCH   9  12
ATOM     12  N   UNL d   1      21.212 -19.508   0.242  0.00  0.00    -0.303 N 
ATOM     13  C   UNL d   1      20.247 -19.917  -0.656  0.00  0.00     0.364 C 
ATOM     14  O   UNL d   1      20.260 -19.702  -1.868  0.00  0.00    -0.238 OA
ATOM     15  H   UNL d   1      21.182 -19.923   1.164  0.00  0.00     0.171 HD
BRANCH  13  16
ATOM     16  O   UNL d   1      19.279 -20.661  -0.048  0.00  0.00    -0.309 OA
ATOM     17  C   UNL d   1      18.893 -20.150   1.239  0.00  0.00     0.215 C 
ENDBRANCH  13  16
ENDBRANCH   9  12
ENDBRANCH   5   6
ENDBRANCH   1   5
BRANCH   2  18
ATOM     18  C   UNL d   1      25.790 -13.244  -3.386  0.00  0.00     0.313 C 
ATOM     19  O   UNL d   1      25.444 -13.878  -4.378  0.00  0.00    -0.262 OA
ATOM     20  N   UNL d   1      26.089 -11.883  -3.343  0.00  0.00    -0.319 N 
ATOM     21  H   UNL d   1      26.525 -11.530  -2.495  0.00  0.00     0.169 HD
BRANCH  20  22
ATOM     22  C   UNL d   1      25.914 -11.012  -4.448  0.00  0.00     0.038 A 
ATOM     23  C   UNL d   1      26.287 -11.406  -5.738  0.00  0.00     0.053 A 
ATOM     24  C   UNL d   1      26.174 -10.500  -6.806  0.00  0.00     0.037 A 
ATOM     25 CL   UNL d   1      26.753 -10.934  -8.370  0.00  0.00    -0.084 Cl
ATOM     26  C   UNL d   1      25.654  -9.223  -6.614  0.00  0.00     0.048 A 
ATOM     27  C   UNL d   1      25.302  -8.831  -5.329  0.00  0.00     0.037 A 
ATOM     28 CL   UNL d   1      24.774  -7.218  -5.042  0.00  0.00    -0.084 Cl
ATOM     29  C   UNL d   1      25.428  -9.715  -4.255  0.00  0.00     0.053 A 
ENDBRANCH  20  22
ENDBRANCH   2  18
TORSDOF 6
ENDMDL
MODEL 9
REMARK VINA RESULT:    -8.529      3.500      4.590
REMARK INTER + INTRA:         -12.093
REMARK INTER:                 -10.318
REMARK INTRA:                  -1.775
REMARK CONF_INDEPENDENT:        1.790
REMARK UNBOUND:                -1.775
REMARK  6 active torsions:
REMARK  status: ('A' for Active; 'I' for Inactive)
REMARK    1  A    between atoms: O_2  and  C_3 
REMARK       I    between atoms: C_3  and  N_5 
REMARK    2  A    between atoms: N_5  and  C_6 
REMARK    3  A    between atoms: C_9  and  C_10 
REMARK    4  A    between atoms: C_10  and  N_11 
REMARK       I    between atoms: N_11  and  C_12 
REMARK    5  A    between atoms: C_12  and  C_14 
REMARK       I    between atoms: C_14  and  N_16 
REMARK    6  A    between atoms: N_16  and  C_17 
ROOT
ATOM      1  N   UNL d   1      26.102 -15.165  -2.108  0.00  0.00    -0.349 N 
ATOM      2  C   UNL d   1      25.821 -14.794  -3.410  0.00  0.00     0.309 C 
ATOM      3  O   UNL d   1      25.530 -15.547  -4.326  0.00  0.00    -0.262 OA
ATOM      4  H   UNL d   1      26.272 -14.391  -1.476  0.00  0.00     0.163 HD
ENDROOT
BRANCH   1   5
ATOM      5  C   UNL d   1      26.098 -16.540  -1.622  0.00  0.00     0.161 C 
BRANCH   5   6
ATOM      6  C   UNL d   1      24.764 -17.056  -1.094  0.00  0.00    -0.040 A 
ATOM      7  C   UNL d   1      24.679 -18.338  -0.510  0.00  0.00     0.011 A 
ATOM      8  C   UNL d   1      23.435 -18.903  -0.148  0.00  0.00     0.030 A 
ATOM      9  C   UNL d   1      22.252 -18.186  -0.341  0.00  0.00     0.036 A 
ATOM     10  C   UNL d   1      22.339 -16.895  -0.856  0.00  0.00     0.030 A 
ATOM     11  C   UNL d   1      23.571 -16.336  -1.212  0.00  0.00     0.011 A 
BRANCH   9  12
ATOM     12  N   UNL d   1      20.996 -18.733  -0.000  0.00  0.00    -0.303 N 
ATOM     13  C   UNL d   1      20.217 -19.437  -0.895  0.00  0.00     0.364 C 
ATOM     14  O   UNL d   1      20.524 -19.700  -2.058  0.00  0.00    -0.238 OA
ATOM     15  H   UNL d   1      20.716 -18.765   0.972  0.00  0.00     0.171 HD
BRANCH  13  16
ATOM     16  O   UNL d   1      19.064 -19.878  -0.318  0.00  0.00    -0.309 OA
ATOM     17  C   UNL d   1      19.278 -20.881   0.691  0.00  0.00     0.215 C 
ENDBRANCH  13  16
ENDBRANCH   9  12
ENDBRANCH   5   6
ENDBRANCH   1   5
BRANCH   2  18
ATOM     18  C   UNL d   1      25.907 -13.255  -3.644  0.00  0.00     0.313 C 
ATOM     19  O   UNL d   1      25.932 -12.525  -2.658  0.00  0.00    -0.262 OA
ATOM     20  N   UNL d   1      25.894 -12.841  -4.975  0.00  0.00    -0.319 N 
ATOM     21  H   UNL d   1      25.700 -13.549  -5.679  0.00  0.00     0.169 HD
BRANCH  20  22
ATOM     22  C   UNL d   1      26.029 -11.487  -5.370  0.00  0.00     0.038 A 
ATOM     23  C   UNL d   1      25.659 -10.447  -4.508  0.00  0.00     0.053 A 
ATOM     24  C   UNL d   1      25.731  -9.115  -4.949  0.00  0.00     0.037 A 
ATOM     25 CL   UNL d   1      25.155  -7.842  -3.940  0.00  0.00    -0.084 Cl
ATOM     26  C   UNL d   1      26.208  -8.801  -6.219  0.00  0.00     0.048 A 
ATOM     27  C   UNL d   1      26.556  -9.837  -7.076  0.00  0.00     0.037 A 
ATOM     28 CL   UNL d   1      27.030  -9.485  -8.692  0.00  0.00    -0.084 Cl
ATOM     29  C   UNL d   1      26.471 -11.167  -6.659  0.00  0.00     0.053 A 
ENDBRANCH  20  22
ENDBRANCH   2  18
TORSDOF 6
ENDMDL
