MODEL 1
REMARK VINA RESULT:    -8.229      0.000      0.000
REMARK INTER + INTRA:         -11.128
REMARK INTER:                 -10.019
REMARK INTRA:                  -1.109
REMARK CONF_INDEPENDENT:        1.790
REMARK UNBOUND:                -1.109
REMARK  6 active torsions:
REMARK  status: ('A' for Active; 'I' for Inactive)
REMARK    1  A    between atoms: C_4  and  N_5 
REMARK       I    between atoms: N_5  and  C_6 
REMARK    2  A    between atoms: C_6  and  C_8 
REMARK       I    between atoms: C_8  and  N_10 
REMARK    3  A    between atoms: N_10  and  C_11 
REMARK    4  A    between atoms: C_11  and  C_12 
REMARK    5  A    between atoms: C_20  and  C_21 
REMARK       I    between atoms: C_21  and  N_23 
REMARK    6  A    between atoms: N_23  and  C_24 
ROOT
ATOM      1  N   UNL d   1      28.444 -17.505  -0.074  0.00  0.00    -0.319 N 
ATOM      2  C   UNL d   1      29.328 -17.147  -1.090  0.00  0.00     0.313 C 
ATOM      3  O   UNL d   1      29.053 -16.767  -2.226  0.00  0.00    -0.262 OA
ATOM      4  H   UNL d   1      28.872 -17.795   0.800  0.00  0.00     0.169 HD
ENDROOT
BRANCH   1   5
ATOM      5  C   UNL d   1      27.022 -17.503  -0.168  0.00  0.00     0.035 A 
ATOM      6  C   UNL d   1      26.370 -16.587  -1.008  0.00  0.00     0.037 A 
ATOM      7  C   UNL d   1      24.949 -16.554  -1.135  0.00  0.00    -0.044 A 
ATOM      8  C   UNL d   1      24.363 -15.542  -2.073  0.00  0.00     0.049 C 
ATOM      9  C   UNL d   1      24.152 -17.460  -0.400  0.00  0.00     0.038 A 
ATOM     10  C   UNL d   1      24.820 -18.363   0.444  0.00  0.00     0.020 A 
ATOM     11  C   UNL d   1      26.219 -18.386   0.549  0.00  0.00     0.030 A 
BRANCH   9  12
ATOM     12  C   UNL d   1      22.638 -17.589  -0.422  0.00  0.00     0.252 C 
ATOM     13  O   UNL d   1      21.967 -16.675  -0.895  0.00  0.00    -0.268 OA
ATOM     14  N   UNL d   1      22.043 -18.729   0.080  0.00  0.00    -0.353 N 
ATOM     15  H   UNL d   1      22.573 -19.469   0.478  0.00  0.00     0.163 HD
BRANCH  14  16
ATOM     16  C   UNL d   1      20.619 -19.011   0.074  0.00  0.00     0.076 C 
ATOM     17  C   UNL d   1      20.204 -19.584  -1.272  0.00  0.00     0.032 C 
ATOM     18  C   UNL d   1      20.293 -20.027   1.180  0.00  0.00     0.032 C 
ENDBRANCH  14  16
ENDBRANCH   9  12
ENDBRANCH   1   5
BRANCH   2  19
ATOM     19  C   UNL d   1      30.849 -17.235  -0.748  0.00  0.00     0.309 C 
ATOM     20  O   UNL d   1      31.606 -16.296  -0.953  0.00  0.00    -0.262 OA
ATOM     21  N   UNL d   1      31.180 -18.457  -0.213  0.00  0.00    -0.348 N 
ATOM     22  H   UNL d   1      30.378 -19.061  -0.143  0.00  0.00     0.163 HD
BRANCH  21  23
ATOM     23  C   UNL d   1      32.486 -18.911   0.228  0.00  0.00     0.169 C 
BRANCH  23  24
ATOM     24  C   UNL d   1      32.456 -19.670   1.555  0.00  0.00     0.006 A 
ATOM     25  S   UNL d   1      33.231 -18.933   2.923  0.00  0.00    -0.104 SA
ATOM     26  C   UNL d   1      32.840 -20.231   3.963  0.00  0.00     0.051 A 
ATOM     27  C   UNL d   1      32.134 -21.206   3.306  0.00  0.00     0.015 A 
ATOM     28  C   UNL d   1      31.906 -20.897   1.924  0.00  0.00    -0.047 A 
ATOM     29  C   UNL d   1      31.158 -21.830   1.040  0.00  0.00     0.049 C 
ENDBRANCH  23  24
ENDBRANCH  21  23
ENDBRANCH   2  19
TORSDOF 6
ENDMDL
MODEL 2
REMARK VINA RESULT:    -7.621      4.159      4.756
REMARK INTER + INTRA:         -11.153
REMARK INTER:                  -9.411
REMARK INTRA:                  -1.742
REMARK CONF_INDEPENDENT:        1.790
REMARK UNBOUND:                -1.742
REMARK  6 active torsions:
REMARK  status: ('A' for Active; 'I' for Inactive)
REMARK    1  A    between atoms: C_4  and  N_5 
REMARK       I    between atoms: N_5  and  C_6 
REMARK    2  A    between atoms: C_6  and  C_8 
REMARK       I    between atoms: C_8  and  N_10 
REMARK    3  A    between atoms: N_10  and  C_11 
REMARK    4  A    between atoms: C_11  and  C_12 
REMARK    5  A    between atoms: C_20  and  C_21 
REMARK       I    between atoms: C_21  and  N_23 
REMARK    6  A    between atoms: N_23  and  C_24 
ROOT
ATOM      1  N   UNL d   1      27.181 -16.461   0.308  0.00  0.00    -0.319 N 
ATOM      2  C   UNL d   1      27.369 -15.160   0.768  0.00  0.00     0.313 C 
ATOM      3  O   UNL d   1      26.508 -14.325   1.034  0.00  0.00    -0.262 OA
ATOM      4  H   UNL d   1      28.028 -16.997   0.143  0.00  0.00     0.169 HD
ENDROOT
BRANCH   1   5
ATOM      5  C   UNL d   1      25.924 -17.081   0.052  0.00  0.00     0.035 A 
ATOM      6  C   UNL d   1      24.804 -16.301  -0.275  0.00  0.00     0.037 A 
ATOM      7  C   UNL d   1      23.528 -16.881  -0.544  0.00  0.00    -0.044 A 
ATOM      8  C   UNL d   1      22.407 -15.950  -0.895  0.00  0.00     0.049 C 
ATOM      9  C   UNL d   1      23.362 -18.283  -0.484  0.00  0.00     0.038 A 
ATOM     10  C   UNL d   1      24.490 -19.048  -0.146  0.00  0.00     0.020 A 
ATOM     11  C   UNL d   1      25.738 -18.460   0.107  0.00  0.00     0.030 A 
BRANCH   9  12
ATOM     12  C   UNL d   1      22.096 -19.077  -0.758  0.00  0.00     0.252 C 
ATOM     13  O   UNL d   1      21.786 -19.325  -1.922  0.00  0.00    -0.268 OA
ATOM     14  N   UNL d   1      21.321 -19.513   0.298  0.00  0.00    -0.353 N 
ATOM     15  H   UNL d   1      21.553 -19.307   1.241  0.00  0.00     0.163 HD
BRANCH  14  16
ATOM     16  C   UNL d   1      20.122 -20.323   0.188  0.00  0.00     0.076 C 
ATOM     17  C   UNL d   1      19.441 -20.441   1.542  0.00  0.00     0.032 C 
ATOM     18  C   UNL d   1      19.154 -19.673  -0.812  0.00  0.00     0.032 C 
ENDBRANCH  14  16
ENDBRANCH   9  12
ENDBRANCH   1   5
BRANCH   2  19
ATOM     19  C   UNL d   1      28.849 -14.703   0.969  0.00  0.00     0.309 C 
ATOM     20  O   UNL d   1      29.724 -14.996   0.166  0.00  0.00    -0.262 OA
ATOM     21  N   UNL d   1      29.001 -13.964   2.118  0.00  0.00    -0.348 N 
ATOM     22  H   UNL d   1      28.130 -13.859   2.611  0.00  0.00     0.163 HD
BRANCH  21  23
ATOM     23  C   UNL d   1      30.218 -13.368   2.639  0.00  0.00     0.169 C 
BRANCH  23  24
ATOM     24  C   UNL d   1      30.166 -13.078   4.139  0.00  0.00     0.006 A 
ATOM     25  S   UNL d   1      31.109 -11.748   4.735  0.00  0.00    -0.104 SA
ATOM     26  C   UNL d   1      30.614 -11.998   6.350  0.00  0.00     0.051 A 
ATOM     27  C   UNL d   1      29.749 -13.058   6.452  0.00  0.00     0.015 A 
ATOM     28  C   UNL d   1      29.484 -13.686   5.191  0.00  0.00    -0.047 A 
ATOM     29  C   UNL d   1      28.570 -14.856   5.091  0.00  0.00     0.049 C 
ENDBRANCH  23  24
ENDBRANCH  21  23
ENDBRANCH   2  19
TORSDOF 6
ENDMDL
MODEL 3
REMARK VINA RESULT:    -7.456      3.583      9.586
REMARK INTER + INTRA:         -11.383
REMARK INTER:                  -9.246
REMARK INTRA:                  -2.138
REMARK CONF_INDEPENDENT:        1.790
REMARK UNBOUND:                -2.138
REMARK  6 active torsions:
REMARK  status: ('A' for Active; 'I' for Inactive)
REMARK    1  A    between atoms: C_4  and  N_5 
REMARK       I    between atoms: N_5  and  C_6 
REMARK    2  A    between atoms: C_6  and  C_8 
REMARK       I    between atoms: C_8  and  N_10 
REMARK    3  A    between atoms: N_10  and  C_11 
REMARK    4  A    between atoms: C_11  and  C_12 
REMARK    5  A    between atoms: C_20  and  C_21 
REMARK       I    between atoms: C_21  and  N_23 
REMARK    6  A    between atoms: N_23  and  C_24 
ROOT
ATOM      1  N   UNL d   1      24.360 -16.760  -1.046  0.00  0.00    -0.319 N 
ATOM      2  C   UNL d   1      23.523 -17.840  -0.777  0.00  0.00     0.313 C 
ATOM      3  O   UNL d   1      23.848 -18.990  -0.491  0.00  0.00    -0.262 OA
ATOM      4  H   UNL d   1      23.894 -15.884  -1.266  0.00  0.00     0.169 HD
ENDROOT
BRANCH   1   5
ATOM      5  C   UNL d   1      25.785 -16.789  -1.045  0.00  0.00     0.035 A 
ATOM      6  C   UNL d   1      26.509 -16.056  -1.998  0.00  0.00     0.037 A 
ATOM      7  C   UNL d   1      27.935 -16.053  -2.029  0.00  0.00    -0.044 A 
ATOM      8  C   UNL d   1      28.601 -15.222  -3.084  0.00  0.00     0.049 C 
ATOM      9  C   UNL d   1      28.665 -16.807  -1.082  0.00  0.00     0.038 A 
ATOM     10  C   UNL d   1      27.925 -17.543  -0.142  0.00  0.00     0.020 A 
ATOM     11  C   UNL d   1      26.522 -17.526  -0.122  0.00  0.00     0.030 A 
BRANCH   9  12
ATOM     12  C   UNL d   1      30.175 -16.909  -0.945  0.00  0.00     0.252 C 
ATOM     13  O   UNL d   1      30.858 -17.057  -1.956  0.00  0.00    -0.268 OA
ATOM     14  N   UNL d   1      30.754 -16.824   0.305  0.00  0.00    -0.353 N 
ATOM     15  H   UNL d   1      30.212 -16.718   1.131  0.00  0.00     0.163 HD
BRANCH  14  16
ATOM     16  C   UNL d   1      32.179 -16.849   0.579  0.00  0.00     0.076 C 
ATOM     17  C   UNL d   1      32.589 -15.600   1.343  0.00  0.00     0.032 C 
ATOM     18  C   UNL d   1      32.518 -18.091   1.418  0.00  0.00     0.032 C 
ENDBRANCH  14  16
ENDBRANCH   9  12
ENDBRANCH   1   5
BRANCH   2  19
ATOM     19  C   UNL d   1      21.988 -17.561  -0.844  0.00  0.00     0.309 C 
ATOM     20  O   UNL d   1      21.547 -16.420  -0.895  0.00  0.00    -0.262 OA
ATOM     21  N   UNL d   1      21.258 -18.725  -0.840  0.00  0.00    -0.348 N 
ATOM     22  H   UNL d   1      21.853 -19.536  -0.795  0.00  0.00     0.163 HD
BRANCH  21  23
ATOM     23  C   UNL d   1      19.815 -18.872  -0.895  0.00  0.00     0.169 C 
BRANCH  23  24
ATOM     24  C   UNL d   1      19.248 -19.774   0.201  0.00  0.00     0.006 A 
ATOM     25  S   UNL d   1      17.932 -20.825  -0.221  0.00  0.00    -0.104 SA
ATOM     26  C   UNL d   1      17.820 -21.472   1.356  0.00  0.00     0.051 A 
ATOM     27  C   UNL d   1      18.755 -20.919   2.194  0.00  0.00     0.015 A 
ATOM     28  C   UNL d   1      19.580 -19.943   1.544  0.00  0.00    -0.047 A 
ATOM     29  C   UNL d   1      20.655 -19.228   2.284  0.00  0.00     0.049 C 
ENDBRANCH  23  24
ENDBRANCH  21  23
ENDBRANCH   2  19
TORSDOF 6
ENDMDL
MODEL 4
REMARK VINA RESULT:    -7.456      1.958      2.657
REMARK INTER + INTRA:         -11.228
REMARK INTER:                  -9.246
REMARK INTRA:                  -1.983
REMARK CONF_INDEPENDENT:        1.790
REMARK UNBOUND:                -1.983
REMARK  6 active torsions:
REMARK  status: ('A' for Active; 'I' for Inactive)
REMARK    1  A    between atoms: C_4  and  N_5 
REMARK       I    between atoms: N_5  and  C_6 
REMARK    2  A    between atoms: C_6  and  C_8 
REMARK       I    between atoms: C_8  and  N_10 
REMARK    3  A    between atoms: N_10  and  C_11 
REMARK    4  A    between atoms: C_11  and  C_12 
REMARK    5  A    between atoms: C_20  and  C_21 
REMARK       I    between atoms: C_21  and  N_23 
REMARK    6  A    between atoms: N_23  and  C_24 
ROOT
ATOM      1  N   UNL d   1      27.031 -16.341  -0.136  0.00  0.00    -0.319 N 
ATOM      2  C   UNL d   1      28.267 -16.983  -0.148  0.00  0.00     0.313 C 
ATOM      3  O   UNL d   1      28.488 -18.188  -0.242  0.00  0.00    -0.262 OA
ATOM      4  H   UNL d   1      27.060 -15.329  -0.048  0.00  0.00     0.169 HD
ENDROOT
BRANCH   1   5
ATOM      5  C   UNL d   1      25.760 -16.979  -0.228  0.00  0.00     0.035 A 
ATOM      6  C   UNL d   1      24.607 -16.225  -0.492  0.00  0.00     0.037 A 
ATOM      7  C   UNL d   1      23.316 -16.824  -0.597  0.00  0.00    -0.044 A 
ATOM      8  C   UNL d   1      22.158 -15.920  -0.895  0.00  0.00     0.049 C 
ATOM      9  C   UNL d   1      23.169 -18.220  -0.432  0.00  0.00     0.038 A 
ATOM     10  C   UNL d   1      24.332 -18.958  -0.159  0.00  0.00     0.020 A 
ATOM     11  C   UNL d   1      25.593 -18.353  -0.067  0.00  0.00     0.030 A 
BRANCH   9  12
ATOM     12  C   UNL d   1      21.889 -19.033  -0.530  0.00  0.00     0.252 C 
ATOM     13  O   UNL d   1      21.452 -19.327  -1.640  0.00  0.00    -0.268 OA
ATOM     14  N   UNL d   1      21.246 -19.435   0.623  0.00  0.00    -0.353 N 
ATOM     15  H   UNL d   1      21.581 -19.192   1.526  0.00  0.00     0.163 HD
BRANCH  14  16
ATOM     16  C   UNL d   1      20.052 -20.258   0.681  0.00  0.00     0.076 C 
ATOM     17  C   UNL d   1      19.446 -20.207   2.074  0.00  0.00     0.032 C 
ATOM     18  C   UNL d   1      19.024 -19.743  -0.339  0.00  0.00     0.032 C 
ENDBRANCH  14  16
ENDBRANCH   9  12
ENDBRANCH   1   5
BRANCH   2  19
ATOM     19  C   UNL d   1      29.526 -16.065  -0.029  0.00  0.00     0.309 C 
ATOM     20  O   UNL d   1      29.513 -14.908  -0.427  0.00  0.00    -0.262 OA
ATOM     21  N   UNL d   1      30.580 -16.721   0.559  0.00  0.00    -0.348 N 
ATOM     22  H   UNL d   1      30.340 -17.668   0.801  0.00  0.00     0.163 HD
BRANCH  21  23
ATOM     23  C   UNL d   1      31.906 -16.202   0.841  0.00  0.00     0.169 C 
BRANCH  23  24
ATOM     24  C   UNL d   1      32.910 -17.277   1.259  0.00  0.00     0.006 A 
ATOM     25  S   UNL d   1      32.630 -18.899   0.709  0.00  0.00    -0.104 SA
ATOM     26  C   UNL d   1      34.020 -19.506   1.493  0.00  0.00     0.051 A 
ATOM     27  C   UNL d   1      34.696 -18.514   2.157  0.00  0.00     0.015 A 
ATOM     28  C   UNL d   1      34.070 -17.230   2.031  0.00  0.00    -0.047 A 
ATOM     29  C   UNL d   1      34.649 -16.024   2.680  0.00  0.00     0.049 C 
ENDBRANCH  23  24
ENDBRANCH  21  23
ENDBRANCH   2  19
TORSDOF 6
ENDMDL
MODEL 5
REMARK VINA RESULT:    -7.321      7.381      9.782
REMARK INTER + INTRA:         -11.151
REMARK INTER:                  -9.111
REMARK INTRA:                  -2.039
REMARK CONF_INDEPENDENT:        1.790
REMARK UNBOUND:                -2.039
REMARK  6 active torsions:
REMARK  status: ('A' for Active; 'I' for Inactive)
REMARK    1  A    between atoms: C_4  and  N_5 
REMARK       I    between atoms: N_5  and  C_6 
REMARK    2  A    between atoms: C_6  and  C_8 
REMARK       I    between atoms: C_8  and  N_10 
REMARK    3  A    between atoms: N_10  and  C_11 
REMARK    4  A    between atoms: C_11  and  C_12 
REMARK    5  A    between atoms: C_20  and  C_21 
REMARK       I    between atoms: C_21  and  N_23 
REMARK    6  A    between atoms: N_23  and  C_24 
ROOT
ATOM      1  N   UNL d   1      28.446 -14.555   3.413  0.00  0.00    -0.319 N 
ATOM      2  C   UNL d   1      27.609 -14.129   2.384  0.00  0.00     0.313 C 
ATOM      3  O   UNL d   1      26.847 -13.165   2.385  0.00  0.00    -0.262 OA
ATOM      4  H   UNL d   1      29.002 -15.383   3.215  0.00  0.00     0.169 HD
ENDROOT
BRANCH   1   5
ATOM      5  C   UNL d   1      28.574 -13.940   4.692  0.00  0.00     0.035 A 
ATOM      6  C   UNL d   1      28.509 -12.543   4.815  0.00  0.00     0.037 A 
ATOM      7  C   UNL d   1      28.628 -11.887   6.076  0.00  0.00    -0.044 A 
ATOM      8  C   UNL d   1      28.530 -10.391   6.088  0.00  0.00     0.049 C 
ATOM      9  C   UNL d   1      28.819 -12.646   7.253  0.00  0.00     0.038 A 
ATOM     10  C   UNL d   1      28.891 -14.041   7.111  0.00  0.00     0.020 A 
ATOM     11  C   UNL d   1      28.764 -14.669   5.863  0.00  0.00     0.030 A 
BRANCH   9  12
ATOM     12  C   UNL d   1      28.943 -12.130   8.677  0.00  0.00     0.252 C 
ATOM     13  O   UNL d   1      29.340 -10.982   8.864  0.00  0.00    -0.268 OA
ATOM     14  N   UNL d   1      28.602 -12.951   9.733  0.00  0.00    -0.353 N 
ATOM     15  H   UNL d   1      28.294 -13.885   9.595  0.00  0.00     0.163 HD
BRANCH  14  16
ATOM     16  C   UNL d   1      28.618 -12.575  11.134  0.00  0.00     0.076 C 
ATOM     17  C   UNL d   1      28.155 -13.739  11.996  0.00  0.00     0.032 C 
ATOM     18  C   UNL d   1      30.045 -12.178  11.543  0.00  0.00     0.032 C 
ENDBRANCH  14  16
ENDBRANCH   9  12
ENDBRANCH   1   5
BRANCH   2  19
ATOM     19  C   UNL d   1      27.640 -14.973   1.070  0.00  0.00     0.309 C 
ATOM     20  O   UNL d   1      28.617 -15.643   0.764  0.00  0.00    -0.262 OA
ATOM     21  N   UNL d   1      26.469 -14.853   0.361  0.00  0.00    -0.348 N 
ATOM     22  H   UNL d   1      25.815 -14.244   0.823  0.00  0.00     0.163 HD
BRANCH  21  23
ATOM     23  C   UNL d   1      26.123 -15.484  -0.899  0.00  0.00     0.169 C 
BRANCH  23  24
ATOM     24  C   UNL d   1      25.115 -16.625  -0.758  0.00  0.00     0.006 A 
ATOM     25  S   UNL d   1      23.483 -16.325  -1.270  0.00  0.00    -0.104 SA
ATOM     26  C   UNL d   1      22.964 -17.898  -0.852  0.00  0.00     0.051 A 
ATOM     27  C   UNL d   1      23.992 -18.647  -0.340  0.00  0.00     0.015 A 
ATOM     28  C   UNL d   1      25.232 -17.929  -0.281  0.00  0.00    -0.047 A 
ATOM     29  C   UNL d   1      26.468 -18.569   0.244  0.00  0.00     0.049 C 
ENDBRANCH  23  24
ENDBRANCH  21  23
ENDBRANCH   2  19
TORSDOF 6
ENDMDL
MODEL 6
REMARK VINA RESULT:    -7.264      2.739      3.792
REMARK INTER + INTRA:         -11.101
REMARK INTER:                  -9.054
REMARK INTRA:                  -2.047
REMARK CONF_INDEPENDENT:        1.790
REMARK UNBOUND:                -2.047
REMARK  6 active torsions:
REMARK  status: ('A' for Active; 'I' for Inactive)
REMARK    1  A    between atoms: C_4  and  N_5 
REMARK       I    between atoms: N_5  and  C_6 
REMARK    2  A    between atoms: C_6  and  C_8 
REMARK       I    between atoms: C_8  and  N_10 
REMARK    3  A    between atoms: N_10  and  C_11 
REMARK    4  A    between atoms: C_11  and  C_12 
REMARK    5  A    between atoms: C_20  and  C_21 
REMARK       I    between atoms: C_21  and  N_23 
REMARK    6  A    between atoms: N_23  and  C_24 
ROOT
ATOM      1  N   UNL d   1      27.005 -16.425  -0.025  0.00  0.00    -0.319 N 
ATOM      2  C   UNL d   1      28.239 -17.050  -0.190  0.00  0.00     0.313 C 
ATOM      3  O   UNL d   1      28.454 -18.225  -0.474  0.00  0.00    -0.262 OA
ATOM      4  H   UNL d   1      27.039 -15.437   0.213  0.00  0.00     0.169 HD
ENDROOT
BRANCH   1   5
ATOM      5  C   UNL d   1      25.731 -17.049  -0.156  0.00  0.00     0.035 A 
ATOM      6  C   UNL d   1      24.591 -16.280  -0.439  0.00  0.00     0.037 A 
ATOM      7  C   UNL d   1      23.298 -16.865  -0.583  0.00  0.00    -0.044 A 
ATOM      8  C   UNL d   1      22.156 -15.946  -0.898  0.00  0.00     0.049 C 
ATOM      9  C   UNL d   1      23.134 -18.261  -0.438  0.00  0.00     0.038 A 
ATOM     10  C   UNL d   1      24.282 -19.015  -0.146  0.00  0.00     0.020 A 
ATOM     11  C   UNL d   1      25.547 -18.422  -0.017  0.00  0.00     0.030 A 
BRANCH   9  12
ATOM     12  C   UNL d   1      21.849 -19.061  -0.578  0.00  0.00     0.252 C 
ATOM     13  O   UNL d   1      21.425 -19.320  -1.702  0.00  0.00    -0.268 OA
ATOM     14  N   UNL d   1      21.185 -19.489   0.555  0.00  0.00    -0.353 N 
ATOM     15  H   UNL d   1      21.509 -19.274   1.468  0.00  0.00     0.163 HD
BRANCH  14  16
ATOM     16  C   UNL d   1      19.984 -20.303   0.572  0.00  0.00     0.076 C 
ATOM     17  C   UNL d   1      19.353 -20.278   1.955  0.00  0.00     0.032 C 
ATOM     18  C   UNL d   1      18.979 -19.757  -0.454  0.00  0.00     0.032 C 
ENDBRANCH  14  16
ENDBRANCH   9  12
ENDBRANCH   1   5
BRANCH   2  19
ATOM     19  C   UNL d   1      29.502 -16.153   0.011  0.00  0.00     0.309 C 
ATOM     20  O   UNL d   1      29.436 -14.933  -0.053  0.00  0.00    -0.262 OA
ATOM     21  N   UNL d   1      30.626 -16.905   0.257  0.00  0.00    -0.348 N 
ATOM     22  H   UNL d   1      30.420 -17.890   0.261  0.00  0.00     0.163 HD
BRANCH  21  23
ATOM     23  C   UNL d   1      31.978 -16.433   0.495  0.00  0.00     0.169 C 
BRANCH  23  24
ATOM     24  C   UNL d   1      32.041 -15.039   1.118  0.00  0.00     0.006 A 
ATOM     25  S   UNL d   1      31.951 -14.923   2.848  0.00  0.00    -0.104 SA
ATOM     26  C   UNL d   1      32.067 -13.220   2.835  0.00  0.00     0.051 A 
ATOM     27  C   UNL d   1      32.177 -12.733   1.557  0.00  0.00     0.015 A 
ATOM     28  C   UNL d   1      32.164 -13.766   0.563  0.00  0.00    -0.047 A 
ATOM     29  C   UNL d   1      32.272 -13.442  -0.885  0.00  0.00     0.049 C 
ENDBRANCH  23  24
ENDBRANCH  21  23
ENDBRANCH   2  19
TORSDOF 6
ENDMDL
MODEL 7
REMARK VINA RESULT:    -7.221      4.032      9.465
REMARK INTER + INTRA:         -11.140
REMARK INTER:                  -9.011
REMARK INTRA:                  -2.129
REMARK CONF_INDEPENDENT:        1.790
REMARK UNBOUND:                -2.129
REMARK  6 active torsions:
REMARK  status: ('A' for Active; 'I' for Inactive)
REMARK    1  A    between atoms: C_4  and  N_5 
REMARK       I    between atoms: N_5  and  C_6 
REMARK    2  A    between atoms: C_6  and  C_8 
REMARK       I    between atoms: C_8  and  N_10 
REMARK    3  A    between atoms: N_10  and  C_11 
REMARK    4  A    between atoms: C_11  and  C_12 
REMARK    5  A    between atoms: C_20  and  C_21 
REMARK       I    between atoms: C_21  and  N_23 
REMARK    6  A    between atoms: N_23  and  C_24 
ROOT
ATOM      1  N   UNL d   1      24.879 -17.912  -0.813  0.00  0.00    -0.319 N 
ATOM      2  C   UNL d   1      23.550 -17.497  -0.874  0.00  0.00     0.313 C 
ATOM      3  O   UNL d   1      23.112 -16.356  -0.747  0.00  0.00    -0.262 OA
ATOM      4  H   UNL d   1      25.036 -18.908  -0.942  0.00  0.00     0.169 HD
ENDROOT
BRANCH   1   5
ATOM      5  C   UNL d   1      26.005 -17.070  -0.584  0.00  0.00     0.035 A 
ATOM      6  C   UNL d   1      25.848 -15.676  -0.534  0.00  0.00     0.037 A 
ATOM      7  C   UNL d   1      26.947 -14.797  -0.302  0.00  0.00    -0.044 A 
ATOM      8  C   UNL d   1      26.658 -13.327  -0.257  0.00  0.00     0.049 C 
ATOM      9  C   UNL d   1      28.246 -15.323  -0.116  0.00  0.00     0.038 A 
ATOM     10  C   UNL d   1      28.387 -16.718  -0.178  0.00  0.00     0.020 A 
ATOM     11  C   UNL d   1      27.292 -17.567  -0.399  0.00  0.00     0.030 A 
BRANCH   9  12
ATOM     12  C   UNL d   1      29.525 -14.551   0.163  0.00  0.00     0.252 C 
ATOM     13  O   UNL d   1      29.833 -13.617  -0.574  0.00  0.00    -0.268 OA
ATOM     14  N   UNL d   1      30.313 -14.904   1.241  0.00  0.00    -0.353 N 
ATOM     15  H   UNL d   1      30.083 -15.664   1.835  0.00  0.00     0.163 HD
BRANCH  14  16
ATOM     16  C   UNL d   1      31.526 -14.224   1.657  0.00  0.00     0.076 C 
ATOM     17  C   UNL d   1      31.459 -13.891   3.139  0.00  0.00     0.032 C 
ATOM     18  C   UNL d   1      32.738 -15.132   1.396  0.00  0.00     0.032 C 
ENDBRANCH  14  16
ENDBRANCH   9  12
ENDBRANCH   1   5
BRANCH   2  19
ATOM     19  C   UNL d   1      22.487 -18.612  -1.133  0.00  0.00     0.309 C 
ATOM     20  O   UNL d   1      22.801 -19.698  -1.602  0.00  0.00    -0.262 OA
ATOM     21  N   UNL d   1      21.225 -18.205  -0.771  0.00  0.00    -0.348 N 
ATOM     22  H   UNL d   1      21.227 -17.267  -0.408  0.00  0.00     0.163 HD
BRANCH  21  23
ATOM     23  C   UNL d   1      19.988 -18.958  -0.860  0.00  0.00     0.169 C 
BRANCH  23  24
ATOM     24  C   UNL d   1      19.619 -19.687   0.433  0.00  0.00     0.006 A 
ATOM     25  S   UNL d   1      20.547 -19.326   1.855  0.00  0.00    -0.104 SA
ATOM     26  C   UNL d   1      19.658 -20.414   2.826  0.00  0.00     0.051 A 
ATOM     27  C   UNL d   1      18.673 -21.041   2.105  0.00  0.00     0.015 A 
ATOM     28  C   UNL d   1      18.640 -20.633   0.732  0.00  0.00    -0.047 A 
ATOM     29  C   UNL d   1      17.642 -21.200  -0.216  0.00  0.00     0.049 C 
ENDBRANCH  23  24
ENDBRANCH  21  23
ENDBRANCH   2  19
TORSDOF 6
ENDMDL
MODEL 8
REMARK VINA RESULT:    -7.167      5.795      9.717
REMARK INTER + INTRA:         -11.096
REMARK INTER:                  -8.957
REMARK INTRA:                  -2.139
REMARK CONF_INDEPENDENT:        1.790
REMARK UNBOUND:                -2.139
REMARK  6 active torsions:
REMARK  status: ('A' for Active; 'I' for Inactive)
REMARK    1  A    between atoms: C_4  and  N_5 
REMARK       I    between atoms: N_5  and  C_6 
REMARK    2  A    between atoms: C_6  and  C_8 
REMARK       I    between atoms: C_8  and  N_10 
REMARK    3  A    between atoms: N_10  and  C_11 
REMARK    4  A    between atoms: C_11  and  C_12 
REMARK    5  A    between atoms: C_20  and  C_21 
REMARK       I    between atoms: C_21  and  N_23 
REMARK    6  A    between atoms: N_23  and  C_24 
ROOT
ATOM      1  N   UNL d   1      25.573 -15.929  -2.328  0.00  0.00    -0.319 N 
ATOM      2  C   UNL d   1      24.353 -16.130  -1.686  0.00  0.00     0.313 C 
ATOM      3  O   UNL d   1      23.319 -15.480  -1.817  0.00  0.00    -0.262 OA
ATOM      4  H   UNL d   1      26.314 -16.578  -2.080  0.00  0.00     0.169 HD
ENDROOT
BRANCH   1   5
ATOM      5  C   UNL d   1      25.856 -14.905  -3.277  0.00  0.00     0.035 A 
ATOM      6  C   UNL d   1      26.808 -15.118  -4.286  0.00  0.00     0.037 A 
ATOM      7  C   UNL d   1      27.117 -14.122  -5.260  0.00  0.00    -0.044 A 
ATOM      8  C   UNL d   1      28.142 -14.467  -6.298  0.00  0.00     0.049 C 
ATOM      9  C   UNL d   1      26.459 -12.872  -5.226  0.00  0.00     0.038 A 
ATOM     10  C   UNL d   1      25.517 -12.671  -4.204  0.00  0.00     0.020 A 
ATOM     11  C   UNL d   1      25.220 -13.666  -3.261  0.00  0.00     0.030 A 
BRANCH   9  12
ATOM     12  C   UNL d   1      26.639 -11.706  -6.184  0.00  0.00     0.252 C 
ATOM     13  O   UNL d   1      25.646 -11.105  -6.588  0.00  0.00    -0.268 OA
ATOM     14  N   UNL d   1      27.910 -11.336  -6.577  0.00  0.00    -0.353 N 
ATOM     15  H   UNL d   1      28.719 -11.821  -6.269  0.00  0.00     0.163 HD
BRANCH  14  16
ATOM     16  C   UNL d   1      28.233 -10.213  -7.439  0.00  0.00     0.076 C 
ATOM     17  C   UNL d   1      27.928 -10.559  -8.888  0.00  0.00     0.032 C 
ATOM     18  C   UNL d   1      27.400  -8.991  -7.023  0.00  0.00     0.032 C 
ENDBRANCH  14  16
ENDBRANCH   9  12
ENDBRANCH   1   5
BRANCH   2  19
ATOM     19  C   UNL d   1      24.289 -17.322  -0.678  0.00  0.00     0.309 C 
ATOM     20  O   UNL d   1      25.295 -17.931  -0.343  0.00  0.00    -0.262 OA
ATOM     21  N   UNL d   1      23.003 -17.560  -0.254  0.00  0.00    -0.348 N 
ATOM     22  H   UNL d   1      22.349 -16.921  -0.673  0.00  0.00     0.163 HD
BRANCH  21  23
ATOM     23  C   UNL d   1      22.547 -18.575   0.678  0.00  0.00     0.169 C 
BRANCH  23  24
ATOM     24  C   UNL d   1      21.146 -19.104   0.372  0.00  0.00     0.006 A 
ATOM     25  S   UNL d   1      20.577 -18.980  -1.263  0.00  0.00    -0.104 SA
ATOM     26  C   UNL d   1      19.072 -19.699  -0.894  0.00  0.00     0.051 A 
ATOM     27  C   UNL d   1      18.988 -20.035   0.433  0.00  0.00     0.015 A 
ATOM     28  C   UNL d   1      20.171 -19.700   1.171  0.00  0.00    -0.047 A 
ATOM     29  C   UNL d   1      20.277 -19.985   2.627  0.00  0.00     0.049 C 
ENDBRANCH  23  24
ENDBRANCH  21  23
ENDBRANCH   2  19
TORSDOF 6
ENDMDL
MODEL 9
REMARK VINA RESULT:    -6.868      7.532     10.207
REMARK INTER + INTRA:         -10.749
REMARK INTER:                  -8.658
REMARK INTRA:                  -2.091
REMARK CONF_INDEPENDENT:        1.790
REMARK UNBOUND:                -2.091
REMARK  6 active torsions:
REMARK  status: ('A' for Active; 'I' for Inactive)
REMARK    1  A    between atoms: C_4  and  N_5 
REMARK       I    between atoms: N_5  and  C_6 
REMARK    2  A    between atoms: C_6  and  C_8 
REMARK       I    between atoms: C_8  and  N_10 
REMARK    3  A    between atoms: N_10  and  C_11 
REMARK    4  A    between atoms: C_11  and  C_12 
REMARK    5  A    between atoms: C_20  and  C_21 
REMARK       I    between atoms: C_21  and  N_23 
REMARK    6  A    between atoms: N_23  and  C_24 
ROOT
ATOM      1  N   UNL d   1      28.198 -14.553   3.413  0.00  0.00    -0.319 N 
ATOM      2  C   UNL d   1      27.494 -14.089   2.303  0.00  0.00     0.313 C 
ATOM      3  O   UNL d   1      26.933 -13.005   2.168  0.00  0.00    -0.262 OA
ATOM      4  H   UNL d   1      28.589 -15.487   3.327  0.00  0.00     0.169 HD
ENDROOT
BRANCH   1   5
ATOM      5  C   UNL d   1      28.399 -13.840   4.630  0.00  0.00     0.035 A 
ATOM      6  C   UNL d   1      29.242 -14.360   5.624  0.00  0.00     0.037 A 
ATOM      7  C   UNL d   1      29.476 -13.676   6.854  0.00  0.00    -0.044 A 
ATOM      8  C   UNL d   1      30.406 -14.321   7.836  0.00  0.00     0.049 C 
ATOM      9  C   UNL d   1      28.847 -12.435   7.103  0.00  0.00     0.038 A 
ATOM     10  C   UNL d   1      27.999 -11.934   6.103  0.00  0.00     0.020 A 
ATOM     11  C   UNL d   1      27.789 -12.617   4.896  0.00  0.00     0.030 A 
BRANCH   9  12
ATOM     12  C   UNL d   1      28.991 -11.556   8.335  0.00  0.00     0.252 C 
ATOM     13  O   UNL d   1      28.157 -11.645   9.233  0.00  0.00    -0.268 OA
ATOM     14  N   UNL d   1      30.055 -10.682   8.429  0.00  0.00    -0.353 N 
ATOM     15  H   UNL d   1      30.728 -10.591   7.704  0.00  0.00     0.163 HD
BRANCH  14  16
ATOM     16  C   UNL d   1      30.347  -9.827   9.565  0.00  0.00     0.076 C 
ATOM     17  C   UNL d   1      31.827  -9.896   9.907  0.00  0.00     0.032 C 
ATOM     18  C   UNL d   1      29.972  -8.377   9.225  0.00  0.00     0.032 C 
ENDBRANCH  14  16
ENDBRANCH   9  12
ENDBRANCH   1   5
BRANCH   2  19
ATOM     19  C   UNL d   1      27.406 -15.060   1.083  0.00  0.00     0.309 C 
ATOM     20  O   UNL d   1      28.228 -15.951   0.914  0.00  0.00    -0.262 OA
ATOM     21  N   UNL d   1      26.325 -14.775   0.283  0.00  0.00    -0.348 N 
ATOM     22  H   UNL d   1      25.797 -13.995   0.637  0.00  0.00     0.163 HD
BRANCH  21  23
ATOM     23  C   UNL d   1      25.913 -15.454  -0.931  0.00  0.00     0.169 C 
BRANCH  23  24
ATOM     24  C   UNL d   1      24.961 -16.624  -0.688  0.00  0.00     0.006 A 
ATOM     25  S   UNL d   1      23.282 -16.390  -1.064  0.00  0.00    -0.104 SA
ATOM     26  C   UNL d   1      22.855 -17.971  -0.580  0.00  0.00     0.051 A 
ATOM     27  C   UNL d   1      23.949 -18.675  -0.144  0.00  0.00     0.015 A 
ATOM     28  C   UNL d   1      25.163 -17.915  -0.201  0.00  0.00    -0.047 A 
ATOM     29  C   UNL d   1      26.460 -18.503   0.228  0.00  0.00     0.049 C 
ENDBRANCH  23  24
ENDBRANCH  21  23
ENDBRANCH   2  19
TORSDOF 6
ENDMDL
