MODEL 1
REMARK VINA RESULT:   -11.830      0.000      0.000
REMARK INTER + INTRA:         -15.736
REMARK INTER:                 -14.515
REMARK INTRA:                  -1.222
REMARK CONF_INDEPENDENT:        2.685
REMARK UNBOUND:                -1.222
REMARK  9 active torsions:
REMARK  status: ('A' for Active; 'I' for Inactive)
REMARK    1  A    between atoms: C_2  and  C_3 
REMARK       I    between atoms: C_2  and  N_25 
REMARK    2  A    between atoms: C_3  and  O_4 
REMARK    3  A    between atoms: O_4  and  C_5 
REMARK    4  A    between atoms: C_5  and  C_7 
REMARK    5  A    between atoms: C_12  and  S_13 
REMARK    6  A    between atoms: S_13  and  N_16 
REMARK    7  A    between atoms: N_16  and  C_17 
REMARK    8  A    between atoms: C_17  and  C_18 
REMARK       I    between atoms: N_25  and  C_26 
REMARK       I    between atoms: C_26  and  N_28 
REMARK    9  A    between atoms: N_28  and  C_29 
ROOT
ATOM      1  C   UNL d   1      25.857 -15.950  -2.860  0.00  0.00     0.041 A 
ATOM      2  C   UNL d   1      27.128 -16.165  -2.327  0.00  0.00     0.019 A 
ATOM      3  C   UNL d   1      27.272 -16.877  -1.132  0.00  0.00     0.026 A 
ATOM      4  C   UNL d   1      26.163 -17.388  -0.439  0.00  0.00     0.057 A 
ATOM      5 CL   UNL d   1      26.584 -18.272   0.980  0.00  0.00    -0.083 Cl
ATOM      6  C   UNL d   1      24.878 -17.148  -0.930  0.00  0.00     0.097 A 
ATOM      7  C   UNL d   1      24.730 -16.412  -2.140  0.00  0.00     0.044 A 
ENDROOT
BRANCH   1   8
ATOM      8  C   UNL d   1      25.704 -15.177  -4.132  0.00  0.00     0.293 C 
ATOM      9  O   UNL d   1      24.786 -14.384  -4.299  0.00  0.00    -0.259 OA
BRANCH   8  10
ATOM     10  O   UNL d   1      26.670 -15.486  -5.046  0.00  0.00    -0.308 OA
BRANCH  10  11
ATOM     11  C   UNL d   1      27.834 -14.620  -5.034  0.00  0.00     0.282 C 
BRANCH  11  12
ATOM     12  C   UNL d   1      28.408 -14.268  -6.438  0.00  0.00     0.249 C 
ATOM     13  O   UNL d   1      28.054 -13.260  -7.057  0.00  0.00    -0.271 OA
ATOM     14  N   UNL d   1      29.349 -15.120  -7.027  0.00  0.00    -0.277 N 
ATOM     15  C   UNL d   1      29.868 -16.284  -6.496  0.00  0.00     0.323 C 
ATOM     16  H   UNL d   1      29.654 -14.808  -7.936  0.00  0.00     0.173 HD
ATOM     17  O   UNL d   1      29.548 -16.700  -5.389  0.00  0.00    -0.247 OA
ATOM     18  N   UNL d   1      30.758 -16.980  -7.295  0.00  0.00    -0.338 N 
ATOM     19  H   UNL d   1      31.102 -16.593  -8.163  0.00  0.00     0.164 HD
BRANCH  18  20
ATOM     20  C   UNL d   1      31.380 -18.213  -6.782  0.00  0.00     0.086 C 
ATOM     21  C   UNL d   1      30.405 -19.336  -6.419  0.00  0.00     0.025 C 
ATOM     22  C   UNL d   1      31.288 -20.582  -6.309  0.00  0.00     0.002 C 
ATOM     23  C   UNL d   1      32.445 -20.354  -7.281  0.00  0.00     0.002 C 
ATOM     24  C   UNL d   1      32.302 -18.914  -7.787  0.00  0.00     0.025 C 
ENDBRANCH  18  20
ENDBRANCH  11  12
ENDBRANCH  10  11
ENDBRANCH   8  10
ENDBRANCH   1   8
BRANCH   6  25
ATOM     25  S   UNL d   1      23.371 -17.694  -0.134  0.00  0.00     0.243 S 
ATOM     26  O   UNL d   1      23.769 -18.522   0.980  0.00  0.00    -0.206 OA
ATOM     27  O   UNL d   1      22.535 -16.526   0.046  0.00  0.00    -0.206 OA
BRANCH  25  28
ATOM     28  N   UNL d   1      22.574 -18.722  -1.197  0.00  0.00    -0.211 NA
ATOM     29  H   UNL d   1      22.844 -19.683  -0.993  0.00  0.00     0.140 HD
BRANCH  28  30
ATOM     30  C   UNL d   1      21.106 -18.592  -1.270  0.00  0.00     0.143 C 
BRANCH  30  31
ATOM     31  C   UNL d   1      20.372 -19.373  -0.189  0.00  0.00    -0.044 A 
ATOM     32  C   UNL d   1      19.200 -20.075  -0.519  0.00  0.00     0.008 A 
ATOM     33  C   UNL d   1      18.401 -20.644   0.479  0.00  0.00     0.001 A 
ATOM     34  C   UNL d   1      18.802 -20.594   1.812  0.00  0.00     0.000 A 
ATOM     35  C   UNL d   1      19.978 -19.938   2.154  0.00  0.00     0.001 A 
ATOM     36  C   UNL d   1      20.746 -19.324   1.164  0.00  0.00     0.008 A 
ENDBRANCH  30  31
ENDBRANCH  28  30
ENDBRANCH  25  28
ENDBRANCH   6  25
TORSDOF 9
ENDMDL
MODEL 2
REMARK VINA RESULT:   -11.684      2.101      4.184
REMARK INTER + INTRA:         -15.542
REMARK INTER:                 -14.369
REMARK INTRA:                  -1.173
REMARK CONF_INDEPENDENT:        2.685
REMARK UNBOUND:                -1.173
REMARK  9 active torsions:
REMARK  status: ('A' for Active; 'I' for Inactive)
REMARK    1  A    between atoms: C_2  and  C_3 
REMARK       I    between atoms: C_2  and  N_25 
REMARK    2  A    between atoms: C_3  and  O_4 
REMARK    3  A    between atoms: O_4  and  C_5 
REMARK    4  A    between atoms: C_5  and  C_7 
REMARK    5  A    between atoms: C_12  and  S_13 
REMARK    6  A    between atoms: S_13  and  N_16 
REMARK    7  A    between atoms: N_16  and  C_17 
REMARK    8  A    between atoms: C_17  and  C_18 
REMARK       I    between atoms: N_25  and  C_26 
REMARK       I    between atoms: C_26  and  N_28 
REMARK    9  A    between atoms: N_28  and  C_29 
ROOT
ATOM      1  C   UNL d   1      25.848 -15.951  -2.915  0.00  0.00     0.041 A 
ATOM      2  C   UNL d   1      27.124 -16.157  -2.391  0.00  0.00     0.019 A 
ATOM      3  C   UNL d   1      27.282 -16.855  -1.191  0.00  0.00     0.026 A 
ATOM      4  C   UNL d   1      26.182 -17.363  -0.482  0.00  0.00     0.057 A 
ATOM      5 CL   UNL d   1      26.619 -18.231   0.942  0.00  0.00    -0.083 Cl
ATOM      6  C   UNL d   1      24.891 -17.132  -0.963  0.00  0.00     0.097 A 
ATOM      7  C   UNL d   1      24.730 -16.409  -2.180  0.00  0.00     0.044 A 
ENDROOT
BRANCH   1   8
ATOM      8  C   UNL d   1      25.680 -15.191  -4.193  0.00  0.00     0.293 C 
ATOM      9  O   UNL d   1      24.778 -14.378  -4.348  0.00  0.00    -0.259 OA
BRANCH   8  10
ATOM     10  O   UNL d   1      26.615 -15.536  -5.127  0.00  0.00    -0.308 OA
BRANCH  10  11
ATOM     11  C   UNL d   1      27.856 -14.787  -5.068  0.00  0.00     0.282 C 
BRANCH  11  12
ATOM     12  C   UNL d   1      28.979 -15.297  -6.019  0.00  0.00     0.249 C 
ATOM     13  O   UNL d   1      29.618 -16.327  -5.786  0.00  0.00    -0.271 OA
ATOM     14  N   UNL d   1      29.285 -14.565  -7.171  0.00  0.00    -0.277 N 
ATOM     15  C   UNL d   1      28.685 -13.399  -7.603  0.00  0.00     0.323 C 
ATOM     16  H   UNL d   1      30.028 -14.974  -7.717  0.00  0.00     0.173 HD
ATOM     17  O   UNL d   1      27.766 -12.868  -6.991  0.00  0.00    -0.247 OA
ATOM     18  N   UNL d   1      29.196 -12.837  -8.760  0.00  0.00    -0.338 N 
ATOM     19  H   UNL d   1      29.885 -13.319  -9.322  0.00  0.00     0.164 HD
BRANCH  18  20
ATOM     20  C   UNL d   1      28.585 -11.610  -9.301  0.00  0.00     0.086 C 
ATOM     21  C   UNL d   1      27.069 -11.668  -9.504  0.00  0.00     0.025 C 
ATOM     22  C   UNL d   1      26.655 -10.204  -9.676  0.00  0.00     0.002 C 
ATOM     23  C   UNL d   1      27.660  -9.393  -8.860  0.00  0.00     0.002 C 
ATOM     24  C   UNL d   1      28.731 -10.385  -8.391  0.00  0.00     0.025 C 
ENDBRANCH  18  20
ENDBRANCH  11  12
ENDBRANCH  10  11
ENDBRANCH   8  10
ENDBRANCH   1   8
BRANCH   6  25
ATOM     25  S   UNL d   1      23.394 -17.674  -0.147  0.00  0.00     0.243 S 
ATOM     26  O   UNL d   1      23.805 -18.475   0.981  0.00  0.00    -0.206 OA
ATOM     27  O   UNL d   1      22.549 -16.510   0.014  0.00  0.00    -0.206 OA
BRANCH  25  28
ATOM     28  N   UNL d   1      22.599 -18.729  -1.184  0.00  0.00    -0.211 NA
ATOM     29  H   UNL d   1      22.863 -19.685  -0.950  0.00  0.00     0.140 HD
BRANCH  28  30
ATOM     30  C   UNL d   1      21.132 -18.596  -1.271  0.00  0.00     0.143 C 
BRANCH  30  31
ATOM     31  C   UNL d   1      20.386 -19.378  -0.199  0.00  0.00    -0.044 A 
ATOM     32  C   UNL d   1      19.221 -20.084  -0.543  0.00  0.00     0.008 A 
ATOM     33  C   UNL d   1      18.411 -20.654   0.445  0.00  0.00     0.001 A 
ATOM     34  C   UNL d   1      18.794 -20.600   1.783  0.00  0.00     0.000 A 
ATOM     35  C   UNL d   1      19.962 -19.940   2.140  0.00  0.00     0.001 A 
ATOM     36  C   UNL d   1      20.742 -19.325   1.160  0.00  0.00     0.008 A 
ENDBRANCH  30  31
ENDBRANCH  28  30
ENDBRANCH  25  28
ENDBRANCH   6  25
TORSDOF 9
ENDMDL
MODEL 3
REMARK VINA RESULT:   -10.875      1.141      1.779
REMARK INTER + INTRA:         -15.160
REMARK INTER:                 -13.560
REMARK INTRA:                  -1.600
REMARK CONF_INDEPENDENT:        2.685
REMARK UNBOUND:                -1.600
REMARK  9 active torsions:
REMARK  status: ('A' for Active; 'I' for Inactive)
REMARK    1  A    between atoms: C_2  and  C_3 
REMARK       I    between atoms: C_2  and  N_25 
REMARK    2  A    between atoms: C_3  and  O_4 
REMARK    3  A    between atoms: O_4  and  C_5 
REMARK    4  A    between atoms: C_5  and  C_7 
REMARK    5  A    between atoms: C_12  and  S_13 
REMARK    6  A    between atoms: S_13  and  N_16 
REMARK    7  A    between atoms: N_16  and  C_17 
REMARK    8  A    between atoms: C_17  and  C_18 
REMARK       I    between atoms: N_25  and  C_26 
REMARK       I    between atoms: C_26  and  N_28 
REMARK    9  A    between atoms: N_28  and  C_29 
ROOT
ATOM      1  C   UNL d   1      25.774 -15.547  -2.774  0.00  0.00     0.041 A 
ATOM      2  C   UNL d   1      27.072 -15.859  -2.369  0.00  0.00     0.019 A 
ATOM      3  C   UNL d   1      27.278 -16.753  -1.314  0.00  0.00     0.026 A 
ATOM      4  C   UNL d   1      26.206 -17.355  -0.637  0.00  0.00     0.057 A 
ATOM      5 CL   UNL d   1      26.699 -18.458   0.594  0.00  0.00    -0.083 Cl
ATOM      6  C   UNL d   1      24.897 -17.024  -0.995  0.00  0.00     0.097 A 
ATOM      7  C   UNL d   1      24.687 -16.104  -2.060  0.00  0.00     0.044 A 
ENDROOT
BRANCH   1   8
ATOM      8  C   UNL d   1      25.555 -14.580  -3.895  0.00  0.00     0.293 C 
ATOM      9  O   UNL d   1      24.782 -14.820  -4.813  0.00  0.00    -0.259 OA
BRANCH   8  10
ATOM     10  O   UNL d   1      26.323 -13.458  -3.768  0.00  0.00    -0.308 OA
BRANCH  10  11
ATOM     11  C   UNL d   1      26.713 -12.830  -5.017  0.00  0.00     0.282 C 
BRANCH  11  12
ATOM     12  C   UNL d   1      28.202 -12.381  -5.092  0.00  0.00     0.249 C 
ATOM     13  O   UNL d   1      28.544 -11.211  -4.896  0.00  0.00    -0.271 OA
ATOM     14  N   UNL d   1      29.188 -13.325  -5.397  0.00  0.00    -0.277 N 
ATOM     15  C   UNL d   1      29.006 -14.671  -5.643  0.00  0.00     0.323 C 
ATOM     16  H   UNL d   1      30.118 -12.935  -5.427  0.00  0.00     0.173 HD
ATOM     17  O   UNL d   1      27.903 -15.203  -5.602  0.00  0.00    -0.247 OA
ATOM     18  N   UNL d   1      30.141 -15.395  -5.968  0.00  0.00    -0.338 N 
ATOM     19  H   UNL d   1      31.063 -14.987  -5.907  0.00  0.00     0.164 HD
BRANCH  18  20
ATOM     20  C   UNL d   1      30.030 -16.844  -6.211  0.00  0.00     0.086 C 
ATOM     21  C   UNL d   1      31.113 -17.441  -7.113  0.00  0.00     0.025 C 
ATOM     22  C   UNL d   1      31.009 -18.951  -6.880  0.00  0.00     0.002 C 
ATOM     23  C   UNL d   1      30.513 -19.112  -5.444  0.00  0.00     0.002 C 
ATOM     24  C   UNL d   1      30.169 -17.703  -4.949  0.00  0.00     0.025 C 
ENDBRANCH  18  20
ENDBRANCH  11  12
ENDBRANCH  10  11
ENDBRANCH   8  10
ENDBRANCH   1   8
BRANCH   6  25
ATOM     25  S   UNL d   1      23.434 -17.672  -0.193  0.00  0.00     0.243 S 
ATOM     26  O   UNL d   1      23.868 -18.251   1.056  0.00  0.00    -0.206 OA
ATOM     27  O   UNL d   1      22.426 -16.634  -0.239  0.00  0.00    -0.206 OA
BRANCH  25  28
ATOM     28  N   UNL d   1      22.871 -18.957  -1.115  0.00  0.00    -0.211 NA
ATOM     29  H   UNL d   1      23.130 -19.830  -0.660  0.00  0.00     0.140 HD
BRANCH  28  30
ATOM     30  C   UNL d   1      21.436 -18.950  -1.459  0.00  0.00     0.143 C 
BRANCH  30  31
ATOM     31  C   UNL d   1      20.534 -19.386  -0.314  0.00  0.00    -0.044 A 
ATOM     32  C   UNL d   1      21.006 -19.308   1.007  0.00  0.00     0.008 A 
ATOM     33  C   UNL d   1      20.280 -19.873   2.061  0.00  0.00     0.001 A 
ATOM     34  C   UNL d   1      19.034 -20.449   1.826  0.00  0.00     0.000 A 
ATOM     35  C   UNL d   1      18.532 -20.501   0.532  0.00  0.00     0.001 A 
ATOM     36  C   UNL d   1      19.281 -19.986  -0.527  0.00  0.00     0.008 A 
ENDBRANCH  30  31
ENDBRANCH  28  30
ENDBRANCH  25  28
ENDBRANCH   6  25
TORSDOF 9
ENDMDL
MODEL 4
REMARK VINA RESULT:   -10.561      3.105      5.663
REMARK INTER + INTRA:         -14.691
REMARK INTER:                 -13.245
REMARK INTRA:                  -1.446
REMARK CONF_INDEPENDENT:        2.685
REMARK UNBOUND:                -1.446
REMARK  9 active torsions:
REMARK  status: ('A' for Active; 'I' for Inactive)
REMARK    1  A    between atoms: C_2  and  C_3 
REMARK       I    between atoms: C_2  and  N_25 
REMARK    2  A    between atoms: C_3  and  O_4 
REMARK    3  A    between atoms: O_4  and  C_5 
REMARK    4  A    between atoms: C_5  and  C_7 
REMARK    5  A    between atoms: C_12  and  S_13 
REMARK    6  A    between atoms: S_13  and  N_16 
REMARK    7  A    between atoms: N_16  and  C_17 
REMARK    8  A    between atoms: C_17  and  C_18 
REMARK       I    between atoms: N_25  and  C_26 
REMARK       I    between atoms: C_26  and  N_28 
REMARK    9  A    between atoms: N_28  and  C_29 
ROOT
ATOM      1  C   UNL d   1      25.821 -15.996  -2.871  0.00  0.00     0.041 A 
ATOM      2  C   UNL d   1      27.080 -16.208  -2.310  0.00  0.00     0.019 A 
ATOM      3  C   UNL d   1      27.199 -16.920  -1.112  0.00  0.00     0.026 A 
ATOM      4  C   UNL d   1      26.077 -17.434  -0.445  0.00  0.00     0.057 A 
ATOM      5 CL   UNL d   1      26.468 -18.318   0.983  0.00  0.00    -0.083 Cl
ATOM      6  C   UNL d   1      24.802 -17.198  -0.964  0.00  0.00     0.097 A 
ATOM      7  C   UNL d   1      24.679 -16.461  -2.177  0.00  0.00     0.044 A 
ENDROOT
BRANCH   1   8
ATOM      8  C   UNL d   1      25.694 -15.223  -4.146  0.00  0.00     0.293 C 
ATOM      9  O   UNL d   1      24.797 -14.407  -4.320  0.00  0.00    -0.259 OA
BRANCH   8  10
ATOM     10  O   UNL d   1      26.658 -15.558  -5.053  0.00  0.00    -0.308 OA
BRANCH  10  11
ATOM     11  C   UNL d   1      27.305 -14.438  -5.711  0.00  0.00     0.282 C 
BRANCH  11  12
ATOM     12  C   UNL d   1      28.242 -13.591  -4.801  0.00  0.00     0.249 C 
ATOM     13  O   UNL d   1      29.324 -14.022  -4.393  0.00  0.00    -0.271 OA
ATOM     14  N   UNL d   1      27.849 -12.302  -4.423  0.00  0.00    -0.277 N 
ATOM     15  C   UNL d   1      26.686 -11.648  -4.777  0.00  0.00     0.323 C 
ATOM     16  H   UNL d   1      28.521 -11.838  -3.831  0.00  0.00     0.173 HD
ATOM     17  O   UNL d   1      25.844 -12.154  -5.509  0.00  0.00    -0.247 OA
ATOM     18  N   UNL d   1      26.503 -10.386  -4.238  0.00  0.00    -0.338 N 
ATOM     19  H   UNL d   1      27.235  -9.923  -3.717  0.00  0.00     0.164 HD
BRANCH  18  20
ATOM     20  C   UNL d   1      25.301  -9.612  -4.598  0.00  0.00     0.086 C 
ATOM     21  C   UNL d   1      25.161  -8.258  -3.898  0.00  0.00     0.025 C 
ATOM     22  C   UNL d   1      24.098  -7.519  -4.715  0.00  0.00     0.002 C 
ATOM     23  C   UNL d   1      24.233  -8.050  -6.141  0.00  0.00     0.002 C 
ATOM     24  C   UNL d   1      25.236  -9.207  -6.075  0.00  0.00     0.025 C 
ENDBRANCH  18  20
ENDBRANCH  11  12
ENDBRANCH  10  11
ENDBRANCH   8  10
ENDBRANCH   1   8
BRANCH   6  25
ATOM     25  S   UNL d   1      23.279 -17.748  -0.202  0.00  0.00     0.243 S 
ATOM     26  O   UNL d   1      23.645 -18.378   1.044  0.00  0.00    -0.206 OA
ATOM     27  O   UNL d   1      22.351 -16.638  -0.250  0.00  0.00    -0.206 OA
BRANCH  25  28
ATOM     28  N   UNL d   1      22.643 -18.974  -1.157  0.00  0.00    -0.211 NA
ATOM     29  H   UNL d   1      22.893 -19.874  -0.751  0.00  0.00     0.140 HD
BRANCH  28  30
ATOM     30  C   UNL d   1      21.197 -18.910  -1.444  0.00  0.00     0.143 C 
BRANCH  30  31
ATOM     31  C   UNL d   1      20.327 -19.414  -0.301  0.00  0.00    -0.044 A 
ATOM     32  C   UNL d   1      20.800 -19.323   1.019  0.00  0.00     0.008 A 
ATOM     33  C   UNL d   1      20.114 -19.943   2.069  0.00  0.00     0.001 A 
ATOM     34  C   UNL d   1      18.903 -20.590   1.832  0.00  0.00     0.000 A 
ATOM     35  C   UNL d   1      18.399 -20.657   0.539  0.00  0.00     0.001 A 
ATOM     36  C   UNL d   1      19.112 -20.085  -0.516  0.00  0.00     0.008 A 
ENDBRANCH  30  31
ENDBRANCH  28  30
ENDBRANCH  25  28
ENDBRANCH   6  25
TORSDOF 9
ENDMDL
MODEL 5
REMARK VINA RESULT:   -10.401      3.325      5.019
REMARK INTER + INTRA:         -15.334
REMARK INTER:                 -13.086
REMARK INTRA:                  -2.249
REMARK CONF_INDEPENDENT:        2.685
REMARK UNBOUND:                -2.249
REMARK  9 active torsions:
REMARK  status: ('A' for Active; 'I' for Inactive)
REMARK    1  A    between atoms: C_2  and  C_3 
REMARK       I    between atoms: C_2  and  N_25 
REMARK    2  A    between atoms: C_3  and  O_4 
REMARK    3  A    between atoms: O_4  and  C_5 
REMARK    4  A    between atoms: C_5  and  C_7 
REMARK    5  A    between atoms: C_12  and  S_13 
REMARK    6  A    between atoms: S_13  and  N_16 
REMARK    7  A    between atoms: N_16  and  C_17 
REMARK    8  A    between atoms: C_17  and  C_18 
REMARK       I    between atoms: N_25  and  C_26 
REMARK       I    between atoms: C_26  and  N_28 
REMARK    9  A    between atoms: N_28  and  C_29 
ROOT
ATOM      1  C   UNL d   1      25.942 -15.950  -3.010  0.00  0.00     0.041 A 
ATOM      2  C   UNL d   1      27.203 -16.120  -2.437  0.00  0.00     0.019 A 
ATOM      3  C   UNL d   1      27.329 -16.790  -1.216  0.00  0.00     0.026 A 
ATOM      4  C   UNL d   1      26.214 -17.302  -0.536  0.00  0.00     0.057 A 
ATOM      5 CL   UNL d   1      26.615 -18.131   0.922  0.00  0.00    -0.083 Cl
ATOM      6  C   UNL d   1      24.937 -17.106  -1.068  0.00  0.00     0.097 A 
ATOM      7  C   UNL d   1      24.807 -16.412  -2.305  0.00  0.00     0.044 A 
ENDROOT
BRANCH   1   8
ATOM      8  C   UNL d   1      25.807 -15.222  -4.311  0.00  0.00     0.293 C 
ATOM      9  O   UNL d   1      26.454 -15.541  -5.300  0.00  0.00    -0.259 OA
BRANCH   8  10
ATOM     10  O   UNL d   1      24.923 -14.185  -4.234  0.00  0.00    -0.308 OA
BRANCH  10  11
ATOM     11  C   UNL d   1      25.440 -12.896  -4.655  0.00  0.00     0.282 C 
BRANCH  11  12
ATOM     12  C   UNL d   1      26.985 -12.836  -4.842  0.00  0.00     0.249 C 
ATOM     13  O   UNL d   1      27.510 -12.829  -5.959  0.00  0.00    -0.271 OA
ATOM     14  N   UNL d   1      27.811 -12.796  -3.713  0.00  0.00    -0.277 N 
ATOM     15  C   UNL d   1      27.416 -12.793  -2.391  0.00  0.00     0.323 C 
ATOM     16  H   UNL d   1      28.793 -12.763  -3.939  0.00  0.00     0.173 HD
ATOM     17  O   UNL d   1      26.237 -12.812  -2.057  0.00  0.00    -0.247 OA
ATOM     18  N   UNL d   1      28.428 -12.794  -1.447  0.00  0.00    -0.338 N 
ATOM     19  H   UNL d   1      29.397 -12.678  -1.711  0.00  0.00     0.164 HD
BRANCH  18  20
ATOM     20  C   UNL d   1      28.084 -12.756  -0.014  0.00  0.00     0.086 C 
ATOM     21  C   UNL d   1      27.409 -11.468   0.464  0.00  0.00     0.025 C 
ATOM     22  C   UNL d   1      26.816 -11.836   1.827  0.00  0.00     0.002 C 
ATOM     23  C   UNL d   1      26.487 -13.325   1.744  0.00  0.00     0.002 C 
ATOM     24  C   UNL d   1      27.064 -13.819   0.412  0.00  0.00     0.025 C 
ENDBRANCH  18  20
ENDBRANCH  11  12
ENDBRANCH  10  11
ENDBRANCH   8  10
ENDBRANCH   1   8
BRANCH   6  25
ATOM     25  S   UNL d   1      23.421 -17.658  -0.293  0.00  0.00     0.243 S 
ATOM     26  O   UNL d   1      23.791 -18.228   0.980  0.00  0.00    -0.206 OA
ATOM     27  O   UNL d   1      22.469 -16.572  -0.394  0.00  0.00    -0.206 OA
BRANCH  25  28
ATOM     28  N   UNL d   1      22.819 -18.937  -1.201  0.00  0.00    -0.211 NA
ATOM     29  H   UNL d   1      23.124 -19.813  -0.781  0.00  0.00     0.140 HD
BRANCH  28  30
ATOM     30  C   UNL d   1      21.364 -18.949  -1.447  0.00  0.00     0.143 C 
BRANCH  30  31
ATOM     31  C   UNL d   1      20.554 -19.493  -0.278  0.00  0.00    -0.044 A 
ATOM     32  C   UNL d   1      19.300 -20.077  -0.520  0.00  0.00     0.008 A 
ATOM     33  C   UNL d   1      18.452 -20.415   0.541  0.00  0.00     0.001 A 
ATOM     34  C   UNL d   1      18.875 -20.252   1.858  0.00  0.00     0.000 A 
ATOM     35  C   UNL d   1      20.128 -19.711   2.117  0.00  0.00     0.001 A 
ATOM     36  C   UNL d   1      20.952 -19.325   1.059  0.00  0.00     0.008 A 
ENDBRANCH  30  31
ENDBRANCH  28  30
ENDBRANCH  25  28
ENDBRANCH   6  25
TORSDOF 9
ENDMDL
MODEL 6
REMARK VINA RESULT:    -9.338      3.486      8.940
REMARK INTER + INTRA:         -14.262
REMARK INTER:                 -12.022
REMARK INTRA:                  -2.240
REMARK CONF_INDEPENDENT:        2.685
REMARK UNBOUND:                -2.240
REMARK  9 active torsions:
REMARK  status: ('A' for Active; 'I' for Inactive)
REMARK    1  A    between atoms: C_2  and  C_3 
REMARK       I    between atoms: C_2  and  N_25 
REMARK    2  A    between atoms: C_3  and  O_4 
REMARK    3  A    between atoms: O_4  and  C_5 
REMARK    4  A    between atoms: C_5  and  C_7 
REMARK    5  A    between atoms: C_12  and  S_13 
REMARK    6  A    between atoms: S_13  and  N_16 
REMARK    7  A    between atoms: N_16  and  C_17 
REMARK    8  A    between atoms: C_17  and  C_18 
REMARK       I    between atoms: N_25  and  C_26 
REMARK       I    between atoms: C_26  and  N_28 
REMARK    9  A    between atoms: N_28  and  C_29 
ROOT
ATOM      1  C   UNL d   1      26.606 -14.912  -4.046  0.00  0.00     0.041 A 
ATOM      2  C   UNL d   1      26.940 -14.523  -5.343  0.00  0.00     0.019 A 
ATOM      3  C   UNL d   1      28.200 -14.834  -5.863  0.00  0.00     0.026 A 
ATOM      4  C   UNL d   1      29.157 -15.533  -5.110  0.00  0.00     0.057 A 
ATOM      5 CL   UNL d   1      30.617 -15.846  -5.971  0.00  0.00    -0.083 Cl
ATOM      6  C   UNL d   1      28.862 -15.894  -3.794  0.00  0.00     0.097 A 
ATOM      7  C   UNL d   1      27.584 -15.567  -3.260  0.00  0.00     0.044 A 
ENDROOT
BRANCH   1   8
ATOM      8  C   UNL d   1      25.261 -14.568  -3.487  0.00  0.00     0.293 C 
ATOM      9  O   UNL d   1      24.377 -14.086  -4.183  0.00  0.00    -0.259 OA
BRANCH   8  10
ATOM     10  O   UNL d   1      25.174 -14.830  -2.150  0.00  0.00    -0.308 OA
BRANCH  10  11
ATOM     11  C   UNL d   1      24.253 -15.891  -1.785  0.00  0.00     0.282 C 
BRANCH  11  12
ATOM     12  C   UNL d   1      24.924 -17.190  -1.250  0.00  0.00     0.249 C 
ATOM     13  O   UNL d   1      26.144 -17.366  -1.300  0.00  0.00    -0.271 OA
ATOM     14  N   UNL d   1      24.124 -18.197  -0.698  0.00  0.00    -0.277 N 
ATOM     15  C   UNL d   1      22.751 -18.185  -0.551  0.00  0.00     0.323 C 
ATOM     16  H   UNL d   1      24.651 -18.998  -0.385  0.00  0.00     0.173 HD
ATOM     17  O   UNL d   1      22.062 -17.232  -0.895  0.00  0.00    -0.247 OA
ATOM     18  N   UNL d   1      22.181 -19.325  -0.013  0.00  0.00    -0.338 N 
ATOM     19  H   UNL d   1      22.749 -20.072   0.364  0.00  0.00     0.164 HD
BRANCH  18  20
ATOM     20  C   UNL d   1      20.725 -19.373   0.206  0.00  0.00     0.086 C 
ATOM     21  C   UNL d   1      19.887 -19.701  -1.032  0.00  0.00     0.025 C 
ATOM     22  C   UNL d   1      18.512 -20.074  -0.470  0.00  0.00     0.002 C 
ATOM     23  C   UNL d   1      18.781 -20.674   0.909  0.00  0.00     0.002 C 
ATOM     24  C   UNL d   1      20.274 -20.464   1.185  0.00  0.00     0.025 C 
ENDBRANCH  18  20
ENDBRANCH  11  12
ENDBRANCH  10  11
ENDBRANCH   8  10
ENDBRANCH   1   8
BRANCH   6  25
ATOM     25  S   UNL d   1      29.996 -16.744  -2.699  0.00  0.00     0.243 S 
ATOM     26  O   UNL d   1      30.311 -18.004  -3.328  0.00  0.00    -0.206 OA
ATOM     27  O   UNL d   1      31.027 -15.797  -2.333  0.00  0.00    -0.206 OA
BRANCH  25  28
ATOM     28  N   UNL d   1      29.156 -17.136  -1.299  0.00  0.00    -0.211 NA
ATOM     29  H   UNL d   1      29.126 -18.150  -1.204  0.00  0.00     0.140 HD
BRANCH  28  30
ATOM     30  C   UNL d   1      29.620 -16.506  -0.048  0.00  0.00     0.143 C 
BRANCH  30  31
ATOM     31  C   UNL d   1      28.785 -15.305   0.373  0.00  0.00    -0.044 A 
ATOM     32  C   UNL d   1      27.412 -15.278   0.076  0.00  0.00     0.008 A 
ATOM     33  C   UNL d   1      26.658 -14.117   0.279  0.00  0.00     0.001 A 
ATOM     34  C   UNL d   1      27.241 -12.994   0.859  0.00  0.00     0.000 A 
ATOM     35  C   UNL d   1      28.588 -13.013   1.196  0.00  0.00     0.001 A 
ATOM     36  C   UNL d   1      29.353 -14.153   0.943  0.00  0.00     0.008 A 
ENDBRANCH  30  31
ENDBRANCH  28  30
ENDBRANCH  25  28
ENDBRANCH   6  25
TORSDOF 9
ENDMDL
