MODEL 1
REMARK VINA RESULT:    -6.748      0.000      0.000
REMARK INTER + INTRA:          -8.830
REMARK INTER:                  -7.941
REMARK INTRA:                  -0.888
REMARK CONF_INDEPENDENT:        1.193
REMARK UNBOUND:                -0.888
REMARK  4 active torsions:
REMARK  status: ('A' for Active; 'I' for Inactive)
REMARK       I    between atoms: C_2  and  N_3 
REMARK    1  A    between atoms: C_2  and  C_13 
REMARK    2  A    between atoms: N_3  and  N_4 
REMARK    3  A    between atoms: N_4  and  C_5 
REMARK    4  A    between atoms: C_18  and  O_19 
ROOT
ATOM      1  O   UNL d   1      22.522 -17.083   0.035  0.00  0.00    -0.266 OA
ATOM      2  C   UNL d   1      22.202 -18.172  -0.451  0.00  0.00     0.272 C 
ATOM      3  N   UNL d   1      22.830 -18.701  -1.572  0.00  0.00    -0.265 N 
ATOM      4  H   UNL d   1      22.660 -19.639  -1.914  0.00  0.00     0.190 HD
ENDROOT
BRANCH   3   5
ATOM      5  N   UNL d   1      23.917 -17.993  -2.098  0.00  0.00    -0.295 N 
ATOM      6  H   UNL d   1      23.990 -17.910  -3.115  0.00  0.00     0.187 HD
BRANCH   5   7
ATOM      7  C   UNL d   1      24.921 -17.510  -1.252  0.00  0.00     0.086 A 
ATOM      8  C   UNL d   1      25.445 -18.288  -0.211  0.00  0.00     0.037 A 
ATOM      9  C   UNL d   1      26.392 -17.762   0.676  0.00  0.00     0.045 A 
ATOM     10  C   UNL d   1      26.808 -16.443   0.544  0.00  0.00     0.119 A 
ATOM     11  F   UNL d   1      27.695 -15.941   1.413  0.00  0.00    -0.206 F 
ATOM     12  C   UNL d   1      26.314 -15.643  -0.475  0.00  0.00     0.086 A 
ATOM     13  C   UNL d   1      25.389 -16.184  -1.369  0.00  0.00     0.147 A 
ATOM     14  F   UNL d   1      24.914 -15.391  -2.341  0.00  0.00    -0.204 F 
ENDBRANCH   5   7
ENDBRANCH   3   5
BRANCH   2  15
ATOM     15  C   UNL d   1      21.106 -18.982   0.162  0.00  0.00     0.066 A 
ATOM     16  C   UNL d   1      20.906 -19.024   1.552  0.00  0.00     0.020 A 
ATOM     17  C   UNL d   1      19.810 -19.723   2.087  0.00  0.00     0.001 A 
ATOM     18  C   UNL d   1      18.914 -20.382   1.245  0.00  0.00     0.003 A 
ATOM     19  C   UNL d   1      19.108 -20.350  -0.136  0.00  0.00     0.037 A 
ATOM     20  C   UNL d   1      20.197 -19.653  -0.670  0.00  0.00     0.081 A 
BRANCH  20  21
ATOM     21  O   UNL d   1      20.400 -19.662  -2.022  0.00  0.00    -0.360 OA
ATOM     22  H   UNL d   1      19.551 -19.678  -2.489  0.00  0.00     0.217 HD
ENDBRANCH  20  21
ENDBRANCH   2  15
TORSDOF 4
ENDMDL
MODEL 2
REMARK VINA RESULT:    -6.516      3.206      6.825
REMARK INTER + INTRA:          -8.933
REMARK INTER:                  -7.709
REMARK INTRA:                  -1.224
REMARK CONF_INDEPENDENT:        1.193
REMARK UNBOUND:                -1.224
REMARK  4 active torsions:
REMARK  status: ('A' for Active; 'I' for Inactive)
REMARK       I    between atoms: C_2  and  N_3 
REMARK    1  A    between atoms: C_2  and  C_13 
REMARK    2  A    between atoms: N_3  and  N_4 
REMARK    3  A    between atoms: N_4  and  C_5 
REMARK    4  A    between atoms: C_18  and  O_19 
ROOT
ATOM      1  O   UNL d   1      22.183 -16.090  -0.859  0.00  0.00    -0.266 OA
ATOM      2  C   UNL d   1      22.765 -17.167  -0.701  0.00  0.00     0.272 C 
ATOM      3  N   UNL d   1      22.088 -18.377  -0.625  0.00  0.00    -0.265 N 
ATOM      4  H   UNL d   1      22.554 -19.276  -0.611  0.00  0.00     0.190 HD
ENDROOT
BRANCH   3   5
ATOM      5  N   UNL d   1      20.702 -18.355  -0.823  0.00  0.00    -0.295 N 
ATOM      6  H   UNL d   1      20.306 -17.580  -1.363  0.00  0.00     0.187 HD
BRANCH   5   7
ATOM      7  C   UNL d   1      19.886 -19.310  -0.209  0.00  0.00     0.086 A 
ATOM      8  C   UNL d   1      18.833 -19.931  -0.895  0.00  0.00     0.037 A 
ATOM      9  C   UNL d   1      17.976 -20.825  -0.244  0.00  0.00     0.045 A 
ATOM     10  C   UNL d   1      18.149 -21.090   1.109  0.00  0.00     0.119 A 
ATOM     11  F   UNL d   1      17.308 -21.927   1.730  0.00  0.00    -0.206 F 
ATOM     12  C   UNL d   1      19.181 -20.498   1.821  0.00  0.00     0.086 A 
ATOM     13  C   UNL d   1      20.045 -19.627   1.156  0.00  0.00     0.147 A 
ATOM     14  F   UNL d   1      21.030 -19.054   1.865  0.00  0.00    -0.204 F 
ENDBRANCH   5   7
ENDBRANCH   3   5
BRANCH   2  15
ATOM     15  C   UNL d   1      24.255 -17.211  -0.585  0.00  0.00     0.066 A 
ATOM     16  C   UNL d   1      24.904 -18.100   0.287  0.00  0.00     0.020 A 
ATOM     17  C   UNL d   1      26.307 -18.178   0.302  0.00  0.00     0.001 A 
ATOM     18  C   UNL d   1      27.068 -17.372  -0.545  0.00  0.00     0.003 A 
ATOM     19  C   UNL d   1      26.432 -16.481  -1.411  0.00  0.00     0.037 A 
ATOM     20  C   UNL d   1      25.035 -16.405  -1.429  0.00  0.00     0.081 A 
BRANCH  20  21
ATOM     21  O   UNL d   1      24.425 -15.500  -2.252  0.00  0.00    -0.360 OA
ATOM     22  H   UNL d   1      23.735 -15.019  -1.770  0.00  0.00     0.217 HD
ENDBRANCH  20  21
ENDBRANCH   2  15
TORSDOF 4
ENDMDL
MODEL 3
REMARK VINA RESULT:    -5.876      4.318      7.772
REMARK INTER + INTRA:          -8.043
REMARK INTER:                  -7.070
REMARK INTRA:                  -0.973
REMARK CONF_INDEPENDENT:        1.193
REMARK UNBOUND:                -0.973
REMARK  4 active torsions:
REMARK  status: ('A' for Active; 'I' for Inactive)
REMARK       I    between atoms: C_2  and  N_3 
REMARK    1  A    between atoms: C_2  and  C_13 
REMARK    2  A    between atoms: N_3  and  N_4 
REMARK    3  A    between atoms: N_4  and  C_5 
REMARK    4  A    between atoms: C_18  and  O_19 
ROOT
ATOM      1  O   UNL d   1      26.790 -13.750   1.324  0.00  0.00    -0.266 OA
ATOM      2  C   UNL d   1      27.629 -14.489   1.846  0.00  0.00     0.272 C 
ATOM      3  N   UNL d   1      28.137 -15.611   1.204  0.00  0.00    -0.265 N 
ATOM      4  H   UNL d   1      28.906 -16.160   1.568  0.00  0.00     0.190 HD
ENDROOT
BRANCH   3   5
ATOM      5  N   UNL d   1      27.729 -15.840  -0.115  0.00  0.00    -0.295 N 
ATOM      6  H   UNL d   1      28.331 -15.503  -0.871  0.00  0.00     0.187 HD
BRANCH   5   7
ATOM      7  C   UNL d   1      26.483 -16.420  -0.378  0.00  0.00     0.086 A 
ATOM      8  C   UNL d   1      25.521 -15.774  -1.167  0.00  0.00     0.037 A 
ATOM      9  C   UNL d   1      24.251 -16.331  -1.354  0.00  0.00     0.045 A 
ATOM     10  C   UNL d   1      23.922 -17.531  -0.736  0.00  0.00     0.119 A 
ATOM     11  F   UNL d   1      22.695 -18.043  -0.900  0.00  0.00    -0.206 F 
ATOM     12  C   UNL d   1      24.847 -18.200   0.049  0.00  0.00     0.086 A 
ATOM     13  C   UNL d   1      26.120 -17.650   0.210  0.00  0.00     0.147 A 
ATOM     14  F   UNL d   1      26.998 -18.306   0.984  0.00  0.00    -0.204 F 
ENDBRANCH   5   7
ENDBRANCH   3   5
BRANCH   2  15
ATOM     15  C   UNL d   1      28.145 -14.196   3.218  0.00  0.00     0.066 A 
ATOM     16  C   UNL d   1      27.298 -13.759   4.250  0.00  0.00     0.020 A 
ATOM     17  C   UNL d   1      27.801 -13.583   5.550  0.00  0.00     0.001 A 
ATOM     18  C   UNL d   1      29.144 -13.836   5.827  0.00  0.00     0.003 A 
ATOM     19  C   UNL d   1      29.994 -14.264   4.808  0.00  0.00     0.037 A 
ATOM     20  C   UNL d   1      29.494 -14.443   3.513  0.00  0.00     0.081 A 
BRANCH  20  21
ATOM     21  O   UNL d   1      30.345 -14.824   2.514  0.00  0.00    -0.360 OA
ATOM     22  H   UNL d   1      30.407 -15.791   2.476  0.00  0.00     0.217 HD
ENDBRANCH  20  21
ENDBRANCH   2  15
TORSDOF 4
ENDMDL
MODEL 4
REMARK VINA RESULT:    -5.873      4.357      7.691
REMARK INTER + INTRA:          -8.029
REMARK INTER:                  -7.066
REMARK INTRA:                  -0.963
REMARK CONF_INDEPENDENT:        1.193
REMARK UNBOUND:                -0.963
REMARK  4 active torsions:
REMARK  status: ('A' for Active; 'I' for Inactive)
REMARK       I    between atoms: C_2  and  N_3 
REMARK    1  A    between atoms: C_2  and  C_13 
REMARK    2  A    between atoms: N_3  and  N_4 
REMARK    3  A    between atoms: N_4  and  C_5 
REMARK    4  A    between atoms: C_18  and  O_19 
ROOT
ATOM      1  O   UNL d   1      26.829 -13.638   1.490  0.00  0.00    -0.266 OA
ATOM      2  C   UNL d   1      27.665 -14.408   1.971  0.00  0.00     0.272 C 
ATOM      3  N   UNL d   1      28.139 -15.518   1.284  0.00  0.00    -0.265 N 
ATOM      4  H   UNL d   1      28.905 -16.093   1.614  0.00  0.00     0.190 HD
ENDROOT
BRANCH   3   5
ATOM      5  N   UNL d   1      27.699 -15.699  -0.033  0.00  0.00    -0.295 N 
ATOM      6  H   UNL d   1      28.234 -15.256  -0.784  0.00  0.00     0.187 HD
BRANCH   5   7
ATOM      7  C   UNL d   1      26.503 -16.377  -0.291  0.00  0.00     0.086 A 
ATOM      8  C   UNL d   1      26.222 -17.622   0.288  0.00  0.00     0.037 A 
ATOM      9  C   UNL d   1      25.057 -18.325  -0.042  0.00  0.00     0.045 A 
ATOM     10  C   UNL d   1      24.171 -17.798  -0.974  0.00  0.00     0.119 A 
ATOM     11  F   UNL d   1      23.072 -18.490  -1.303  0.00  0.00    -0.206 F 
ATOM     12  C   UNL d   1      24.413 -16.568  -1.566  0.00  0.00     0.086 A 
ATOM     13  C   UNL d   1      25.565 -15.864  -1.211  0.00  0.00     0.147 A 
ATOM     14  F   UNL d   1      25.788 -14.681  -1.804  0.00  0.00    -0.204 F 
ENDBRANCH   5   7
ENDBRANCH   3   5
BRANCH   2  15
ATOM     15  C   UNL d   1      28.214 -14.169   3.340  0.00  0.00     0.066 A 
ATOM     16  C   UNL d   1      27.398 -13.749   4.403  0.00  0.00     0.020 A 
ATOM     17  C   UNL d   1      27.931 -13.623   5.697  0.00  0.00     0.001 A 
ATOM     18  C   UNL d   1      29.275 -13.909   5.938  0.00  0.00     0.003 A 
ATOM     19  C   UNL d   1      30.095 -14.321   4.888  0.00  0.00     0.037 A 
ATOM     20  C   UNL d   1      29.565 -14.450   3.599  0.00  0.00     0.081 A 
BRANCH  20  21
ATOM     21  O   UNL d   1      30.388 -14.815   2.570  0.00  0.00    -0.360 OA
ATOM     22  H   UNL d   1      30.405 -15.781   2.480  0.00  0.00     0.217 HD
ENDBRANCH  20  21
ENDBRANCH   2  15
TORSDOF 4
ENDMDL
MODEL 5
REMARK VINA RESULT:    -5.499      4.323      7.589
REMARK INTER + INTRA:          -7.958
REMARK INTER:                  -6.692
REMARK INTRA:                  -1.265
REMARK CONF_INDEPENDENT:        1.193
REMARK UNBOUND:                -1.265
REMARK  4 active torsions:
REMARK  status: ('A' for Active; 'I' for Inactive)
REMARK       I    between atoms: C_2  and  N_3 
REMARK    1  A    between atoms: C_2  and  C_13 
REMARK    2  A    between atoms: N_3  and  N_4 
REMARK    3  A    between atoms: N_4  and  C_5 
REMARK    4  A    between atoms: C_18  and  O_19 
ROOT
ATOM      1  O   UNL d   1      24.053 -13.865  -4.100  0.00  0.00    -0.266 OA
ATOM      2  C   UNL d   1      25.250 -14.165  -4.091  0.00  0.00     0.272 C 
ATOM      3  N   UNL d   1      25.769 -15.137  -3.246  0.00  0.00    -0.265 N 
ATOM      4  H   UNL d   1      26.722 -15.476  -3.305  0.00  0.00     0.190 HD
ENDROOT
BRANCH   3   5
ATOM      5  N   UNL d   1      24.865 -15.847  -2.447  0.00  0.00    -0.295 N 
ATOM      6  H   UNL d   1      23.866 -15.754  -2.651  0.00  0.00     0.187 HD
BRANCH   5   7
ATOM      7  C   UNL d   1      25.319 -16.573  -1.340  0.00  0.00     0.086 A 
ATOM      8  C   UNL d   1      26.677 -16.618  -0.995  0.00  0.00     0.037 A 
ATOM      9  C   UNL d   1      27.125 -17.412   0.066  0.00  0.00     0.045 A 
ATOM     10  C   UNL d   1      26.221 -18.189   0.781  0.00  0.00     0.119 A 
ATOM     11  F   UNL d   1      26.662 -18.966   1.778  0.00  0.00    -0.206 F 
ATOM     12  C   UNL d   1      24.870 -18.168   0.471  0.00  0.00     0.086 A 
ATOM     13  C   UNL d   1      24.429 -17.354  -0.573  0.00  0.00     0.147 A 
ATOM     14  F   UNL d   1      23.120 -17.357  -0.866  0.00  0.00    -0.204 F 
ENDBRANCH   5   7
ENDBRANCH   3   5
BRANCH   2  15
ATOM     15  C   UNL d   1      26.209 -13.480  -5.011  0.00  0.00     0.066 A 
ATOM     16  C   UNL d   1      26.136 -12.100  -5.263  0.00  0.00     0.020 A 
ATOM     17  C   UNL d   1      27.109 -11.475  -6.061  0.00  0.00     0.001 A 
ATOM     18  C   UNL d   1      28.153 -12.219  -6.613  0.00  0.00     0.003 A 
ATOM     19  C   UNL d   1      28.230 -13.590  -6.374  0.00  0.00     0.037 A 
ATOM     20  C   UNL d   1      27.263 -14.213  -5.577  0.00  0.00     0.081 A 
BRANCH  20  21
ATOM     21  O   UNL d   1      27.326 -15.566  -5.383  0.00  0.00    -0.360 OA
ATOM     22  H   UNL d   1      28.054 -15.785  -4.781  0.00  0.00     0.217 HD
ENDBRANCH  20  21
ENDBRANCH   2  15
TORSDOF 4
ENDMDL
MODEL 6
REMARK VINA RESULT:    -5.468      9.228     11.594
REMARK INTER + INTRA:          -7.926
REMARK INTER:                  -6.661
REMARK INTRA:                  -1.265
REMARK CONF_INDEPENDENT:        1.193
REMARK UNBOUND:                -1.265
REMARK  4 active torsions:
REMARK  status: ('A' for Active; 'I' for Inactive)
REMARK       I    between atoms: C_2  and  N_3 
REMARK    1  A    between atoms: C_2  and  C_13 
REMARK    2  A    between atoms: N_3  and  N_4 
REMARK    3  A    between atoms: N_4  and  C_5 
REMARK    4  A    between atoms: C_18  and  O_19 
ROOT
ATOM      1  O   UNL d   1      31.530 -19.892   4.039  0.00  0.00    -0.266 OA
ATOM      2  C   UNL d   1      32.065 -21.000   3.944  0.00  0.00     0.272 C 
ATOM      3  N   UNL d   1      31.863 -21.836   2.853  0.00  0.00    -0.265 N 
ATOM      4  H   UNL d   1      32.381 -22.694   2.705  0.00  0.00     0.190 HD
ENDROOT
BRANCH   3   5
ATOM      5  N   UNL d   1      31.086 -21.343   1.798  0.00  0.00    -0.295 N 
ATOM      6  H   UNL d   1      30.602 -20.451   1.932  0.00  0.00     0.187 HD
BRANCH   5   7
ATOM      7  C   UNL d   1      30.900 -22.107   0.641  0.00  0.00     0.086 A 
ATOM      8  C   UNL d   1      31.765 -22.004  -0.457  0.00  0.00     0.037 A 
ATOM      9  C   UNL d   1      31.521 -22.716  -1.637  0.00  0.00     0.045 A 
ATOM     10  C   UNL d   1      30.393 -23.522  -1.739  0.00  0.00     0.119 A 
ATOM     11  F   UNL d   1      30.153 -24.179  -2.881  0.00  0.00    -0.206 F 
ATOM     12  C   UNL d   1      29.516 -23.651  -0.673  0.00  0.00     0.086 A 
ATOM     13  C   UNL d   1      29.782 -22.957   0.508  0.00  0.00     0.147 A 
ATOM     14  F   UNL d   1      28.915 -23.085   1.523  0.00  0.00    -0.204 F 
ENDBRANCH   5   7
ENDBRANCH   3   5
BRANCH   2  15
ATOM     15  C   UNL d   1      32.975 -21.495   5.022  0.00  0.00     0.066 A 
ATOM     16  C   UNL d   1      34.322 -21.804   4.770  0.00  0.00     0.020 A 
ATOM     17  C   UNL d   1      35.171 -22.178   5.825  0.00  0.00     0.001 A 
ATOM     18  C   UNL d   1      34.684 -22.250   7.131  0.00  0.00     0.003 A 
ATOM     19  C   UNL d   1      33.347 -21.950   7.390  0.00  0.00     0.037 A 
ATOM     20  C   UNL d   1      32.501 -21.575   6.340  0.00  0.00     0.081 A 
BRANCH  20  21
ATOM     21  O   UNL d   1      31.183 -21.323   6.600  0.00  0.00    -0.360 OA
ATOM     22  H   UNL d   1      30.810 -20.745   5.916  0.00  0.00     0.217 HD
ENDBRANCH  20  21
ENDBRANCH   2  15
TORSDOF 4
ENDMDL
MODEL 7
REMARK VINA RESULT:    -5.351      4.418      7.727
REMARK INTER + INTRA:          -7.808
REMARK INTER:                  -6.544
REMARK INTRA:                  -1.264
REMARK CONF_INDEPENDENT:        1.193
REMARK UNBOUND:                -1.264
REMARK  4 active torsions:
REMARK  status: ('A' for Active; 'I' for Inactive)
REMARK       I    between atoms: C_2  and  N_3 
REMARK    1  A    between atoms: C_2  and  C_13 
REMARK    2  A    between atoms: N_3  and  N_4 
REMARK    3  A    between atoms: N_4  and  C_5 
REMARK    4  A    between atoms: C_18  and  O_19 
ROOT
ATOM      1  O   UNL d   1      24.343 -13.917  -4.189  0.00  0.00    -0.266 OA
ATOM      2  C   UNL d   1      25.530 -14.245  -4.111  0.00  0.00     0.272 C 
ATOM      3  N   UNL d   1      25.998 -15.126  -3.144  0.00  0.00    -0.265 N 
ATOM      4  H   UNL d   1      26.942 -15.494  -3.136  0.00  0.00     0.190 HD
ENDROOT
BRANCH   3   5
ATOM      5  N   UNL d   1      25.053 -15.712  -2.294  0.00  0.00    -0.295 N 
ATOM      6  H   UNL d   1      24.076 -15.423  -2.389  0.00  0.00     0.187 HD
BRANCH   5   7
ATOM      7  C   UNL d   1      25.461 -16.585  -1.279  0.00  0.00     0.086 A 
ATOM      8  C   UNL d   1      24.557 -17.440  -0.635  0.00  0.00     0.037 A 
ATOM      9  C   UNL d   1      24.964 -18.250   0.431  0.00  0.00     0.045 A 
ATOM     10  C   UNL d   1      26.279 -18.196   0.879  0.00  0.00     0.119 A 
ATOM     11  F   UNL d   1      26.654 -18.955   1.916  0.00  0.00    -0.206 F 
ATOM     12  C   UNL d   1      27.203 -17.365   0.265  0.00  0.00     0.086 A 
ATOM     13  C   UNL d   1      26.792 -16.580  -0.813  0.00  0.00     0.147 A 
ATOM     14  F   UNL d   1      27.698 -15.772  -1.386  0.00  0.00    -0.204 F 
ENDBRANCH   5   7
ENDBRANCH   3   5
BRANCH   2  15
ATOM     15  C   UNL d   1      26.532 -13.700  -5.077  0.00  0.00     0.066 A 
ATOM     16  C   UNL d   1      27.444 -14.531  -5.747  0.00  0.00     0.020 A 
ATOM     17  C   UNL d   1      28.309 -13.995  -6.716  0.00  0.00     0.001 A 
ATOM     18  C   UNL d   1      28.273 -12.634  -7.020  0.00  0.00     0.003 A 
ATOM     19  C   UNL d   1      27.374 -11.799  -6.356  0.00  0.00     0.037 A 
ATOM     20  C   UNL d   1      26.510 -12.332  -5.392  0.00  0.00     0.081 A 
BRANCH  20  21
ATOM     21  O   UNL d   1      25.662 -11.498  -4.719  0.00  0.00    -0.360 OA
ATOM     22  H   UNL d   1      24.759 -11.851  -4.736  0.00  0.00     0.217 HD
ENDBRANCH  20  21
ENDBRANCH   2  15
TORSDOF 4
ENDMDL
MODEL 8
REMARK VINA RESULT:    -5.216      4.774      8.045
REMARK INTER + INTRA:          -7.522
REMARK INTER:                  -6.409
REMARK INTRA:                  -1.113
REMARK CONF_INDEPENDENT:        1.193
REMARK UNBOUND:                -1.113
REMARK  4 active torsions:
REMARK  status: ('A' for Active; 'I' for Inactive)
REMARK       I    between atoms: C_2  and  N_3 
REMARK    1  A    between atoms: C_2  and  C_13 
REMARK    2  A    between atoms: N_3  and  N_4 
REMARK    3  A    between atoms: N_4  and  C_5 
REMARK    4  A    between atoms: C_18  and  O_19 
ROOT
ATOM      1  O   UNL d   1      27.267 -15.553  -5.410  0.00  0.00    -0.266 OA
ATOM      2  C   UNL d   1      26.969 -14.575  -4.719  0.00  0.00     0.272 C 
ATOM      3  N   UNL d   1      26.633 -14.686  -3.376  0.00  0.00    -0.265 N 
ATOM      4  H   UNL d   1      26.498 -13.887  -2.767  0.00  0.00     0.190 HD
ENDROOT
BRANCH   3   5
ATOM      5  N   UNL d   1      26.727 -15.954  -2.789  0.00  0.00    -0.295 N 
ATOM      6  H   UNL d   1      27.479 -16.574  -3.102  0.00  0.00     0.187 HD
BRANCH   5   7
ATOM      7  C   UNL d   1      25.753 -16.387  -1.883  0.00  0.00     0.086 A 
ATOM      8  C   UNL d   1      26.002 -17.425  -0.975  0.00  0.00     0.037 A 
ATOM      9  C   UNL d   1      24.992 -17.901  -0.130  0.00  0.00     0.045 A 
ATOM     10  C   UNL d   1      23.716 -17.356  -0.200  0.00  0.00     0.119 A 
ATOM     11  F   UNL d   1      22.750 -17.834   0.595  0.00  0.00    -0.206 F 
ATOM     12  C   UNL d   1      23.433 -16.325  -1.083  0.00  0.00     0.086 A 
ATOM     13  C   UNL d   1      24.453 -15.842  -1.904  0.00  0.00     0.147 A 
ATOM     14  F   UNL d   1      24.156 -14.853  -2.762  0.00  0.00    -0.204 F 
ENDBRANCH   5   7
ENDBRANCH   3   5
BRANCH   2  15
ATOM     15  C   UNL d   1      26.960 -13.203  -5.312  0.00  0.00     0.066 A 
ATOM     16  C   UNL d   1      27.847 -12.834  -6.337  0.00  0.00     0.020 A 
ATOM     17  C   UNL d   1      27.749 -11.566  -6.933  0.00  0.00     0.001 A 
ATOM     18  C   UNL d   1      26.774 -10.661  -6.512  0.00  0.00     0.003 A 
ATOM     19  C   UNL d   1      25.893 -11.016  -5.492  0.00  0.00     0.037 A 
ATOM     20  C   UNL d   1      25.988 -12.280  -4.898  0.00  0.00     0.081 A 
BRANCH  20  21
ATOM     21  O   UNL d   1      25.145 -12.602  -3.871  0.00  0.00    -0.360 OA
ATOM     22  H   UNL d   1      24.405 -11.976  -3.835  0.00  0.00     0.217 HD
ENDBRANCH  20  21
ENDBRANCH   2  15
TORSDOF 4
ENDMDL
MODEL 9
REMARK VINA RESULT:    -5.081      4.171      7.595
REMARK INTER + INTRA:          -7.552
REMARK INTER:                  -6.274
REMARK INTRA:                  -1.278
REMARK CONF_INDEPENDENT:        1.193
REMARK UNBOUND:                -1.278
REMARK  4 active torsions:
REMARK  status: ('A' for Active; 'I' for Inactive)
REMARK       I    between atoms: C_2  and  N_3 
REMARK    1  A    between atoms: C_2  and  C_13 
REMARK    2  A    between atoms: N_3  and  N_4 
REMARK    3  A    between atoms: N_4  and  C_5 
REMARK    4  A    between atoms: C_18  and  O_19 
ROOT
ATOM      1  O   UNL d   1      27.843 -14.504  -2.082  0.00  0.00    -0.266 OA
ATOM      2  C   UNL d   1      26.742 -14.219  -2.561  0.00  0.00     0.272 C 
ATOM      3  N   UNL d   1      25.601 -14.970  -2.306  0.00  0.00    -0.265 N 
ATOM      4  H   UNL d   1      24.672 -14.688  -2.595  0.00  0.00     0.190 HD
ENDROOT
BRANCH   3   5
ATOM      5  N   UNL d   1      25.716 -16.033  -1.402  0.00  0.00    -0.295 N 
ATOM      6  H   UNL d   1      26.645 -16.247  -1.028  0.00  0.00     0.187 HD
BRANCH   5   7
ATOM      7  C   UNL d   1      24.608 -16.834  -1.109  0.00  0.00     0.086 A 
ATOM      8  C   UNL d   1      23.297 -16.364  -1.262  0.00  0.00     0.037 A 
ATOM      9  C   UNL d   1      22.200 -17.149  -0.890  0.00  0.00     0.045 A 
ATOM     10  C   UNL d   1      22.406 -18.408  -0.338  0.00  0.00     0.119 A 
ATOM     11  F   UNL d   1      21.351 -19.143   0.039  0.00  0.00    -0.206 F 
ATOM     12  C   UNL d   1      23.688 -18.909  -0.174  0.00  0.00     0.086 A 
ATOM     13  C   UNL d   1      24.774 -18.128  -0.571  0.00  0.00     0.147 A 
ATOM     14  F   UNL d   1      26.007 -18.625  -0.392  0.00  0.00    -0.204 F 
ENDBRANCH   5   7
ENDBRANCH   3   5
BRANCH   2  15
ATOM     15  C   UNL d   1      26.589 -13.028  -3.450  0.00  0.00     0.066 A 
ATOM     16  C   UNL d   1      27.436 -11.913  -3.347  0.00  0.00     0.020 A 
ATOM     17  C   UNL d   1      27.322 -10.851  -4.260  0.00  0.00     0.001 A 
ATOM     18  C   UNL d   1      26.364 -10.892  -5.274  0.00  0.00     0.003 A 
ATOM     19  C   UNL d   1      25.514 -11.992  -5.381  0.00  0.00     0.037 A 
ATOM     20  C   UNL d   1      25.629 -13.052  -4.474  0.00  0.00     0.081 A 
BRANCH  20  21
ATOM     21  O   UNL d   1      24.763 -14.107  -4.564  0.00  0.00    -0.360 OA
ATOM     22  H   UNL d   1      23.949 -13.835  -5.015  0.00  0.00     0.217 HD
ENDBRANCH  20  21
ENDBRANCH   2  15
TORSDOF 4
ENDMDL
