MODEL 1
REMARK VINA RESULT:    -8.273      0.000      0.000
REMARK INTER + INTRA:         -13.271
REMARK INTER:                 -10.958
REMARK INTRA:                  -2.313
REMARK CONF_INDEPENDENT:        2.685
REMARK UNBOUND:                -2.313
REMARK  9 active torsions:
REMARK  status: ('A' for Active; 'I' for Inactive)
REMARK    1  A    between atoms: C_2  and  O_3 
REMARK    2  A    between atoms: O_3  and  C_4 
REMARK    3  A    between atoms: C_10  and  C_11 
REMARK       I    between atoms: C_11  and  N_13 
REMARK    4  A    between atoms: N_13  and  C_14 
REMARK    5  A    between atoms: C_14  and  N_16 
REMARK    6  A    between atoms: N_16  and  N_17 
REMARK       I    between atoms: N_17  and  C_18 
REMARK    7  A    between atoms: C_18  and  C_20 
REMARK    8  A    between atoms: C_20  and  O_21 
REMARK    9  A    between atoms: O_21  and  C_22 
ROOT
ATOM      1  C   UNL d   1      26.478 -12.673  -3.448  0.00  0.00     0.193 C 
ATOM      2  S   UNL d   1      26.555 -11.060  -2.950  0.00  0.00    -0.039 SA
ENDROOT
BRANCH   1   3
ATOM      3  N   UNL d   1      26.320 -13.783  -2.582  0.00  0.00    -0.298 N 
ATOM      4  C   UNL d   1      25.324 -14.790  -2.654  0.00  0.00     0.260 C 
ATOM      5  O   UNL d   1      24.446 -14.814  -3.520  0.00  0.00    -0.267 OA
ATOM      6  H   UNL d   1      26.965 -13.878  -1.804  0.00  0.00     0.171 HD
BRANCH   4   7
ATOM      7  C   UNL d   1      25.269 -15.936  -1.672  0.00  0.00     0.067 A 
ATOM      8  C   UNL d   1      24.029 -16.618  -1.546  0.00  0.00     0.039 A 
ATOM      9  C   UNL d   1      23.873 -17.702  -0.679  0.00  0.00     0.012 A 
ATOM     10  C   UNL d   1      24.949 -18.138   0.081  0.00  0.00     0.022 A 
ATOM     11 BR   UNL d   1      22.204 -18.578  -0.521  0.00  0.00    -0.051 Br
ATOM     12  C   UNL d   1      26.177 -17.477  -0.026  0.00  0.00     0.039 A 
ATOM     13  C   UNL d   1      26.347 -16.385  -0.902  0.00  0.00     0.084 A 
BRANCH  13  14
ATOM     14  O   UNL d   1      27.515 -15.674  -0.958  0.00  0.00    -0.350 OA
BRANCH  14  15
ATOM     15  C   UNL d   1      28.681 -16.454  -1.234  0.00  0.00     0.171 C 
ATOM     16  C   UNL d   1      28.940 -16.333  -2.723  0.00  0.00     0.034 C 
ENDBRANCH  14  15
ENDBRANCH  13  14
ENDBRANCH   4   7
ENDBRANCH   1   3
BRANCH   1  17
ATOM     17  N   UNL d   1      26.569 -12.970  -4.822  0.00  0.00    -0.273 N 
ATOM     18  H   UNL d   1      25.817 -12.890  -5.505  0.00  0.00     0.189 HD
BRANCH  17  19
ATOM     19  N   UNL d   1      27.836 -13.467  -5.360  0.00  0.00    -0.266 N 
ATOM     20  C   UNL d   1      27.981 -14.784  -5.788  0.00  0.00     0.260 C 
ATOM     21  O   UNL d   1      27.036 -15.572  -5.722  0.00  0.00    -0.269 OA
ATOM     22  H   UNL d   1      28.588 -12.778  -5.398  0.00  0.00     0.190 HD
BRANCH  20  23
ATOM     23  C   UNL d   1      29.395 -15.178  -6.338  0.00  0.00     0.280 C 
BRANCH  23  24
ATOM     24  O   UNL d   1      30.012 -16.144  -5.474  0.00  0.00    -0.342 OA
BRANCH  24  25
ATOM     25  C   UNL d   1      30.356 -17.368  -5.988  0.00  0.00     0.070 A 
ATOM     26  C   UNL d   1      30.780 -17.600  -7.295  0.00  0.00     0.043 A 
ATOM     27  C   UNL d   1      31.209 -18.882  -7.694  0.00  0.00    -0.059 A 
ATOM     28  C   UNL d   1      31.673 -19.130  -9.103  0.00  0.00     0.048 C 
ATOM     29  C   UNL d   1      31.210 -19.936  -6.766  0.00  0.00     0.013 A 
ATOM     30  C   UNL d   1      30.792 -19.718  -5.450  0.00  0.00    -0.059 A 
ATOM     31  C   UNL d   1      30.780 -20.831  -4.439  0.00  0.00     0.048 C 
ATOM     32  C   UNL d   1      30.382 -18.428  -5.072  0.00  0.00     0.043 A 
ENDBRANCH  24  25
ENDBRANCH  23  24
ENDBRANCH  20  23
ENDBRANCH  17  19
ENDBRANCH   1  17
TORSDOF 9
ENDMDL
MODEL 2
REMARK VINA RESULT:    -8.176      0.485      1.683
REMARK INTER + INTRA:         -13.255
REMARK INTER:                 -10.861
REMARK INTRA:                  -2.394
REMARK CONF_INDEPENDENT:        2.685
REMARK UNBOUND:                -2.394
REMARK  9 active torsions:
REMARK  status: ('A' for Active; 'I' for Inactive)
REMARK    1  A    between atoms: C_2  and  O_3 
REMARK    2  A    between atoms: O_3  and  C_4 
REMARK    3  A    between atoms: C_10  and  C_11 
REMARK       I    between atoms: C_11  and  N_13 
REMARK    4  A    between atoms: N_13  and  C_14 
REMARK    5  A    between atoms: C_14  and  N_16 
REMARK    6  A    between atoms: N_16  and  N_17 
REMARK       I    between atoms: N_17  and  C_18 
REMARK    7  A    between atoms: C_18  and  C_20 
REMARK    8  A    between atoms: C_20  and  O_21 
REMARK    9  A    between atoms: O_21  and  C_22 
ROOT
ATOM      1  C   UNL d   1      26.534 -12.450  -3.844  0.00  0.00     0.193 C 
ATOM      2  S   UNL d   1      26.338 -10.817  -3.454  0.00  0.00    -0.039 SA
ENDROOT
BRANCH   1   3
ATOM      3  N   UNL d   1      26.454 -13.520  -2.920  0.00  0.00    -0.298 N 
ATOM      4  C   UNL d   1      25.592 -14.645  -2.984  0.00  0.00     0.260 C 
ATOM      5  O   UNL d   1      24.780 -14.825  -3.895  0.00  0.00    -0.267 OA
ATOM      6  H   UNL d   1      27.055 -13.491  -2.102  0.00  0.00     0.171 HD
BRANCH   4   7
ATOM      7  C   UNL d   1      25.611 -15.731  -1.936  0.00  0.00     0.067 A 
ATOM      8  C   UNL d   1      24.400 -16.445  -1.725  0.00  0.00     0.039 A 
ATOM      9  C   UNL d   1      24.313 -17.479  -0.791  0.00  0.00     0.012 A 
ATOM     10  C   UNL d   1      25.428 -17.834  -0.047  0.00  0.00     0.022 A 
ATOM     11 BR   UNL d   1      22.681 -18.399  -0.521  0.00  0.00    -0.051 Br
ATOM     12  C   UNL d   1      26.629 -17.141  -0.237  0.00  0.00     0.039 A 
ATOM     13  C   UNL d   1      26.730 -16.098  -1.181  0.00  0.00     0.084 A 
BRANCH  13  14
ATOM     14  O   UNL d   1      27.870 -15.354  -1.321  0.00  0.00    -0.350 OA
BRANCH  14  15
ATOM     15  C   UNL d   1      28.750 -15.792  -2.360  0.00  0.00     0.171 C 
ATOM     16  C   UNL d   1      29.496 -16.995  -1.818  0.00  0.00     0.034 C 
ENDBRANCH  14  15
ENDBRANCH  13  14
ENDBRANCH   4   7
ENDBRANCH   1   3
BRANCH   1  17
ATOM     17  N   UNL d   1      26.791 -12.808  -5.182  0.00  0.00    -0.273 N 
ATOM     18  H   UNL d   1      26.161 -12.673  -5.972  0.00  0.00     0.189 HD
BRANCH  17  19
ATOM     19  N   UNL d   1      28.060 -13.458  -5.514  0.00  0.00    -0.266 N 
ATOM     20  C   UNL d   1      28.130 -14.820  -5.795  0.00  0.00     0.260 C 
ATOM     21  O   UNL d   1      27.115 -15.519  -5.770  0.00  0.00    -0.269 OA
ATOM     22  H   UNL d   1      28.871 -12.840  -5.525  0.00  0.00     0.190 HD
BRANCH  20  23
ATOM     23  C   UNL d   1      29.555 -15.382  -6.129  0.00  0.00     0.280 C 
BRANCH  23  24
ATOM     24  O   UNL d   1      29.954 -16.342  -5.141  0.00  0.00    -0.342 OA
BRANCH  24  25
ATOM     25  C   UNL d   1      30.394 -17.574  -5.553  0.00  0.00     0.070 A 
ATOM     26  C   UNL d   1      30.405 -18.726  -4.768  0.00  0.00     0.043 A 
ATOM     27  C   UNL d   1      30.784 -19.967  -5.321  0.00  0.00    -0.059 A 
ATOM     28  C   UNL d   1      30.790 -21.211  -4.476  0.00  0.00     0.048 C 
ATOM     29  C   UNL d   1      31.152 -20.044  -6.674  0.00  0.00     0.013 A 
ATOM     30  C   UNL d   1      31.142 -18.897  -7.475  0.00  0.00    -0.059 A 
ATOM     31  C   UNL d   1      31.536 -18.952  -8.924  0.00  0.00     0.048 C 
ATOM     32  C   UNL d   1      30.747 -17.674  -6.905  0.00  0.00     0.043 A 
ENDBRANCH  24  25
ENDBRANCH  23  24
ENDBRANCH  20  23
ENDBRANCH  17  19
ENDBRANCH   1  17
TORSDOF 9
ENDMDL
MODEL 3
REMARK VINA RESULT:    -7.509      4.155      8.125
REMARK INTER + INTRA:         -12.926
REMARK INTER:                 -10.194
REMARK INTRA:                  -2.732
REMARK CONF_INDEPENDENT:        2.685
REMARK UNBOUND:                -2.732
REMARK  9 active torsions:
REMARK  status: ('A' for Active; 'I' for Inactive)
REMARK    1  A    between atoms: C_2  and  O_3 
REMARK    2  A    between atoms: O_3  and  C_4 
REMARK    3  A    between atoms: C_10  and  C_11 
REMARK       I    between atoms: C_11  and  N_13 
REMARK    4  A    between atoms: N_13  and  C_14 
REMARK    5  A    between atoms: C_14  and  N_16 
REMARK    6  A    between atoms: N_16  and  N_17 
REMARK       I    between atoms: N_17  and  C_18 
REMARK    7  A    between atoms: C_18  and  C_20 
REMARK    8  A    between atoms: C_20  and  O_21 
REMARK    9  A    between atoms: O_21  and  C_22 
ROOT
ATOM      1  C   UNL d   1      26.443 -14.099  -4.701  0.00  0.00     0.193 C 
ATOM      2  S   UNL d   1      27.817 -13.902  -5.665  0.00  0.00    -0.039 SA
ENDROOT
BRANCH   1   3
ATOM      3  N   UNL d   1      26.313 -15.048  -3.657  0.00  0.00    -0.298 N 
ATOM      4  C   UNL d   1      25.155 -15.315  -2.882  0.00  0.00     0.260 C 
ATOM      5  O   UNL d   1      24.084 -14.724  -3.038  0.00  0.00    -0.267 OA
ATOM      6  H   UNL d   1      27.129 -15.594  -3.404  0.00  0.00     0.171 HD
BRANCH   4   7
ATOM      7  C   UNL d   1      25.140 -16.367  -1.799  0.00  0.00     0.067 A 
ATOM      8  C   UNL d   1      23.886 -16.967  -1.502  0.00  0.00     0.039 A 
ATOM      9  C   UNL d   1      23.762 -17.963  -0.530  0.00  0.00     0.012 A 
ATOM     10  C   UNL d   1      24.883 -18.390   0.167  0.00  0.00     0.022 A 
ATOM     11 BR   UNL d   1      22.076 -18.730  -0.145  0.00  0.00    -0.051 Br
ATOM     12  C   UNL d   1      26.125 -17.808  -0.108  0.00  0.00     0.039 A 
ATOM     13  C   UNL d   1      26.263 -16.807  -1.091  0.00  0.00     0.084 A 
BRANCH  13  14
ATOM     14  O   UNL d   1      27.452 -16.168  -1.315  0.00  0.00    -0.350 OA
BRANCH  14  15
ATOM     15  C   UNL d   1      27.987 -15.478  -0.182  0.00  0.00     0.171 C 
ATOM     16  C   UNL d   1      26.922 -14.499   0.272  0.00  0.00     0.034 C 
ENDBRANCH  14  15
ENDBRANCH  13  14
ENDBRANCH   4   7
ENDBRANCH   1   3
BRANCH   1  17
ATOM     17  N   UNL d   1      25.327 -13.268  -4.921  0.00  0.00    -0.273 N 
ATOM     18  H   UNL d   1      24.360 -13.574  -5.020  0.00  0.00     0.189 HD
BRANCH  17  19
ATOM     19  N   UNL d   1      25.530 -11.824  -5.051  0.00  0.00    -0.266 N 
ATOM     20  C   UNL d   1      26.276 -11.105  -4.120  0.00  0.00     0.260 C 
ATOM     21  O   UNL d   1      26.788 -11.673  -3.154  0.00  0.00    -0.269 OA
ATOM     22  H   UNL d   1      25.090 -11.399  -5.868  0.00  0.00     0.190 HD
BRANCH  20  23
ATOM     23  C   UNL d   1      26.406  -9.565  -4.384  0.00  0.00     0.280 C 
BRANCH  23  24
ATOM     24  O   UNL d   1      25.519  -9.166  -5.439  0.00  0.00    -0.342 OA
BRANCH  24  25
ATOM     25  C   UNL d   1      24.773  -8.026  -5.282  0.00  0.00     0.070 A 
ATOM     26  C   UNL d   1      23.638  -7.702  -6.023  0.00  0.00     0.043 A 
ATOM     27  C   UNL d   1      22.883  -6.552  -5.714  0.00  0.00    -0.059 A 
ATOM     28  C   UNL d   1      21.655  -6.205  -6.509  0.00  0.00     0.048 C 
ATOM     29  C   UNL d   1      23.277  -5.725  -4.649  0.00  0.00     0.013 A 
ATOM     30  C   UNL d   1      24.411  -6.040  -3.893  0.00  0.00    -0.059 A 
ATOM     31  C   UNL d   1      24.856  -5.170  -2.751  0.00  0.00     0.048 C 
ATOM     32  C   UNL d   1      25.140  -7.199  -4.212  0.00  0.00     0.043 A 
ENDBRANCH  24  25
ENDBRANCH  23  24
ENDBRANCH  20  23
ENDBRANCH  17  19
ENDBRANCH   1  17
TORSDOF 9
ENDMDL
MODEL 4
REMARK VINA RESULT:    -7.445      1.536      2.784
REMARK INTER + INTRA:         -13.925
REMARK INTER:                 -10.130
REMARK INTRA:                  -3.795
REMARK CONF_INDEPENDENT:        2.685
REMARK UNBOUND:                -3.795
REMARK  9 active torsions:
REMARK  status: ('A' for Active; 'I' for Inactive)
REMARK    1  A    between atoms: C_2  and  O_3 
REMARK    2  A    between atoms: O_3  and  C_4 
REMARK    3  A    between atoms: C_10  and  C_11 
REMARK       I    between atoms: C_11  and  N_13 
REMARK    4  A    between atoms: N_13  and  C_14 
REMARK    5  A    between atoms: C_14  and  N_16 
REMARK    6  A    between atoms: N_16  and  N_17 
REMARK       I    between atoms: N_17  and  C_18 
REMARK    7  A    between atoms: C_18  and  C_20 
REMARK    8  A    between atoms: C_20  and  O_21 
REMARK    9  A    between atoms: O_21  and  C_22 
ROOT
ATOM      1  C   UNL d   1      26.026 -11.851  -3.318  0.00  0.00     0.193 C 
ATOM      2  S   UNL d   1      26.238 -10.258  -2.797  0.00  0.00    -0.039 SA
ENDROOT
BRANCH   1   3
ATOM      3  N   UNL d   1      26.020 -12.987  -2.471  0.00  0.00    -0.298 N 
ATOM      4  C   UNL d   1      25.406 -14.241  -2.725  0.00  0.00     0.260 C 
ATOM      5  O   UNL d   1      24.783 -14.493  -3.760  0.00  0.00    -0.267 OA
ATOM      6  H   UNL d   1      26.480 -12.914  -1.570  0.00  0.00     0.171 HD
BRANCH   4   7
ATOM      7  C   UNL d   1      25.482 -15.384  -1.743  0.00  0.00     0.067 A 
ATOM      8  C   UNL d   1      24.405 -16.313  -1.751  0.00  0.00     0.039 A 
ATOM      9  C   UNL d   1      24.383 -17.416  -0.894  0.00  0.00     0.012 A 
ATOM     10  C   UNL d   1      25.432 -17.626  -0.012  0.00  0.00     0.022 A 
ATOM     11 BR   UNL d   1      22.927 -18.624  -0.917  0.00  0.00    -0.051 Br
ATOM     12  C   UNL d   1      26.499 -16.721   0.014  0.00  0.00     0.039 A 
ATOM     13  C   UNL d   1      26.535 -15.607  -0.849  0.00  0.00     0.084 A 
BRANCH  13  14
ATOM     14  O   UNL d   1      27.526 -14.666  -0.781  0.00  0.00    -0.350 OA
BRANCH  14  15
ATOM     15  C   UNL d   1      27.831 -14.209   0.540  0.00  0.00     0.171 C 
ATOM     16  C   UNL d   1      26.655 -13.362   0.987  0.00  0.00     0.034 C 
ENDBRANCH  14  15
ENDBRANCH  13  14
ENDBRANCH   4   7
ENDBRANCH   1   3
BRANCH   1  17
ATOM     17  N   UNL d   1      25.832 -12.103  -4.690  0.00  0.00    -0.273 N 
ATOM     18  H   UNL d   1      25.145 -11.652  -5.292  0.00  0.00     0.189 HD
BRANCH  17  19
ATOM     19  N   UNL d   1      26.657 -13.116  -5.351  0.00  0.00    -0.266 N 
ATOM     20  C   UNL d   1      27.739 -12.764  -6.155  0.00  0.00     0.260 C 
ATOM     21  O   UNL d   1      28.031 -11.580  -6.330  0.00  0.00    -0.269 OA
ATOM     22  H   UNL d   1      26.379 -14.081  -5.174  0.00  0.00     0.190 HD
BRANCH  20  23
ATOM     23  C   UNL d   1      28.530 -13.953  -6.803  0.00  0.00     0.280 C 
BRANCH  23  24
ATOM     24  O   UNL d   1      28.102 -15.200  -6.237  0.00  0.00    -0.342 OA
BRANCH  24  25
ATOM     25  C   UNL d   1      28.944 -15.865  -5.384  0.00  0.00     0.070 A 
ATOM     26  C   UNL d   1      28.816 -15.902  -3.997  0.00  0.00     0.043 A 
ATOM     27  C   UNL d   1      29.678 -16.701  -3.218  0.00  0.00    -0.059 A 
ATOM     28  C   UNL d   1      29.536 -16.746  -1.721  0.00  0.00     0.048 C 
ATOM     29  C   UNL d   1      30.674 -17.467  -3.844  0.00  0.00     0.013 A 
ATOM     30  C   UNL d   1      30.812 -17.444  -5.236  0.00  0.00    -0.059 A 
ATOM     31  C   UNL d   1      31.872 -18.252  -5.930  0.00  0.00     0.048 C 
ATOM     32  C   UNL d   1      29.932 -16.651  -5.992  0.00  0.00     0.043 A 
ENDBRANCH  24  25
ENDBRANCH  23  24
ENDBRANCH  20  23
ENDBRANCH  17  19
ENDBRANCH   1  17
TORSDOF 9
ENDMDL
MODEL 5
REMARK VINA RESULT:    -7.402      3.349      7.806
REMARK INTER + INTRA:         -13.320
REMARK INTER:                 -10.086
REMARK INTRA:                  -3.234
REMARK CONF_INDEPENDENT:        2.685
REMARK UNBOUND:                -3.234
REMARK  9 active torsions:
REMARK  status: ('A' for Active; 'I' for Inactive)
REMARK    1  A    between atoms: C_2  and  O_3 
REMARK    2  A    between atoms: O_3  and  C_4 
REMARK    3  A    between atoms: C_10  and  C_11 
REMARK       I    between atoms: C_11  and  N_13 
REMARK    4  A    between atoms: N_13  and  C_14 
REMARK    5  A    between atoms: C_14  and  N_16 
REMARK    6  A    between atoms: N_16  and  N_17 
REMARK       I    between atoms: N_17  and  C_18 
REMARK    7  A    between atoms: C_18  and  C_20 
REMARK    8  A    between atoms: C_20  and  O_21 
REMARK    9  A    between atoms: O_21  and  C_22 
ROOT
ATOM      1  C   UNL d   1      29.602 -16.845  -3.333  0.00  0.00     0.193 C 
ATOM      2  S   UNL d   1      29.828 -16.678  -1.667  0.00  0.00    -0.039 SA
ENDROOT
BRANCH   1   3
ATOM      3  N   UNL d   1      30.056 -17.941  -4.108  0.00  0.00    -0.298 N 
ATOM      4  C   UNL d   1      30.247 -17.976  -5.513  0.00  0.00     0.260 C 
ATOM      5  O   UNL d   1      30.030 -17.011  -6.250  0.00  0.00    -0.267 OA
ATOM      6  H   UNL d   1      30.253 -18.815  -3.630  0.00  0.00     0.171 HD
BRANCH   4   7
ATOM      7  C   UNL d   1      30.750 -19.209  -6.224  0.00  0.00     0.067 A 
ATOM      8  C   UNL d   1      30.948 -19.108  -7.628  0.00  0.00     0.039 A 
ATOM      9  C   UNL d   1      31.426 -20.183  -8.379  0.00  0.00     0.012 A 
ATOM     10  C   UNL d   1      31.724 -21.385  -7.754  0.00  0.00     0.022 A 
ATOM     11 BR   UNL d   1      31.663 -20.022 -10.250  0.00  0.00    -0.051 Br
ATOM     12  C   UNL d   1      31.531 -21.506  -6.373  0.00  0.00     0.039 A 
ATOM     13  C   UNL d   1      31.054 -20.425  -5.604  0.00  0.00     0.084 A 
BRANCH  13  14
ATOM     14  O   UNL d   1      30.780 -20.550  -4.269  0.00  0.00    -0.350 OA
BRANCH  14  15
ATOM     15  C   UNL d   1      31.097 -21.826  -3.706  0.00  0.00     0.171 C 
ATOM     16  C   UNL d   1      31.695 -21.560  -2.339  0.00  0.00     0.034 C 
ENDBRANCH  14  15
ENDBRANCH  13  14
ENDBRANCH   4   7
ENDBRANCH   1   3
BRANCH   1  17
ATOM     17  N   UNL d   1      28.909 -15.840  -4.034  0.00  0.00    -0.273 N 
ATOM     18  H   UNL d   1      29.198 -15.411  -4.913  0.00  0.00     0.189 HD
BRANCH  17  19
ATOM     19  N   UNL d   1      27.663 -15.312  -3.475  0.00  0.00    -0.266 N 
ATOM     20  C   UNL d   1      26.507 -15.201  -4.245  0.00  0.00     0.260 C 
ATOM     21  O   UNL d   1      26.506 -15.548  -5.428  0.00  0.00    -0.269 OA
ATOM     22  H   UNL d   1      27.711 -15.042  -2.493  0.00  0.00     0.190 HD
BRANCH  20  23
ATOM     23  C   UNL d   1      25.248 -14.616  -3.517  0.00  0.00     0.280 C 
BRANCH  23  24
ATOM     24  O   UNL d   1      25.426 -14.675  -2.095  0.00  0.00    -0.342 OA
BRANCH  24  25
ATOM     25  C   UNL d   1      25.250 -15.874  -1.454  0.00  0.00     0.070 A 
ATOM     26  C   UNL d   1      26.254 -16.596  -0.811  0.00  0.00     0.043 A 
ATOM     27  C   UNL d   1      25.947 -17.770  -0.093  0.00  0.00    -0.059 A 
ATOM     28  C   UNL d   1      27.030 -18.545   0.605  0.00  0.00     0.048 C 
ATOM     29  C   UNL d   1      24.618 -18.216  -0.023  0.00  0.00     0.013 A 
ATOM     30  C   UNL d   1      23.598 -17.500  -0.658  0.00  0.00    -0.059 A 
ATOM     31  C   UNL d   1      22.168 -17.959  -0.602  0.00  0.00     0.048 C 
ATOM     32  C   UNL d   1      23.927 -16.325  -1.357  0.00  0.00     0.043 A 
ENDBRANCH  24  25
ENDBRANCH  23  24
ENDBRANCH  20  23
ENDBRANCH  17  19
ENDBRANCH   1  17
TORSDOF 9
ENDMDL
MODEL 6
REMARK VINA RESULT:    -7.323      1.557      2.430
REMARK INTER + INTRA:         -13.765
REMARK INTER:                 -10.008
REMARK INTRA:                  -3.758
REMARK CONF_INDEPENDENT:        2.685
REMARK UNBOUND:                -3.758
REMARK  9 active torsions:
REMARK  status: ('A' for Active; 'I' for Inactive)
REMARK    1  A    between atoms: C_2  and  O_3 
REMARK    2  A    between atoms: O_3  and  C_4 
REMARK    3  A    between atoms: C_10  and  C_11 
REMARK       I    between atoms: C_11  and  N_13 
REMARK    4  A    between atoms: N_13  and  C_14 
REMARK    5  A    between atoms: C_14  and  N_16 
REMARK    6  A    between atoms: N_16  and  N_17 
REMARK       I    between atoms: N_17  and  C_18 
REMARK    7  A    between atoms: C_18  and  C_20 
REMARK    8  A    between atoms: C_20  and  O_21 
REMARK    9  A    between atoms: O_21  and  C_22 
ROOT
ATOM      1  C   UNL d   1      25.979 -11.826  -3.301  0.00  0.00     0.193 C 
ATOM      2  S   UNL d   1      26.141 -10.229  -2.773  0.00  0.00    -0.039 SA
ENDROOT
BRANCH   1   3
ATOM      3  N   UNL d   1      25.986 -12.965  -2.458  0.00  0.00    -0.298 N 
ATOM      4  C   UNL d   1      25.388 -14.225  -2.715  0.00  0.00     0.260 C 
ATOM      5  O   UNL d   1      24.770 -14.482  -3.751  0.00  0.00    -0.267 OA
ATOM      6  H   UNL d   1      26.444 -12.888  -1.556  0.00  0.00     0.171 HD
BRANCH   4   7
ATOM      7  C   UNL d   1      25.477 -15.370  -1.735  0.00  0.00     0.067 A 
ATOM      8  C   UNL d   1      24.405 -16.304  -1.737  0.00  0.00     0.039 A 
ATOM      9  C   UNL d   1      24.395 -17.408  -0.882  0.00  0.00     0.012 A 
ATOM     10  C   UNL d   1      25.452 -17.615  -0.008  0.00  0.00     0.022 A 
ATOM     11 BR   UNL d   1      22.945 -18.624  -0.896  0.00  0.00    -0.051 Br
ATOM     12  C   UNL d   1      26.514 -16.705   0.012  0.00  0.00     0.039 A 
ATOM     13  C   UNL d   1      26.538 -15.589  -0.850  0.00  0.00     0.084 A 
BRANCH  13  14
ATOM     14  O   UNL d   1      27.525 -14.643  -0.787  0.00  0.00    -0.350 OA
BRANCH  14  15
ATOM     15  C   UNL d   1      27.843 -14.193   0.533  0.00  0.00     0.171 C 
ATOM     16  C   UNL d   1      26.656 -13.381   1.011  0.00  0.00     0.034 C 
ENDBRANCH  14  15
ENDBRANCH  13  14
ENDBRANCH   4   7
ENDBRANCH   1   3
BRANCH   1  17
ATOM     17  N   UNL d   1      25.817 -12.079  -4.677  0.00  0.00    -0.273 N 
ATOM     18  H   UNL d   1      25.150 -11.623  -5.298  0.00  0.00     0.189 HD
BRANCH  17  19
ATOM     19  N   UNL d   1      26.648 -13.102  -5.316  0.00  0.00    -0.266 N 
ATOM     20  C   UNL d   1      27.733 -12.763  -6.120  0.00  0.00     0.260 C 
ATOM     21  O   UNL d   1      28.023 -11.581  -6.316  0.00  0.00    -0.269 OA
ATOM     22  H   UNL d   1      26.371 -14.064  -5.122  0.00  0.00     0.190 HD
BRANCH  20  23
ATOM     23  C   UNL d   1      28.530 -13.961  -6.742  0.00  0.00     0.280 C 
BRANCH  23  24
ATOM     24  O   UNL d   1      28.092 -15.200  -6.166  0.00  0.00    -0.342 OA
BRANCH  24  25
ATOM     25  C   UNL d   1      28.995 -15.966  -5.476  0.00  0.00     0.070 A 
ATOM     26  C   UNL d   1      30.060 -16.662  -6.047  0.00  0.00     0.043 A 
ATOM     27  C   UNL d   1      30.992 -17.339  -5.235  0.00  0.00    -0.059 A 
ATOM     28  C   UNL d   1      32.144 -18.084  -5.851  0.00  0.00     0.048 C 
ATOM     29  C   UNL d   1      30.849 -17.313  -3.838  0.00  0.00     0.013 A 
ATOM     30  C   UNL d   1      29.789 -16.615  -3.251  0.00  0.00    -0.059 A 
ATOM     31  C   UNL d   1      29.611 -16.575  -1.759  0.00  0.00     0.048 C 
ATOM     32  C   UNL d   1      28.880 -15.936  -4.080  0.00  0.00     0.043 A 
ENDBRANCH  24  25
ENDBRANCH  23  24
ENDBRANCH  20  23
ENDBRANCH  17  19
ENDBRANCH   1  17
TORSDOF 9
ENDMDL
MODEL 7
REMARK VINA RESULT:    -7.221      1.540      2.253
REMARK INTER + INTRA:         -13.075
REMARK INTER:                  -9.906
REMARK INTRA:                  -3.169
REMARK CONF_INDEPENDENT:        2.685
REMARK UNBOUND:                -3.169
REMARK  9 active torsions:
REMARK  status: ('A' for Active; 'I' for Inactive)
REMARK    1  A    between atoms: C_2  and  O_3 
REMARK    2  A    between atoms: O_3  and  C_4 
REMARK    3  A    between atoms: C_10  and  C_11 
REMARK       I    between atoms: C_11  and  N_13 
REMARK    4  A    between atoms: N_13  and  C_14 
REMARK    5  A    between atoms: C_14  and  N_16 
REMARK    6  A    between atoms: N_16  and  N_17 
REMARK       I    between atoms: N_17  and  C_18 
REMARK    7  A    between atoms: C_18  and  C_20 
REMARK    8  A    between atoms: C_20  and  O_21 
REMARK    9  A    between atoms: O_21  and  C_22 
ROOT
ATOM      1  C   UNL d   1      27.082 -14.287  -4.655  0.00  0.00     0.193 C 
ATOM      2  S   UNL d   1      26.413 -12.748  -4.850  0.00  0.00    -0.039 SA
ENDROOT
BRANCH   1   3
ATOM      3  N   UNL d   1      26.802 -15.163  -3.578  0.00  0.00    -0.298 N 
ATOM      4  C   UNL d   1      25.543 -15.389  -2.962  0.00  0.00     0.260 C 
ATOM      5  O   UNL d   1      24.506 -14.823  -3.315  0.00  0.00    -0.267 OA
ATOM      6  H   UNL d   1      27.573 -15.681  -3.170  0.00  0.00     0.171 HD
BRANCH   4   7
ATOM      7  C   UNL d   1      25.371 -16.364  -1.823  0.00  0.00     0.067 A 
ATOM      8  C   UNL d   1      24.078 -16.927  -1.646  0.00  0.00     0.039 A 
ATOM      9  C   UNL d   1      23.814 -17.852  -0.633  0.00  0.00     0.012 A 
ATOM     10  C   UNL d   1      24.830 -18.242   0.227  0.00  0.00     0.022 A 
ATOM     11 BR   UNL d   1      22.078 -18.571  -0.414  0.00  0.00    -0.051 Br
ATOM     12  C   UNL d   1      26.108 -17.695   0.073  0.00  0.00     0.039 A 
ATOM     13  C   UNL d   1      26.388 -16.766  -0.950  0.00  0.00     0.084 A 
BRANCH  13  14
ATOM     14  O   UNL d   1      27.608 -16.157  -1.064  0.00  0.00    -0.350 OA
BRANCH  14  15
ATOM     15  C   UNL d   1      28.552 -16.507  -0.048  0.00  0.00     0.171 C 
ATOM     16  C   UNL d   1      29.752 -17.103  -0.757  0.00  0.00     0.034 C 
ENDBRANCH  14  15
ENDBRANCH  13  14
ENDBRANCH   4   7
ENDBRANCH   1   3
BRANCH   1  17
ATOM     17  N   UNL d   1      27.985 -14.768  -5.623  0.00  0.00    -0.273 N 
ATOM     18  H   UNL d   1      28.126 -14.384  -6.557  0.00  0.00     0.189 HD
BRANCH  17  19
ATOM     19  N   UNL d   1      28.804 -15.940  -5.311  0.00  0.00    -0.266 N 
ATOM     20  C   UNL d   1      29.597 -15.994  -4.167  0.00  0.00     0.260 C 
ATOM     21  O   UNL d   1      29.628 -15.045  -3.382  0.00  0.00    -0.269 OA
ATOM     22  H   UNL d   1      28.743 -16.701  -5.989  0.00  0.00     0.190 HD
BRANCH  20  23
ATOM     23  C   UNL d   1      30.424 -17.310  -3.964  0.00  0.00     0.280 C 
BRANCH  23  24
ATOM     24  O   UNL d   1      30.057 -18.284  -4.952  0.00  0.00    -0.342 OA
BRANCH  24  25
ATOM     25  C   UNL d   1      30.742 -18.315  -6.139  0.00  0.00     0.070 A 
ATOM     26  C   UNL d   1      30.776 -19.396  -7.018  0.00  0.00     0.043 A 
ATOM     27  C   UNL d   1      31.428 -19.288  -8.263  0.00  0.00    -0.059 A 
ATOM     28  C   UNL d   1      31.460 -20.453  -9.214  0.00  0.00     0.048 C 
ATOM     29  C   UNL d   1      32.047 -18.080  -8.623  0.00  0.00     0.013 A 
ATOM     30  C   UNL d   1      32.017 -16.985  -7.755  0.00  0.00    -0.059 A 
ATOM     31  C   UNL d   1      32.675 -15.683  -8.115  0.00  0.00     0.048 C 
ATOM     32  C   UNL d   1      31.349 -17.112  -6.524  0.00  0.00     0.043 A 
ENDBRANCH  24  25
ENDBRANCH  23  24
ENDBRANCH  20  23
ENDBRANCH  17  19
ENDBRANCH   1  17
TORSDOF 9
ENDMDL
MODEL 8
REMARK VINA RESULT:    -6.584      2.845      6.134
REMARK INTER + INTRA:         -12.857
REMARK INTER:                  -9.269
REMARK INTRA:                  -3.588
REMARK CONF_INDEPENDENT:        2.685
REMARK UNBOUND:                -3.588
REMARK  9 active torsions:
REMARK  status: ('A' for Active; 'I' for Inactive)
REMARK    1  A    between atoms: C_2  and  O_3 
REMARK    2  A    between atoms: O_3  and  C_4 
REMARK    3  A    between atoms: C_10  and  C_11 
REMARK       I    between atoms: C_11  and  N_13 
REMARK    4  A    between atoms: N_13  and  C_14 
REMARK    5  A    between atoms: C_14  and  N_16 
REMARK    6  A    between atoms: N_16  and  N_17 
REMARK       I    between atoms: N_17  and  C_18 
REMARK    7  A    between atoms: C_18  and  C_20 
REMARK    8  A    between atoms: C_20  and  O_21 
REMARK    9  A    between atoms: O_21  and  C_22 
ROOT
ATOM      1  C   UNL d   1      27.209 -12.266  -5.850  0.00  0.00     0.193 C 
ATOM      2  S   UNL d   1      27.994 -11.420  -7.084  0.00  0.00    -0.039 SA
ENDROOT
BRANCH   1   3
ATOM      3  N   UNL d   1      27.811 -13.255  -5.034  0.00  0.00    -0.298 N 
ATOM      4  C   UNL d   1      28.101 -14.598  -5.390  0.00  0.00     0.260 C 
ATOM      5  O   UNL d   1      27.852 -15.073  -6.501  0.00  0.00    -0.267 OA
ATOM      6  H   UNL d   1      28.050 -13.007  -4.080  0.00  0.00     0.171 HD
BRANCH   4   7
ATOM      7  C   UNL d   1      28.760 -15.558  -4.429  0.00  0.00     0.067 A 
ATOM      8  C   UNL d   1      29.460 -16.657  -4.996  0.00  0.00     0.039 A 
ATOM      9  C   UNL d   1      30.119 -17.595  -4.198  0.00  0.00     0.012 A 
ATOM     10  C   UNL d   1      30.102 -17.462  -2.818  0.00  0.00     0.022 A 
ATOM     11 BR   UNL d   1      31.029 -19.058  -4.982  0.00  0.00    -0.051 Br
ATOM     12  C   UNL d   1      29.414 -16.389  -2.241  0.00  0.00     0.039 A 
ATOM     13  C   UNL d   1      28.750 -15.433  -3.036  0.00  0.00     0.084 A 
BRANCH  13  14
ATOM     14  O   UNL d   1      28.002 -14.426  -2.489  0.00  0.00    -0.350 OA
BRANCH  14  15
ATOM     15  C   UNL d   1      28.455 -13.966  -1.213  0.00  0.00     0.171 C 
ATOM     16  C   UNL d   1      28.928 -12.539  -1.409  0.00  0.00     0.034 C 
ENDBRANCH  14  15
ENDBRANCH  13  14
ENDBRANCH   4   7
ENDBRANCH   1   3
BRANCH   1  17
ATOM     17  N   UNL d   1      25.855 -11.985  -5.582  0.00  0.00    -0.273 N 
ATOM     18  H   UNL d   1      25.351 -11.140  -5.851  0.00  0.00     0.189 HD
BRANCH  17  19
ATOM     19  N   UNL d   1      25.061 -12.958  -4.829  0.00  0.00    -0.266 N 
ATOM     20  C   UNL d   1      25.323 -13.233  -3.489  0.00  0.00     0.260 C 
ATOM     21  O   UNL d   1      26.239 -12.658  -2.899  0.00  0.00    -0.269 OA
ATOM     22  H   UNL d   1      24.314 -13.406  -5.359  0.00  0.00     0.190 HD
BRANCH  20  23
ATOM     23  C   UNL d   1      24.397 -14.300  -2.811  0.00  0.00     0.280 C 
BRANCH  23  24
ATOM     24  O   UNL d   1      24.893 -15.622  -3.068  0.00  0.00    -0.342 OA
BRANCH  24  25
ATOM     25  C   UNL d   1      25.069 -16.480  -2.013  0.00  0.00     0.070 A 
ATOM     26  C   UNL d   1      26.173 -16.491  -1.162  0.00  0.00     0.043 A 
ATOM     27  C   UNL d   1      26.209 -17.348  -0.044  0.00  0.00    -0.059 A 
ATOM     28  C   UNL d   1      27.398 -17.356   0.877  0.00  0.00     0.048 C 
ATOM     29  C   UNL d   1      25.123 -18.200   0.217  0.00  0.00     0.013 A 
ATOM     30  C   UNL d   1      24.006 -18.197  -0.625  0.00  0.00    -0.059 A 
ATOM     31  C   UNL d   1      22.833 -19.101  -0.370  0.00  0.00     0.048 C 
ATOM     32  C   UNL d   1      23.987 -17.323  -1.726  0.00  0.00     0.043 A 
ENDBRANCH  24  25
ENDBRANCH  23  24
ENDBRANCH  20  23
ENDBRANCH  17  19
ENDBRANCH   1  17
TORSDOF 9
ENDMDL
MODEL 9
REMARK VINA RESULT:    -5.354      2.276      4.370
REMARK INTER + INTRA:         -13.118
REMARK INTER:                  -8.038
REMARK INTRA:                  -5.080
REMARK CONF_INDEPENDENT:        2.685
REMARK UNBOUND:                -5.080
REMARK  9 active torsions:
REMARK  status: ('A' for Active; 'I' for Inactive)
REMARK    1  A    between atoms: C_2  and  O_3 
REMARK    2  A    between atoms: O_3  and  C_4 
REMARK    3  A    between atoms: C_10  and  C_11 
REMARK       I    between atoms: C_11  and  N_13 
REMARK    4  A    between atoms: N_13  and  C_14 
REMARK    5  A    between atoms: C_14  and  N_16 
REMARK    6  A    between atoms: N_16  and  N_17 
REMARK       I    between atoms: N_17  and  C_18 
REMARK    7  A    between atoms: C_18  and  C_20 
REMARK    8  A    between atoms: C_20  and  O_21 
REMARK    9  A    between atoms: O_21  and  C_22 
ROOT
ATOM      1  C   UNL d   1      28.161 -13.423  -6.727  0.00  0.00     0.193 C 
ATOM      2  S   UNL d   1      27.779 -12.097  -7.702  0.00  0.00    -0.039 SA
ENDROOT
BRANCH   1   3
ATOM      3  N   UNL d   1      27.765 -13.577  -5.375  0.00  0.00    -0.298 N 
ATOM      4  C   UNL d   1      26.983 -14.626  -4.826  0.00  0.00     0.260 C 
ATOM      5  O   UNL d   1      26.544 -15.565  -5.495  0.00  0.00    -0.267 OA
ATOM      6  H   UNL d   1      28.039 -12.859  -4.713  0.00  0.00     0.171 HD
BRANCH   4   7
ATOM      7  C   UNL d   1      26.637 -14.684  -3.358  0.00  0.00     0.067 A 
ATOM      8  C   UNL d   1      25.876 -15.801  -2.919  0.00  0.00     0.039 A 
ATOM      9  C   UNL d   1      25.515 -15.961  -1.579  0.00  0.00     0.012 A 
ATOM     10  C   UNL d   1      25.905 -15.016  -0.642  0.00  0.00     0.022 A 
ATOM     11 BR   UNL d   1      24.486 -17.450  -1.029  0.00  0.00    -0.051 Br
ATOM     12  C   UNL d   1      26.651 -13.907  -1.055  0.00  0.00     0.039 A 
ATOM     13  C   UNL d   1      27.026 -13.738  -2.403  0.00  0.00     0.084 A 
BRANCH  13  14
ATOM     14  O   UNL d   1      27.682 -12.619  -2.840  0.00  0.00    -0.350 OA
BRANCH  14  15
ATOM     15  C   UNL d   1      26.908 -11.417  -2.805  0.00  0.00     0.171 C 
ATOM     16  C   UNL d   1      25.708 -11.647  -3.702  0.00  0.00     0.034 C 
ENDBRANCH  14  15
ENDBRANCH  13  14
ENDBRANCH   4   7
ENDBRANCH   1   3
BRANCH   1  17
ATOM     17  N   UNL d   1      28.924 -14.475  -7.270  0.00  0.00    -0.273 N 
ATOM     18  H   UNL d   1      29.241 -14.551  -8.235  0.00  0.00     0.189 HD
BRANCH  17  19
ATOM     19  N   UNL d   1      29.301 -15.598  -6.410  0.00  0.00    -0.266 N 
ATOM     20  C   UNL d   1      30.430 -16.371  -6.673  0.00  0.00     0.260 C 
ATOM     21  O   UNL d   1      31.145 -16.127  -7.646  0.00  0.00    -0.269 OA
ATOM     22  H   UNL d   1      28.682 -15.760  -5.616  0.00  0.00     0.190 HD
BRANCH  20  23
ATOM     23  C   UNL d   1      30.709 -17.544  -5.670  0.00  0.00     0.280 C 
BRANCH  23  24
ATOM     24  O   UNL d   1      29.726 -17.549  -4.626  0.00  0.00    -0.342 OA
BRANCH  24  25
ATOM     25  C   UNL d   1      29.867 -16.676  -3.578  0.00  0.00     0.070 A 
ATOM     26  C   UNL d   1      30.437 -15.407  -3.661  0.00  0.00     0.043 A 
ATOM     27  C   UNL d   1      30.442 -14.548  -2.544  0.00  0.00    -0.059 A 
ATOM     28  C   UNL d   1      31.052 -13.176  -2.635  0.00  0.00     0.048 C 
ATOM     29  C   UNL d   1      29.865 -14.972  -1.336  0.00  0.00     0.013 A 
ATOM     30  C   UNL d   1      29.285 -16.240  -1.238  0.00  0.00    -0.059 A 
ATOM     31  C   UNL d   1      28.665 -16.720   0.045  0.00  0.00     0.048 C 
ATOM     32  C   UNL d   1      29.280 -17.075  -2.369  0.00  0.00     0.043 A 
ENDBRANCH  24  25
ENDBRANCH  23  24
ENDBRANCH  20  23
ENDBRANCH  17  19
ENDBRANCH   1  17
TORSDOF 9
ENDMDL
