MODEL 1
REMARK VINA RESULT:    -7.862      0.000      0.000
REMARK INTER + INTRA:         -13.527
REMARK INTER:                 -10.547
REMARK INTRA:                  -2.980
REMARK CONF_INDEPENDENT:        2.685
REMARK UNBOUND:                -2.980
REMARK  9 active torsions:
REMARK  status: ('A' for Active; 'I' for Inactive)
REMARK    1  A    between atoms: CG_2  and  CB_4 
REMARK    2  A    between atoms: CA_5  and  CB_4 
REMARK    3  A    between atoms: CA_5  and  C_32 
REMARK    4  A    between atoms: CA_5  and  N_6 
REMARK       I    between atoms: N_6  and  C_7 
REMARK    5  A    between atoms: C_7  and  C_9 
REMARK    6  A    between atoms: C_9  and  C_10 
REMARK    7  A    between atoms: C_9  and  N_20 
REMARK    8  A    between atoms: C_10  and  C_11 
REMARK    9  A    between atoms: C_30  and  O_31 
ROOT
ATOM      1  C   UNK d   0      28.507 -13.551   1.825  0.00  0.00     0.188 C 
ENDROOT
BRANCH   1   2
ATOM      2  C   UNK d   0      28.553 -12.035   1.459  0.00  0.00     0.241 C 
ATOM      3  N   LEU d   1      27.325 -11.386   1.376  0.00  0.00    -0.345 N 
ATOM      4  H   LEU d   1      26.457 -11.898   1.340  0.00  0.00     0.163 HD
ATOM      5  O   UNK d   0      29.631 -11.449   1.362  0.00  0.00    -0.271 OA
BRANCH   3   6
ATOM      6  CA  LEU d   1      27.164  -9.939   1.173  0.00  0.00     0.185 C 
BRANCH   6   7
ATOM      7  C   LEU d   1      26.057  -9.262   2.055  0.00  0.00     0.196 C 
ATOM      8  O   LEU d   1      25.513  -8.223   1.575  0.00  0.00    -0.646 OA
ATOM      9  OXT LEU d   1      25.748  -9.890   3.112  0.00  0.00    -0.646 OA
ENDBRANCH   6   7
BRANCH   6  10
ATOM     10  CB  LEU d   1      27.030  -9.639  -0.319  0.00  0.00     0.040 C 
BRANCH  10  11
ATOM     11  CG  LEU d   1      27.489 -10.790  -1.264  0.00  0.00    -0.020 C 
ATOM     12  CD1 LEU d   1      26.656 -11.075  -2.518  0.00  0.00     0.009 C 
ATOM     13  CD2 LEU d   1      28.893 -10.464  -1.761  0.00  0.00     0.009 C 
ENDBRANCH  10  11
ENDBRANCH   6  10
ENDBRANCH   3   6
ENDBRANCH   1   2
BRANCH   1  14
ATOM     14  C   UNK d   0      27.475 -13.661   2.960  0.00  0.00     0.076 C 
BRANCH  14  15
ATOM     15  C   UNK d   0      28.029 -13.953   4.307  0.00  0.00    -0.028 A 
ATOM     16  C   UNK d   0      28.150 -15.196   4.892  0.00  0.00     0.096 A 
ATOM     17  N   UNK d   0      28.435 -15.015   6.217  0.00  0.00    -0.365 N 
ATOM     18  C   UNK d   0      28.546 -13.668   6.489  0.00  0.00     0.042 A 
ATOM     19  H   UNK d   0      28.447 -15.764   6.897  0.00  0.00     0.165 HD
ATOM     20  C   UNK d   0      28.770 -12.989   7.688  0.00  0.00     0.030 A 
ATOM     21  C   UNK d   0      28.327 -12.986   5.294  0.00  0.00    -0.002 A 
ATOM     22  C   UNK d   0      28.759 -11.586   7.644  0.00  0.00     0.002 A 
ATOM     23  C   UNK d   0      28.528 -10.890   6.460  0.00  0.00     0.001 A 
ATOM     24  C   UNK d   0      28.310 -11.582   5.275  0.00  0.00     0.014 A 
ENDBRANCH  14  15
ENDBRANCH   1  14
BRANCH   1  25
ATOM     25  N   UNK d   0      28.227 -14.385   0.598  0.00  0.00    -0.290 N 
ATOM     26  C   UNK d   0      26.945 -14.384   0.034  0.00  0.00     0.260 C 
ATOM     27  O   UNK d   0      26.337 -13.360  -0.296  0.00  0.00    -0.267 OA
ATOM     28  C   UNK d   0      26.316 -15.738  -0.133  0.00  0.00     0.058 A 
ATOM     29  C   UNK d   0      24.958 -15.893  -0.440  0.00  0.00     0.019 A 
ATOM     30  C   UNK d   0      27.119 -16.862   0.140  0.00  0.00     0.047 A 
ATOM     31  C   UNK d   0      24.400 -17.173  -0.501  0.00  0.00     0.001 A 
ATOM     32  C   UNK d   0      25.198 -18.293  -0.263  0.00  0.00     0.002 A 
ATOM     33  C   UNK d   0      26.550 -18.137   0.056  0.00  0.00     0.030 A 
ATOM     34  N   UNK d   0      28.464 -16.699   0.437  0.00  0.00    -0.346 N 
ATOM     35  C   UNK d   0      29.036 -15.449   0.091  0.00  0.00     0.332 C 
ATOM     36  H   UNK d   0      29.029 -17.452   0.787  0.00  0.00     0.164 HD
BRANCH  35  37
ATOM     37  O   UNK d   0      30.369 -15.424   0.494  0.00  0.00    -0.359 OA
ATOM     38  H   UNK d   0      30.372 -15.952   1.304  0.00  0.00     0.214 HD
ENDBRANCH  35  37
ENDBRANCH   1  25
TORSDOF 9
ENDMDL
MODEL 2
REMARK VINA RESULT:    -7.595      5.592      8.265
REMARK INTER + INTRA:         -13.009
REMARK INTER:                 -10.279
REMARK INTRA:                  -2.729
REMARK CONF_INDEPENDENT:        2.685
REMARK UNBOUND:                -2.729
REMARK  9 active torsions:
REMARK  status: ('A' for Active; 'I' for Inactive)
REMARK    1  A    between atoms: CG_2  and  CB_4 
REMARK    2  A    between atoms: CA_5  and  CB_4 
REMARK    3  A    between atoms: CA_5  and  C_32 
REMARK    4  A    between atoms: CA_5  and  N_6 
REMARK       I    between atoms: N_6  and  C_7 
REMARK    5  A    between atoms: C_7  and  C_9 
REMARK    6  A    between atoms: C_9  and  C_10 
REMARK    7  A    between atoms: C_9  and  N_20 
REMARK    8  A    between atoms: C_10  and  C_11 
REMARK    9  A    between atoms: C_30  and  O_31 
ROOT
ATOM      1  C   UNK d   0      26.506 -15.453  -3.315  0.00  0.00     0.188 C 
ENDROOT
BRANCH   1   2
ATOM      2  C   UNK d   0      28.029 -15.339  -2.997  0.00  0.00     0.241 C 
ATOM      3  N   LEU d   1      28.892 -15.952  -3.901  0.00  0.00    -0.345 N 
ATOM      4  H   LEU d   1      28.558 -16.605  -4.592  0.00  0.00     0.163 HD
ATOM      5  O   UNK d   0      28.419 -14.650  -2.056  0.00  0.00    -0.271 OA
BRANCH   3   6
ATOM      6  CA  LEU d   1      30.357 -15.846  -3.849  0.00  0.00     0.185 C 
BRANCH   6   7
ATOM      7  C   LEU d   1      30.931 -14.413  -4.128  0.00  0.00     0.196 C 
ATOM      8  O   LEU d   1      32.187 -14.330  -4.279  0.00  0.00    -0.646 OA
ATOM      9  OXT LEU d   1      30.064 -13.502  -4.281  0.00  0.00    -0.646 OA
ENDBRANCH   6   7
BRANCH   6  10
ATOM     10  CB  LEU d   1      30.984 -16.939  -4.712  0.00  0.00     0.040 C 
BRANCH  10  11
ATOM     11  CG  LEU d   1      30.435 -17.022  -6.168  0.00  0.00    -0.020 C 
ATOM     12  CD1 LEU d   1      30.949 -16.008  -7.196  0.00  0.00     0.009 C 
ATOM     13  CD2 LEU d   1      30.782 -18.397  -6.728  0.00  0.00     0.009 C 
ENDBRANCH  10  11
ENDBRANCH   6  10
ENDBRANCH   3   6
ENDBRANCH   1   2
BRANCH   1  14
ATOM     14  C   UNK d   0      25.790 -15.094  -2.001  0.00  0.00     0.076 C 
BRANCH  14  15
ATOM     15  C   UNK d   0      25.561 -16.223  -1.065  0.00  0.00    -0.028 A 
ATOM     16  C   UNK d   0      26.530 -16.998  -0.461  0.00  0.00     0.096 A 
ATOM     17  N   UNK d   0      25.917 -18.089   0.091  0.00  0.00    -0.365 N 
ATOM     18  C   UNK d   0      24.555 -18.007  -0.107  0.00  0.00     0.042 A 
ATOM     19  H   UNK d   0      26.417 -18.877   0.481  0.00  0.00     0.165 HD
ATOM     20  C   UNK d   0      23.525 -18.891   0.220  0.00  0.00     0.030 A 
ATOM     21  C   UNK d   0      24.309 -16.824  -0.802  0.00  0.00    -0.002 A 
ATOM     22  C   UNK d   0      22.227 -18.544  -0.187  0.00  0.00     0.002 A 
ATOM     23  C   UNK d   0      21.967 -17.372  -0.894  0.00  0.00     0.001 A 
ATOM     24  C   UNK d   0      23.004 -16.503  -1.208  0.00  0.00     0.014 A 
ENDBRANCH  14  15
ENDBRANCH   1  14
BRANCH   1  25
ATOM     25  N   UNK d   0      26.148 -14.604  -4.512  0.00  0.00    -0.290 N 
ATOM     26  C   UNK d   0      27.118 -14.329  -5.484  0.00  0.00     0.260 C 
ATOM     27  O   UNK d   0      27.780 -15.197  -6.064  0.00  0.00    -0.267 OA
ATOM     28  C   UNK d   0      27.336 -12.872  -5.779  0.00  0.00     0.058 A 
ATOM     29  C   UNK d   0      28.432 -12.422  -6.528  0.00  0.00     0.019 A 
ATOM     30  C   UNK d   0      26.455 -11.952  -5.179  0.00  0.00     0.047 A 
ATOM     31  C   UNK d   0      28.638 -11.050  -6.703  0.00  0.00     0.001 A 
ATOM     32  C   UNK d   0      27.750 -10.134  -6.138  0.00  0.00     0.002 A 
ATOM     33  C   UNK d   0      26.665 -10.584  -5.380  0.00  0.00     0.030 A 
ATOM     34  N   UNK d   0      25.370 -12.408  -4.444  0.00  0.00    -0.346 N 
ATOM     35  C   UNK d   0      25.001 -13.761  -4.644  0.00  0.00     0.332 C 
ATOM     36  H   UNK d   0      24.814 -11.794  -3.877  0.00  0.00     0.164 HD
BRANCH  35  37
ATOM     37  O   UNK d   0      23.934 -14.077  -3.806  0.00  0.00    -0.359 OA
ATOM     38  H   UNK d   0      23.184 -14.151  -4.412  0.00  0.00     0.214 HD
ENDBRANCH  35  37
ENDBRANCH   1  25
TORSDOF 9
ENDMDL
MODEL 3
REMARK VINA RESULT:    -7.260      5.585      8.473
REMARK INTER + INTRA:         -13.027
REMARK INTER:                  -9.945
REMARK INTRA:                  -3.082
REMARK CONF_INDEPENDENT:        2.685
REMARK UNBOUND:                -3.082
REMARK  9 active torsions:
REMARK  status: ('A' for Active; 'I' for Inactive)
REMARK    1  A    between atoms: CG_2  and  CB_4 
REMARK    2  A    between atoms: CA_5  and  CB_4 
REMARK    3  A    between atoms: CA_5  and  C_32 
REMARK    4  A    between atoms: CA_5  and  N_6 
REMARK       I    between atoms: N_6  and  C_7 
REMARK    5  A    between atoms: C_7  and  C_9 
REMARK    6  A    between atoms: C_9  and  C_10 
REMARK    7  A    between atoms: C_9  and  N_20 
REMARK    8  A    between atoms: C_10  and  C_11 
REMARK    9  A    between atoms: C_30  and  O_31 
ROOT
ATOM      1  C   UNK d   0      26.599 -15.468  -3.372  0.00  0.00     0.188 C 
ENDROOT
BRANCH   1   2
ATOM      2  C   UNK d   0      28.140 -15.434  -3.133  0.00  0.00     0.241 C 
ATOM      3  N   LEU d   1      28.922 -16.092  -4.076  0.00  0.00    -0.345 N 
ATOM      4  H   LEU d   1      28.520 -16.728  -4.747  0.00  0.00     0.163 HD
ATOM      5  O   UNK d   0      28.614 -14.764  -2.216  0.00  0.00    -0.271 OA
BRANCH   3   6
ATOM      6  CA  LEU d   1      30.392 -16.063  -4.100  0.00  0.00     0.185 C 
BRANCH   6   7
ATOM      7  C   LEU d   1      31.057 -16.947  -5.213  0.00  0.00     0.196 C 
ATOM      8  O   LEU d   1      32.325 -16.962  -5.236  0.00  0.00    -0.646 OA
ATOM      9  OXT LEU d   1      30.254 -17.639  -5.907  0.00  0.00    -0.646 OA
ENDBRANCH   6   7
BRANCH   6  10
ATOM     10  CB  LEU d   1      30.936 -16.329  -2.697  0.00  0.00     0.040 C 
BRANCH  10  11
ATOM     11  CG  LEU d   1      30.497 -17.686  -2.069  0.00  0.00    -0.020 C 
ATOM     12  CD1 LEU d   1      31.513 -18.832  -2.035  0.00  0.00     0.009 C 
ATOM     13  CD2 LEU d   1      30.106 -17.432  -0.618  0.00  0.00     0.009 C 
ENDBRANCH  10  11
ENDBRANCH   6  10
ENDBRANCH   3   6
ENDBRANCH   1   2
BRANCH   1  14
ATOM     14  C   UNK d   0      25.972 -15.062  -2.027  0.00  0.00     0.076 C 
BRANCH  14  15
ATOM     15  C   UNK d   0      25.705 -16.175  -1.080  0.00  0.00    -0.028 A 
ATOM     16  C   UNK d   0      26.647 -16.977  -0.471  0.00  0.00     0.096 A 
ATOM     17  N   UNK d   0      25.999 -18.042   0.091  0.00  0.00    -0.365 N 
ATOM     18  C   UNK d   0      24.639 -17.915  -0.106  0.00  0.00     0.042 A 
ATOM     19  H   UNK d   0      26.472 -18.843   0.487  0.00  0.00     0.165 HD
ATOM     20  C   UNK d   0      23.580 -18.759   0.230  0.00  0.00     0.030 A 
ATOM     21  C   UNK d   0      24.433 -16.730  -0.811  0.00  0.00    -0.002 A 
ATOM     22  C   UNK d   0      22.295 -18.372  -0.178  0.00  0.00     0.002 A 
ATOM     23  C   UNK d   0      22.074 -17.197  -0.895  0.00  0.00     0.001 A 
ATOM     24  C   UNK d   0      23.140 -16.367  -1.217  0.00  0.00     0.014 A 
ENDBRANCH  14  15
ENDBRANCH   1  14
BRANCH   1  25
ATOM     25  N   UNK d   0      26.226 -14.609  -4.557  0.00  0.00    -0.290 N 
ATOM     26  C   UNK d   0      27.181 -14.333  -5.543  0.00  0.00     0.260 C 
ATOM     27  O   UNK d   0      27.829 -15.200  -6.140  0.00  0.00    -0.267 OA
ATOM     28  C   UNK d   0      27.402 -12.874  -5.832  0.00  0.00     0.058 A 
ATOM     29  C   UNK d   0      28.488 -12.425  -6.595  0.00  0.00     0.019 A 
ATOM     30  C   UNK d   0      26.536 -11.955  -5.211  0.00  0.00     0.047 A 
ATOM     31  C   UNK d   0      28.698 -11.053  -6.765  0.00  0.00     0.001 A 
ATOM     32  C   UNK d   0      27.824 -10.137  -6.179  0.00  0.00     0.002 A 
ATOM     33  C   UNK d   0      26.749 -10.586  -5.406  0.00  0.00     0.030 A 
ATOM     34  N   UNK d   0      25.461 -12.409  -4.462  0.00  0.00    -0.346 N 
ATOM     35  C   UNK d   0      25.082 -13.759  -4.664  0.00  0.00     0.332 C 
ATOM     36  H   UNK d   0      24.917 -11.796  -3.881  0.00  0.00     0.164 HD
BRANCH  35  37
ATOM     37  O   UNK d   0      24.027 -14.075  -3.811  0.00  0.00    -0.359 OA
ATOM     38  H   UNK d   0      23.245 -13.979  -4.371  0.00  0.00     0.214 HD
ENDBRANCH  35  37
ENDBRANCH   1  25
TORSDOF 9
ENDMDL
MODEL 4
REMARK VINA RESULT:    -7.200      2.051      6.462
REMARK INTER + INTRA:         -12.964
REMARK INTER:                  -9.885
REMARK INTRA:                  -3.079
REMARK CONF_INDEPENDENT:        2.685
REMARK UNBOUND:                -3.079
REMARK  9 active torsions:
REMARK  status: ('A' for Active; 'I' for Inactive)
REMARK    1  A    between atoms: CG_2  and  CB_4 
REMARK    2  A    between atoms: CA_5  and  CB_4 
REMARK    3  A    between atoms: CA_5  and  C_32 
REMARK    4  A    between atoms: CA_5  and  N_6 
REMARK       I    between atoms: N_6  and  C_7 
REMARK    5  A    between atoms: C_7  and  C_9 
REMARK    6  A    between atoms: C_9  and  C_10 
REMARK    7  A    between atoms: C_9  and  N_20 
REMARK    8  A    between atoms: C_10  and  C_11 
REMARK    9  A    between atoms: C_30  and  O_31 
ROOT
ATOM      1  C   UNK d   0      26.654 -12.684  -0.969  0.00  0.00     0.188 C 
ENDROOT
BRANCH   1   2
ATOM      2  C   UNK d   0      26.785 -12.463   0.569  0.00  0.00     0.241 C 
ATOM      3  N   LEU d   1      26.654 -11.152   1.014  0.00  0.00    -0.345 N 
ATOM      4  H   LEU d   1      26.689 -10.371   0.378  0.00  0.00     0.163 HD
ATOM      5  O   UNK d   0      26.888 -13.424   1.330  0.00  0.00    -0.271 OA
BRANCH   3   6
ATOM      6  CA  LEU d   1      26.615 -10.757   2.430  0.00  0.00     0.185 C 
BRANCH   6   7
ATOM      7  C   LEU d   1      26.198  -9.267   2.694  0.00  0.00     0.196 C 
ATOM      8  O   LEU d   1      26.655  -8.734   3.750  0.00  0.00    -0.646 OA
ATOM      9  OXT LEU d   1      25.532  -8.718   1.766  0.00  0.00    -0.646 OA
ENDBRANCH   6   7
BRANCH   6  10
ATOM     10  CB  LEU d   1      27.920 -11.161   3.114  0.00  0.00     0.040 C 
BRANCH  10  11
ATOM     11  CG  LEU d   1      27.787 -12.321   4.147  0.00  0.00    -0.020 C 
ATOM     12  CD1 LEU d   1      28.529 -13.632   3.865  0.00  0.00     0.009 C 
ATOM     13  CD2 LEU d   1      28.314 -11.823   5.488  0.00  0.00     0.009 C 
ENDBRANCH  10  11
ENDBRANCH   6  10
ENDBRANCH   3   6
ENDBRANCH   1   2
BRANCH   1  14
ATOM     14  C   UNK d   0      27.580 -11.634  -1.608  0.00  0.00     0.076 C 
BRANCH  14  15
ATOM     15  C   UNK d   0      26.907 -10.599  -2.432  0.00  0.00    -0.028 A 
ATOM     16  C   UNK d   0      26.279  -9.462  -1.967  0.00  0.00     0.096 A 
ATOM     17  N   UNK d   0      25.553  -8.927  -2.996  0.00  0.00    -0.365 N 
ATOM     18  C   UNK d   0      25.741  -9.679  -4.137  0.00  0.00     0.042 A 
ATOM     19  H   UNK d   0      24.899  -8.163  -2.885  0.00  0.00     0.165 HD
ATOM     20  C   UNK d   0      25.182  -9.568  -5.411  0.00  0.00     0.030 A 
ATOM     21  C   UNK d   0      26.615 -10.714  -3.811  0.00  0.00    -0.002 A 
ATOM     22  C   UNK d   0      25.530 -10.549  -6.353  0.00  0.00     0.002 A 
ATOM     23  C   UNK d   0      26.392 -11.597  -6.038  0.00  0.00     0.001 A 
ATOM     24  C   UNK d   0      26.942 -11.690  -4.766  0.00  0.00     0.014 A 
ENDBRANCH  14  15
ENDBRANCH   1  14
BRANCH   1  25
ATOM     25  N   UNK d   0      26.946 -14.122  -1.326  0.00  0.00    -0.290 N 
ATOM     26  C   UNK d   0      25.963 -14.895  -1.957  0.00  0.00     0.260 C 
ATOM     27  O   UNK d   0      25.381 -14.561  -2.995  0.00  0.00    -0.267 OA
ATOM     28  C   UNK d   0      25.622 -16.187  -1.268  0.00  0.00     0.058 A 
ATOM     29  C   UNK d   0      24.497 -16.942  -1.622  0.00  0.00     0.019 A 
ATOM     30  C   UNK d   0      26.417 -16.561  -0.169  0.00  0.00     0.047 A 
ATOM     31  C   UNK d   0      24.175 -18.092  -0.896  0.00  0.00     0.001 A 
ATOM     32  C   UNK d   0      24.977 -18.487   0.175  0.00  0.00     0.002 A 
ATOM     33  C   UNK d   0      26.092 -17.725   0.536  0.00  0.00     0.030 A 
ATOM     34  N   UNK d   0      27.532 -15.809   0.171  0.00  0.00    -0.346 N 
ATOM     35  C   UNK d   0      28.017 -14.923  -0.822  0.00  0.00     0.332 C 
ATOM     36  H   UNK d   0      28.029 -15.951   1.032  0.00  0.00     0.164 HD
BRANCH  35  37
ATOM     37  O   UNK d   0      29.102 -14.211  -0.315  0.00  0.00    -0.359 OA
ATOM     38  H   UNK d   0      28.755 -13.817   0.496  0.00  0.00     0.214 HD
ENDBRANCH  35  37
ENDBRANCH   1  25
TORSDOF 9
ENDMDL
MODEL 5
REMARK VINA RESULT:    -6.905      4.806      7.291
REMARK INTER + INTRA:         -12.995
REMARK INTER:                  -9.590
REMARK INTRA:                  -3.405
REMARK CONF_INDEPENDENT:        2.685
REMARK UNBOUND:                -3.405
REMARK  9 active torsions:
REMARK  status: ('A' for Active; 'I' for Inactive)
REMARK    1  A    between atoms: CG_2  and  CB_4 
REMARK    2  A    between atoms: CA_5  and  CB_4 
REMARK    3  A    between atoms: CA_5  and  C_32 
REMARK    4  A    between atoms: CA_5  and  N_6 
REMARK       I    between atoms: N_6  and  C_7 
REMARK    5  A    between atoms: C_7  and  C_9 
REMARK    6  A    between atoms: C_9  and  C_10 
REMARK    7  A    between atoms: C_9  and  N_20 
REMARK    8  A    between atoms: C_10  and  C_11 
REMARK    9  A    between atoms: C_30  and  O_31 
ROOT
ATOM      1  C   UNK d   0      27.783 -14.222  -1.293  0.00  0.00     0.188 C 
ENDROOT
BRANCH   1   2
ATOM      2  C   UNK d   0      28.601 -13.757  -2.537  0.00  0.00     0.241 C 
ATOM      3  N   LEU d   1      28.299 -14.387  -3.740  0.00  0.00    -0.345 N 
ATOM      4  H   LEU d   1      27.750 -15.231  -3.773  0.00  0.00     0.163 HD
ATOM      5  O   UNK d   0      29.382 -12.810  -2.451  0.00  0.00    -0.271 OA
BRANCH   3   6
ATOM      6  CA  LEU d   1      28.862 -14.001  -5.042  0.00  0.00     0.185 C 
BRANCH   6   7
ATOM      7  C   LEU d   1      28.044 -14.482  -6.291  0.00  0.00     0.196 C 
ATOM      8  O   LEU d   1      28.530 -14.198  -7.426  0.00  0.00    -0.646 OA
ATOM      9  OXT LEU d   1      27.032 -15.201  -6.032  0.00  0.00    -0.646 OA
ENDBRANCH   6   7
BRANCH   6  10
ATOM     10  CB  LEU d   1      30.343 -14.376  -5.095  0.00  0.00     0.040 C 
BRANCH  10  11
ATOM     11  CG  LEU d   1      30.630 -15.906  -5.146  0.00  0.00    -0.020 C 
ATOM     12  CD1 LEU d   1      29.657 -16.851  -4.433  0.00  0.00     0.009 C 
ATOM     13  CD2 LEU d   1      30.637 -16.339  -6.607  0.00  0.00     0.009 C 
ENDBRANCH  10  11
ENDBRANCH   6  10
ENDBRANCH   3   6
ENDBRANCH   1   2
BRANCH   1  14
ATOM     14  C   UNK d   0      26.530 -13.329  -1.275  0.00  0.00     0.076 C 
BRANCH  14  15
ATOM     15  C   UNK d   0      25.980 -12.965  -2.605  0.00  0.00    -0.028 A 
ATOM     16  C   UNK d   0      25.091 -13.708  -3.355  0.00  0.00     0.096 A 
ATOM     17  N   UNK d   0      25.054 -13.177  -4.615  0.00  0.00    -0.365 N 
ATOM     18  C   UNK d   0      25.874 -12.070  -4.678  0.00  0.00     0.042 A 
ATOM     19  H   UNK d   0      24.579 -13.613  -5.395  0.00  0.00     0.165 HD
ATOM     20  C   UNK d   0      26.206 -11.233  -5.745  0.00  0.00     0.030 A 
ATOM     21  C   UNK d   0      26.439 -11.902  -3.415  0.00  0.00    -0.002 A 
ATOM     22  C   UNK d   0      27.140 -10.216  -5.497  0.00  0.00     0.002 A 
ATOM     23  C   UNK d   0      27.723 -10.043  -4.243  0.00  0.00     0.001 A 
ATOM     24  C   UNK d   0      27.378 -10.883  -3.192  0.00  0.00     0.014 A 
ENDBRANCH  14  15
ENDBRANCH   1  14
BRANCH   1  25
ATOM     25  N   UNK d   0      27.529 -15.710  -1.350  0.00  0.00    -0.290 N 
ATOM     26  C   UNK d   0      26.487 -16.207  -2.143  0.00  0.00     0.260 C 
ATOM     27  O   UNK d   0      26.349 -15.949  -3.344  0.00  0.00    -0.267 OA
ATOM     28  C   UNK d   0      25.497 -17.082  -1.426  0.00  0.00     0.058 A 
ATOM     29  C   UNK d   0      24.274 -17.446  -2.005  0.00  0.00     0.019 A 
ATOM     30  C   UNK d   0      25.793 -17.438  -0.097  0.00  0.00     0.047 A 
ATOM     31  C   UNK d   0      23.350 -18.191  -1.266  0.00  0.00     0.001 A 
ATOM     32  C   UNK d   0      23.651 -18.575   0.042  0.00  0.00     0.002 A 
ATOM     33  C   UNK d   0      24.866 -18.200   0.622  0.00  0.00     0.030 A 
ATOM     34  N   UNK d   0      27.009 -17.077   0.464  0.00  0.00    -0.346 N 
ATOM     35  C   UNK d   0      28.029 -16.693  -0.441  0.00  0.00     0.332 C 
ATOM     36  H   UNK d   0      27.193 -17.174   1.447  0.00  0.00     0.164 HD
BRANCH  35  37
ATOM     37  O   UNK d   0      29.164 -16.317   0.274  0.00  0.00    -0.359 OA
ATOM     38  H   UNK d   0      29.213 -16.973   0.982  0.00  0.00     0.214 HD
ENDBRANCH  35  37
ENDBRANCH   1  25
TORSDOF 9
ENDMDL
MODEL 6
REMARK VINA RESULT:    -6.717      2.115      5.920
REMARK INTER + INTRA:         -12.869
REMARK INTER:                  -9.402
REMARK INTRA:                  -3.467
REMARK CONF_INDEPENDENT:        2.685
REMARK UNBOUND:                -3.467
REMARK  9 active torsions:
REMARK  status: ('A' for Active; 'I' for Inactive)
REMARK    1  A    between atoms: CG_2  and  CB_4 
REMARK    2  A    between atoms: CA_5  and  CB_4 
REMARK    3  A    between atoms: CA_5  and  C_32 
REMARK    4  A    between atoms: CA_5  and  N_6 
REMARK       I    between atoms: N_6  and  C_7 
REMARK    5  A    between atoms: C_7  and  C_9 
REMARK    6  A    between atoms: C_9  and  C_10 
REMARK    7  A    between atoms: C_9  and  N_20 
REMARK    8  A    between atoms: C_10  and  C_11 
REMARK    9  A    between atoms: C_30  and  O_31 
ROOT
ATOM      1  C   UNK d   0      27.862 -13.281  -0.478  0.00  0.00     0.188 C 
ENDROOT
BRANCH   1   2
ATOM      2  C   UNK d   0      26.875 -13.835  -1.552  0.00  0.00     0.241 C 
ATOM      3  N   LEU d   1      27.002 -15.185  -1.863  0.00  0.00    -0.345 N 
ATOM      4  H   LEU d   1      27.809 -15.720  -1.582  0.00  0.00     0.163 HD
ATOM      5  O   UNK d   0      25.976 -13.124  -1.998  0.00  0.00    -0.271 OA
BRANCH   3   6
ATOM      6  CA  LEU d   1      26.087 -15.921  -2.747  0.00  0.00     0.185 C 
BRANCH   6   7
ATOM      7  C   LEU d   1      25.902 -15.303  -4.177  0.00  0.00     0.196 C 
ATOM      8  O   LEU d   1      24.920 -14.515  -4.327  0.00  0.00    -0.646 OA
ATOM      9  OXT LEU d   1      26.820 -15.575  -5.008  0.00  0.00    -0.646 OA
ENDBRANCH   6   7
BRANCH   6  10
ATOM     10  CB  LEU d   1      24.771 -16.190  -2.019  0.00  0.00     0.040 C 
BRANCH  10  11
ATOM     11  CG  LEU d   1      24.761 -17.473  -1.134  0.00  0.00    -0.020 C 
ATOM     12  CD1 LEU d   1      25.706 -17.530   0.072  0.00  0.00     0.009 C 
ATOM     13  CD2 LEU d   1      23.355 -17.649  -0.571  0.00  0.00     0.009 C 
ENDBRANCH  10  11
ENDBRANCH   6  10
ENDBRANCH   3   6
ENDBRANCH   1   2
BRANCH   1  14
ATOM     14  C   UNK d   0      27.710 -11.751  -0.541  0.00  0.00     0.076 C 
BRANCH  14  15
ATOM     15  C   UNK d   0      28.498 -10.985   0.458  0.00  0.00    -0.028 A 
ATOM     16  C   UNK d   0      29.841 -11.138   0.735  0.00  0.00     0.096 A 
ATOM     17  N   UNK d   0      30.115 -10.460   1.890  0.00  0.00    -0.365 N 
ATOM     18  C   UNK d   0      28.974  -9.830   2.342  0.00  0.00     0.042 A 
ATOM     19  H   UNK d   0      30.998 -10.518   2.380  0.00  0.00     0.165 HD
ATOM     20  C   UNK d   0      28.737  -9.072   3.490  0.00  0.00     0.030 A 
ATOM     21  C   UNK d   0      27.955 -10.121   1.436  0.00  0.00    -0.002 A 
ATOM     22  C   UNK d   0      27.426  -8.619   3.702  0.00  0.00     0.002 A 
ATOM     23  C   UNK d   0      26.394  -8.913   2.813  0.00  0.00     0.001 A 
ATOM     24  C   UNK d   0      26.649  -9.665   1.673  0.00  0.00     0.014 A 
ENDBRANCH  14  15
ENDBRANCH   1  14
BRANCH   1  25
ATOM     25  N   UNK d   0      27.595 -13.914   0.867  0.00  0.00    -0.290 N 
ATOM     26  C   UNK d   0      26.988 -13.162   1.880  0.00  0.00     0.260 C 
ATOM     27  O   UNK d   0      25.919 -12.556   1.745  0.00  0.00    -0.267 OA
ATOM     28  C   UNK d   0      27.741 -13.109   3.179  0.00  0.00     0.058 A 
ATOM     29  C   UNK d   0      27.405 -12.206   4.196  0.00  0.00     0.019 A 
ATOM     30  C   UNK d   0      28.878 -13.930   3.300  0.00  0.00     0.047 A 
ATOM     31  C   UNK d   0      28.189 -12.136   5.351  0.00  0.00     0.001 A 
ATOM     32  C   UNK d   0      29.299 -12.970   5.492  0.00  0.00     0.002 A 
ATOM     33  C   UNK d   0      29.641 -13.861   4.470  0.00  0.00     0.030 A 
ATOM     34  N   UNK d   0      29.200 -14.825   2.290  0.00  0.00    -0.346 N 
ATOM     35  C   UNK d   0      28.169 -15.124   1.366  0.00  0.00     0.332 C 
ATOM     36  H   UNK d   0      30.079 -15.310   2.267  0.00  0.00     0.164 HD
BRANCH  35  37
ATOM     37  O   UNK d   0      28.658 -15.993   0.393  0.00  0.00    -0.359 OA
ATOM     38  H   UNK d   0      29.320 -16.514   0.867  0.00  0.00     0.214 HD
ENDBRANCH  35  37
ENDBRANCH   1  25
TORSDOF 9
ENDMDL
MODEL 7
REMARK VINA RESULT:    -6.687      4.866      7.142
REMARK INTER + INTRA:         -13.313
REMARK INTER:                  -9.372
REMARK INTRA:                  -3.941
REMARK CONF_INDEPENDENT:        2.685
REMARK UNBOUND:                -3.941
REMARK  9 active torsions:
REMARK  status: ('A' for Active; 'I' for Inactive)
REMARK    1  A    between atoms: CG_2  and  CB_4 
REMARK    2  A    between atoms: CA_5  and  CB_4 
REMARK    3  A    between atoms: CA_5  and  C_32 
REMARK    4  A    between atoms: CA_5  and  N_6 
REMARK       I    between atoms: N_6  and  C_7 
REMARK    5  A    between atoms: C_7  and  C_9 
REMARK    6  A    between atoms: C_9  and  C_10 
REMARK    7  A    between atoms: C_9  and  N_20 
REMARK    8  A    between atoms: C_10  and  C_11 
REMARK    9  A    between atoms: C_30  and  O_31 
ROOT
ATOM      1  C   UNK d   0      26.552 -14.658  -2.525  0.00  0.00     0.188 C 
ENDROOT
BRANCH   1   2
ATOM      2  C   UNK d   0      27.118 -13.333  -1.928  0.00  0.00     0.241 C 
ATOM      3  N   LEU d   1      26.667 -12.155  -2.514  0.00  0.00    -0.345 N 
ATOM      4  H   LEU d   1      26.181 -12.154  -3.396  0.00  0.00     0.163 HD
ATOM      5  O   UNK d   0      27.835 -13.356  -0.928  0.00  0.00    -0.271 OA
BRANCH   3   6
ATOM      6  CA  LEU d   1      26.980 -10.808  -2.013  0.00  0.00     0.185 C 
BRANCH   6   7
ATOM      7  C   LEU d   1      26.214  -9.639  -2.726  0.00  0.00     0.196 C 
ATOM      8  O   LEU d   1      26.419  -8.473  -2.272  0.00  0.00    -0.646 OA
ATOM      9  OXT LEU d   1      25.549  -9.972  -3.753  0.00  0.00    -0.646 OA
ENDBRANCH   6   7
BRANCH   6  10
ATOM     10  CB  LEU d   1      28.495 -10.613  -1.968  0.00  0.00     0.040 C 
BRANCH  10  11
ATOM     11  CG  LEU d   1      29.222 -10.810  -3.332  0.00  0.00    -0.020 C 
ATOM     12  CD1 LEU d   1      30.337  -9.828  -3.708  0.00  0.00     0.009 C 
ATOM     13  CD2 LEU d   1      29.867 -12.192  -3.331  0.00  0.00     0.009 C 
ENDBRANCH  10  11
ENDBRANCH   6  10
ENDBRANCH   3   6
ENDBRANCH   1   2
BRANCH   1  14
ATOM     14  C   UNK d   0      25.283 -14.960  -1.708  0.00  0.00     0.076 C 
BRANCH  14  15
ATOM     15  C   UNK d   0      25.249 -16.284  -1.037  0.00  0.00    -0.028 A 
ATOM     16  C   UNK d   0      26.333 -17.094  -0.766  0.00  0.00     0.096 A 
ATOM     17  N   UNK d   0      25.862 -18.326  -0.405  0.00  0.00    -0.365 N 
ATOM     18  C   UNK d   0      24.483 -18.311  -0.394  0.00  0.00     0.042 A 
ATOM     19  H   UNK d   0      26.452 -19.138  -0.280  0.00  0.00     0.165 HD
ATOM     20  C   UNK d   0      23.557 -19.325  -0.145  0.00  0.00     0.030 A 
ATOM     21  C   UNK d   0      24.080 -17.027  -0.755  0.00  0.00    -0.002 A 
ATOM     22  C   UNK d   0      22.198 -19.002  -0.282  0.00  0.00     0.002 A 
ATOM     23  C   UNK d   0      21.780 -17.726  -0.656  0.00  0.00     0.001 A 
ATOM     24  C   UNK d   0      22.716 -16.729  -0.895  0.00  0.00     0.014 A 
ENDBRANCH  14  15
ENDBRANCH   1  14
BRANCH   1  25
ATOM     25  N   UNK d   0      26.358 -14.529  -4.017  0.00  0.00    -0.290 N 
ATOM     26  C   UNK d   0      27.427 -14.793  -4.882  0.00  0.00     0.260 C 
ATOM     27  O   UNK d   0      28.082 -15.841  -4.871  0.00  0.00    -0.267 OA
ATOM     28  C   UNK d   0      27.762 -13.688  -5.844  0.00  0.00     0.058 A 
ATOM     29  C   UNK d   0      28.947 -13.689  -6.591  0.00  0.00     0.019 A 
ATOM     30  C   UNK d   0      26.890 -12.584  -5.888  0.00  0.00     0.047 A 
ATOM     31  C   UNK d   0      29.254 -12.597  -7.408  0.00  0.00     0.001 A 
ATOM     32  C   UNK d   0      28.378 -11.513  -7.482  0.00  0.00     0.002 A 
ATOM     33  C   UNK d   0      27.203 -11.508  -6.725  0.00  0.00     0.030 A 
ATOM     34  N   UNK d   0      25.717 -12.595  -5.148  0.00  0.00    -0.346 N 
ATOM     35  C   UNK d   0      25.283 -13.859  -4.679  0.00  0.00     0.332 C 
ATOM     36  H   UNK d   0      25.152 -11.773  -5.031  0.00  0.00     0.164 HD
BRANCH  35  37
ATOM     37  O   UNK d   0      24.127 -13.698  -3.919  0.00  0.00    -0.359 OA
ATOM     38  H   UNK d   0      23.423 -13.661  -4.581  0.00  0.00     0.214 HD
ENDBRANCH  35  37
ENDBRANCH   1  25
TORSDOF 9
ENDMDL
MODEL 8
REMARK VINA RESULT:    -5.969      3.351      5.274
REMARK INTER + INTRA:         -12.847
REMARK INTER:                  -8.654
REMARK INTRA:                  -4.193
REMARK CONF_INDEPENDENT:        2.685
REMARK UNBOUND:                -4.193
REMARK  9 active torsions:
REMARK  status: ('A' for Active; 'I' for Inactive)
REMARK    1  A    between atoms: CG_2  and  CB_4 
REMARK    2  A    between atoms: CA_5  and  CB_4 
REMARK    3  A    between atoms: CA_5  and  C_32 
REMARK    4  A    between atoms: CA_5  and  N_6 
REMARK       I    between atoms: N_6  and  C_7 
REMARK    5  A    between atoms: C_7  and  C_9 
REMARK    6  A    between atoms: C_9  and  C_10 
REMARK    7  A    between atoms: C_9  and  N_20 
REMARK    8  A    between atoms: C_10  and  C_11 
REMARK    9  A    between atoms: C_30  and  O_31 
ROOT
ATOM      1  C   UNK d   0      29.026 -14.716  -0.474  0.00  0.00     0.188 C 
ENDROOT
BRANCH   1   2
ATOM      2  C   UNK d   0      29.292 -14.495  -1.995  0.00  0.00     0.241 C 
ATOM      3  N   LEU d   1      29.135 -15.609  -2.814  0.00  0.00    -0.345 N 
ATOM      4  H   LEU d   1      29.067 -16.540  -2.434  0.00  0.00     0.163 HD
ATOM      5  O   UNK d   0      29.518 -13.367  -2.430  0.00  0.00    -0.271 OA
BRANCH   3   6
ATOM      6  CA  LEU d   1      29.211 -15.576  -4.282  0.00  0.00     0.185 C 
BRANCH   6   7
ATOM      7  C   LEU d   1      27.921 -15.048  -5.003  0.00  0.00     0.196 C 
ATOM      8  O   LEU d   1      27.780 -15.383  -6.217  0.00  0.00    -0.646 OA
ATOM      9  OXT LEU d   1      27.101 -14.428  -4.262  0.00  0.00    -0.646 OA
ENDBRANCH   6   7
BRANCH   6  10
ATOM     10  CB  LEU d   1      29.699 -16.926  -4.804  0.00  0.00     0.040 C 
BRANCH  10  11
ATOM     11  CG  LEU d   1      30.419 -16.874  -6.184  0.00  0.00    -0.020 C 
ATOM     12  CD1 LEU d   1      31.720 -16.072  -6.294  0.00  0.00     0.009 C 
ATOM     13  CD2 LEU d   1      30.774 -18.301  -6.588  0.00  0.00     0.009 C 
ENDBRANCH  10  11
ENDBRANCH   6  10
ENDBRANCH   3   6
ENDBRANCH   1   2
BRANCH   1  14
ATOM     14  C   UNK d   0      29.792 -13.588   0.239  0.00  0.00     0.076 C 
BRANCH  14  15
ATOM     15  C   UNK d   0      30.138 -13.844   1.660  0.00  0.00    -0.028 A 
ATOM     16  C   UNK d   0      31.338 -14.330   2.137  0.00  0.00     0.096 A 
ATOM     17  N   UNK d   0      31.161 -14.685   3.446  0.00  0.00    -0.365 N 
ATOM     18  C   UNK d   0      29.872 -14.391   3.837  0.00  0.00     0.042 A 
ATOM     19  H   UNK d   0      31.850 -15.187   3.991  0.00  0.00     0.165 HD
ATOM     20  C   UNK d   0      29.206 -14.613   5.044  0.00  0.00     0.030 A 
ATOM     21  C   UNK d   0      29.224 -13.830   2.738  0.00  0.00    -0.002 A 
ATOM     22  C   UNK d   0      27.850 -14.254   5.105  0.00  0.00     0.002 A 
ATOM     23  C   UNK d   0      27.185 -13.706   4.010  0.00  0.00     0.001 A 
ATOM     24  C   UNK d   0      27.865 -13.489   2.818  0.00  0.00     0.014 A 
ENDBRANCH  14  15
ENDBRANCH   1  14
BRANCH   1  25
ATOM     25  N   UNK d   0      27.543 -14.780  -0.197  0.00  0.00    -0.290 N 
ATOM     26  C   UNK d   0      27.027 -15.816   0.591  0.00  0.00     0.260 C 
ATOM     27  O   UNK d   0      27.438 -16.094   1.723  0.00  0.00    -0.267 OA
ATOM     28  C   UNK d   0      25.923 -16.616  -0.042  0.00  0.00     0.058 A 
ATOM     29  C   UNK d   0      25.480 -17.829   0.501  0.00  0.00     0.019 A 
ATOM     30  C   UNK d   0      25.419 -16.158  -1.274  0.00  0.00     0.047 A 
ATOM     31  C   UNK d   0      24.510 -18.578  -0.171  0.00  0.00     0.001 A 
ATOM     32  C   UNK d   0      23.982 -18.114  -1.377  0.00  0.00     0.002 A 
ATOM     33  C   UNK d   0      24.435 -16.911  -1.924  0.00  0.00     0.030 A 
ATOM     34  N   UNK d   0      25.861 -14.954  -1.801  0.00  0.00    -0.346 N 
ATOM     35  C   UNK d   0      26.516 -14.078  -0.901  0.00  0.00     0.332 C 
ATOM     36  H   UNK d   0      25.646 -14.671  -2.740  0.00  0.00     0.164 HD
BRANCH  35  37
ATOM     37  O   UNK d   0      26.938 -12.941  -1.587  0.00  0.00    -0.359 OA
ATOM     38  H   UNK d   0      27.330 -13.297  -2.396  0.00  0.00     0.214 HD
ENDBRANCH  35  37
ENDBRANCH   1  25
TORSDOF 9
ENDMDL
MODEL 9
REMARK VINA RESULT:    -5.809      5.034      7.064
REMARK INTER + INTRA:         -13.182
REMARK INTER:                  -8.494
REMARK INTRA:                  -4.688
REMARK CONF_INDEPENDENT:        2.685
REMARK UNBOUND:                -4.688
REMARK  9 active torsions:
REMARK  status: ('A' for Active; 'I' for Inactive)
REMARK    1  A    between atoms: CG_2  and  CB_4 
REMARK    2  A    between atoms: CA_5  and  CB_4 
REMARK    3  A    between atoms: CA_5  and  C_32 
REMARK    4  A    between atoms: CA_5  and  N_6 
REMARK       I    between atoms: N_6  and  C_7 
REMARK    5  A    between atoms: C_7  and  C_9 
REMARK    6  A    between atoms: C_9  and  C_10 
REMARK    7  A    between atoms: C_9  and  N_20 
REMARK    8  A    between atoms: C_10  and  C_11 
REMARK    9  A    between atoms: C_30  and  O_31 
ROOT
ATOM      1  C   UNK d   0      26.986 -14.630  -2.068  0.00  0.00     0.188 C 
ENDROOT
BRANCH   1   2
ATOM      2  C   UNK d   0      27.103 -13.080  -2.201  0.00  0.00     0.241 C 
ATOM      3  N   LEU d   1      26.516 -12.515  -3.328  0.00  0.00    -0.345 N 
ATOM      4  H   LEU d   1      26.225 -13.078  -4.113  0.00  0.00     0.163 HD
ATOM      5  O   UNK d   0      27.595 -12.412  -1.292  0.00  0.00    -0.271 OA
BRANCH   3   6
ATOM      6  CA  LEU d   1      26.405 -11.069  -3.568  0.00  0.00     0.185 C 
BRANCH   6   7
ATOM      7  C   LEU d   1      25.811 -10.670  -4.964  0.00  0.00     0.196 C 
ATOM      8  O   LEU d   1      25.769  -9.430  -5.224  0.00  0.00    -0.646 OA
ATOM      9  OXT LEU d   1      25.531 -11.639  -5.732  0.00  0.00    -0.646 OA
ENDBRANCH   6   7
BRANCH   6  10
ATOM     10  CB  LEU d   1      27.735 -10.389  -3.249  0.00  0.00     0.040 C 
BRANCH  10  11
ATOM     11  CG  LEU d   1      28.844 -10.577  -4.328  0.00  0.00    -0.020 C 
ATOM     12  CD1 LEU d   1      29.907  -9.483  -4.474  0.00  0.00     0.009 C 
ATOM     13  CD2 LEU d   1      29.605 -11.859  -4.007  0.00  0.00     0.009 C 
ENDBRANCH  10  11
ENDBRANCH   6  10
ENDBRANCH   3   6
ENDBRANCH   1   2
BRANCH   1  14
ATOM     14  C   UNK d   0      25.632 -14.876  -1.379  0.00  0.00     0.076 C 
BRANCH  14  15
ATOM     15  C   UNK d   0      25.461 -16.214  -0.757  0.00  0.00    -0.028 A 
ATOM     16  C   UNK d   0      26.468 -17.086  -0.397  0.00  0.00     0.096 A 
ATOM     17  N   UNK d   0      25.900 -18.300  -0.128  0.00  0.00    -0.365 N 
ATOM     18  C   UNK d   0      24.530 -18.214  -0.264  0.00  0.00     0.042 A 
ATOM     19  H   UNK d   0      26.431 -19.146   0.035  0.00  0.00     0.165 HD
ATOM     20  C   UNK d   0      23.533 -19.184  -0.148  0.00  0.00     0.030 A 
ATOM     21  C   UNK d   0      24.233 -16.902  -0.626  0.00  0.00    -0.002 A 
ATOM     22  C   UNK d   0      22.215 -18.786  -0.419  0.00  0.00     0.002 A 
ATOM     23  C   UNK d   0      21.904 -17.481  -0.795  0.00  0.00     0.001 A 
ATOM     24  C   UNK d   0      22.908 -16.528  -0.902  0.00  0.00     0.014 A 
ENDBRANCH  14  15
ENDBRANCH   1  14
BRANCH   1  25
ATOM     25  N   UNK d   0      27.170 -15.294  -3.412  0.00  0.00    -0.290 N 
ATOM     26  C   UNK d   0      28.372 -15.950  -3.704  0.00  0.00     0.260 C 
ATOM     27  O   UNK d   0      28.869 -16.831  -2.994  0.00  0.00    -0.267 OA
ATOM     28  C   UNK d   0      29.061 -15.496  -4.960  0.00  0.00     0.058 A 
ATOM     29  C   UNK d   0      30.380 -15.865  -5.257  0.00  0.00     0.019 A 
ATOM     30  C   UNK d   0      28.371 -14.588  -5.784  0.00  0.00     0.047 A 
ATOM     31  C   UNK d   0      31.007 -15.347  -6.394  0.00  0.00     0.001 A 
ATOM     32  C   UNK d   0      30.317 -14.472  -7.233  0.00  0.00     0.002 A 
ATOM     33  C   UNK d   0      29.006 -14.094  -6.928  0.00  0.00     0.030 A 
ATOM     34  N   UNK d   0      27.064 -14.233  -5.485  0.00  0.00    -0.346 N 
ATOM     35  C   UNK d   0      26.376 -15.080  -4.581  0.00  0.00     0.332 C 
ATOM     36  H   UNK d   0      26.595 -13.478  -5.952  0.00  0.00     0.164 HD
BRANCH  35  37
ATOM     37  O   UNK d   0      25.102 -14.568  -4.347  0.00  0.00    -0.359 OA
ATOM     38  H   UNK d   0      25.085 -13.755  -4.869  0.00  0.00     0.214 HD
ENDBRANCH  35  37
ENDBRANCH   1  25
TORSDOF 9
ENDMDL
