MODEL 1
REMARK VINA RESULT:   -28.674      0.000      0.000
REMARK INTER + INTRA:         -30.959
REMARK INTER:                 -30.165
REMARK INTRA:                  -0.794
REMARK CONF_INDEPENDENT:        1.492
REMARK UNBOUND:                -0.794
REMARK  5 active torsions:
REMARK  status: ('A' for Active; 'I' for Inactive)
REMARK    1  A    between atoms: C_5  and  N_6 
REMARK    2  A    between atoms: N_6  and  C_7 
REMARK    3  A    between atoms: C_7  and  C_8 
REMARK    4  A    between atoms: C_8  and  C_9 
REMARK       I    between atoms: C_9  and  N_11 
REMARK    5  A    between atoms: N_11  and  N_12 
ROOT
ATOM      1  N   UNL d   1      25.446 -17.950  -0.181  0.00  0.00    -0.388 N 
ATOM      2  H   UNL d   1      26.282 -18.438   0.127  0.00  0.00     0.159 HD
ENDROOT
BRANCH   1   3
ATOM      3  C   UNL d   1      25.629 -16.869  -1.043  0.00  0.00     0.050 A 
ATOM      4  C   UNL d   1      24.548 -16.205  -1.643  0.00  0.00     0.031 A 
ATOM      5  C   UNL d   1      24.733 -15.125  -2.515  0.00  0.00     0.009 A 
ATOM      6  C   UNL d   1      26.017 -14.674  -2.820  0.00  0.00    -0.060 A 
ATOM      7  C   UNL d   1      26.232 -13.553  -3.793  0.00  0.00     0.048 C 
ATOM      8  C   UNL d   1      27.111 -15.305  -2.220  0.00  0.00     0.033 A 
ATOM      9  C   UNL d   1      26.919 -16.387  -1.349  0.00  0.00     0.060 A 
ATOM     10 CL   UNL d   1      28.326 -17.133  -0.665  0.00  0.00    -0.082 Cl
ENDBRANCH   1   3
BRANCH   1  11
ATOM     11  C   UNL d   1      24.127 -18.394   0.242  0.00  0.00     0.129 C 
BRANCH  11  12
ATOM     12  C   UNL d   1      23.289 -18.931  -0.916  0.00  0.00     0.123 C 
BRANCH  12  13
ATOM     13  C   UNL d   1      21.918 -18.277  -0.886  0.00  0.00     0.233 C 
ATOM     14  O   UNL d   1      21.748 -17.056  -0.895  0.00  0.00    -0.272 OA
ATOM     15  N   UNL d   1      20.852 -19.167  -0.825  0.00  0.00    -0.294 N 
ATOM     16  H   UNL d   1      20.996 -20.169  -0.926  0.00  0.00     0.183 HD
BRANCH  15  17
ATOM     17  N   UNL d   1      19.530 -18.660  -0.895  0.00  0.00    -0.247 NA
ATOM     18  H   UNL d   1      19.053 -19.169  -1.656  0.00  0.00     0.143 HD
ATOM     19  H   UNL d   1      19.565 -17.692  -1.224  0.00  0.00     0.143 HD
ENDBRANCH  15  17
ENDBRANCH  12  13
ENDBRANCH  11  12
ENDBRANCH   1  11
TORSDOF 5
ENDMDL
MODEL 2
REMARK VINA RESULT:   -28.399      1.316      1.576
REMARK INTER + INTRA:         -31.289
REMARK INTER:                 -29.890
REMARK INTRA:                  -1.399
REMARK CONF_INDEPENDENT:        1.492
REMARK UNBOUND:                -1.399
REMARK  5 active torsions:
REMARK  status: ('A' for Active; 'I' for Inactive)
REMARK    1  A    between atoms: C_5  and  N_6 
REMARK    2  A    between atoms: N_6  and  C_7 
REMARK    3  A    between atoms: C_7  and  C_8 
REMARK    4  A    between atoms: C_8  and  C_9 
REMARK       I    between atoms: C_9  and  N_11 
REMARK    5  A    between atoms: N_11  and  N_12 
ROOT
ATOM      1  N   UNL d   1      24.036 -17.129  -1.472  0.00  0.00    -0.388 N 
ATOM      2  H   UNL d   1      23.561 -17.596  -2.239  0.00  0.00     0.159 HD
ENDROOT
BRANCH   1   3
ATOM      3  C   UNL d   1      25.177 -16.394  -1.792  0.00  0.00     0.050 A 
ATOM      4  C   UNL d   1      25.139 -15.317  -2.691  0.00  0.00     0.031 A 
ATOM      5  C   UNL d   1      26.287 -14.584  -3.018  0.00  0.00     0.009 A 
ATOM      6  C   UNL d   1      27.521 -14.912  -2.456  0.00  0.00    -0.060 A 
ATOM      7  C   UNL d   1      28.767 -14.170  -2.838  0.00  0.00     0.048 C 
ATOM      8  C   UNL d   1      27.582 -15.969  -1.542  0.00  0.00     0.033 A 
ATOM      9  C   UNL d   1      26.430 -16.699  -1.220  0.00  0.00     0.060 A 
ATOM     10 CL   UNL d   1      26.593 -18.011  -0.098  0.00  0.00    -0.082 Cl
ENDBRANCH   1   3
BRANCH   1  11
ATOM     11  C   UNL d   1      23.516 -17.208  -0.116  0.00  0.00     0.129 C 
BRANCH  11  12
ATOM     12  C   UNL d   1      22.935 -18.580   0.212  0.00  0.00     0.123 C 
BRANCH  12  13
ATOM     13  C   UNL d   1      21.890 -18.943  -0.830  0.00  0.00     0.233 C 
ATOM     14  O   UNL d   1      22.170 -19.268  -1.986  0.00  0.00    -0.272 OA
ATOM     15  N   UNL d   1      20.575 -18.859  -0.388  0.00  0.00    -0.294 N 
ATOM     16  H   UNL d   1      20.359 -18.695   0.593  0.00  0.00     0.183 HD
BRANCH  15  17
ATOM     17  N   UNL d   1      19.532 -19.275  -1.252  0.00  0.00    -0.247 NA
ATOM     18  H   UNL d   1      19.979 -19.696  -2.082  0.00  0.00     0.143 HD
ATOM     19  H   UNL d   1      19.057 -18.446  -1.617  0.00  0.00     0.143 HD
ENDBRANCH  15  17
ENDBRANCH  12  13
ENDBRANCH  11  12
ENDBRANCH   1  11
TORSDOF 5
ENDMDL
MODEL 3
REMARK VINA RESULT:   -28.170      1.646      2.390
REMARK INTER + INTRA:         -31.108
REMARK INTER:                 -29.661
REMARK INTRA:                  -1.447
REMARK CONF_INDEPENDENT:        1.492
REMARK UNBOUND:                -1.447
REMARK  5 active torsions:
REMARK  status: ('A' for Active; 'I' for Inactive)
REMARK    1  A    between atoms: C_5  and  N_6 
REMARK    2  A    between atoms: N_6  and  C_7 
REMARK    3  A    between atoms: C_7  and  C_8 
REMARK    4  A    between atoms: C_8  and  C_9 
REMARK       I    between atoms: C_9  and  N_11 
REMARK    5  A    between atoms: N_11  and  N_12 
ROOT
ATOM      1  N   UNL d   1      24.568 -17.033  -0.480  0.00  0.00    -0.388 N 
ATOM      2  H   UNL d   1      23.855 -16.365  -0.760  0.00  0.00     0.159 HD
ENDROOT
BRANCH   1   3
ATOM      3  C   UNL d   1      25.879 -16.751  -0.864  0.00  0.00     0.050 A 
ATOM      4  C   UNL d   1      26.982 -17.345  -0.234  0.00  0.00     0.031 A 
ATOM      5  C   UNL d   1      28.299 -17.056  -0.615  0.00  0.00     0.009 A 
ATOM      6  C   UNL d   1      28.555 -16.151  -1.645  0.00  0.00    -0.060 A 
ATOM      7  C   UNL d   1      29.959 -15.792  -2.028  0.00  0.00     0.048 C 
ATOM      8  C   UNL d   1      27.472 -15.560  -2.304  0.00  0.00     0.033 A 
ATOM      9  C   UNL d   1      26.156 -15.853  -1.916  0.00  0.00     0.060 A 
ATOM     10 CL   UNL d   1      24.870 -15.061  -2.765  0.00  0.00    -0.082 Cl
ENDBRANCH   1   3
BRANCH   1  11
ATOM     11  C   UNL d   1      24.223 -18.202   0.314  0.00  0.00     0.129 C 
BRANCH  11  12
ATOM     12  C   UNL d   1      23.244 -19.129  -0.401  0.00  0.00     0.123 C 
BRANCH  12  13
ATOM     13  C   UNL d   1      21.947 -18.381  -0.661  0.00  0.00     0.233 C 
ATOM     14  O   UNL d   1      21.899 -17.175  -0.915  0.00  0.00    -0.272 OA
ATOM     15  N   UNL d   1      20.799 -19.159  -0.570  0.00  0.00    -0.294 N 
ATOM     16  H   UNL d   1      20.856 -20.171  -0.467  0.00  0.00     0.183 HD
BRANCH  15  17
ATOM     17  N   UNL d   1      19.548 -18.579  -0.895  0.00  0.00    -0.247 NA
ATOM     18  H   UNL d   1      19.191 -19.078  -1.724  0.00  0.00     0.143 HD
ATOM     19  H   UNL d   1      19.704 -17.623  -1.225  0.00  0.00     0.143 HD
ENDBRANCH  15  17
ENDBRANCH  12  13
ENDBRANCH  11  12
ENDBRANCH   1  11
TORSDOF 5
ENDMDL
MODEL 4
REMARK VINA RESULT:   -27.922      1.707      2.280
REMARK INTER + INTRA:         -30.636
REMARK INTER:                 -29.414
REMARK INTRA:                  -1.222
REMARK CONF_INDEPENDENT:        1.492
REMARK UNBOUND:                -1.222
REMARK  5 active torsions:
REMARK  status: ('A' for Active; 'I' for Inactive)
REMARK    1  A    between atoms: C_5  and  N_6 
REMARK    2  A    between atoms: N_6  and  C_7 
REMARK    3  A    between atoms: C_7  and  C_8 
REMARK    4  A    between atoms: C_8  and  C_9 
REMARK       I    between atoms: C_9  and  N_11 
REMARK    5  A    between atoms: N_11  and  N_12 
ROOT
ATOM      1  N   UNL d   1      24.421 -16.525  -0.955  0.00  0.00    -0.388 N 
ATOM      2  H   UNL d   1      23.610 -15.973  -0.692  0.00  0.00     0.159 HD
ENDROOT
BRANCH   1   3
ATOM      3  C   UNL d   1      25.672 -15.964  -0.705  0.00  0.00     0.050 A 
ATOM      4  C   UNL d   1      26.024 -14.691  -1.179  0.00  0.00     0.031 A 
ATOM      5  C   UNL d   1      27.285 -14.131  -0.934  0.00  0.00     0.009 A 
ATOM      6  C   UNL d   1      28.242 -14.835  -0.204  0.00  0.00    -0.060 A 
ATOM      7  C   UNL d   1      29.613 -14.270   0.021  0.00  0.00     0.048 C 
ATOM      8  C   UNL d   1      27.910 -16.098   0.298  0.00  0.00     0.033 A 
ATOM      9  C   UNL d   1      26.647 -16.653   0.047  0.00  0.00     0.060 A 
ATOM     10 CL   UNL d   1      26.320 -18.233   0.681  0.00  0.00    -0.082 Cl
ENDBRANCH   1   3
BRANCH   1  11
ATOM     11  C   UNL d   1      24.263 -17.851  -1.533  0.00  0.00     0.129 C 
BRANCH  11  12
ATOM     12  C   UNL d   1      23.295 -18.725  -0.741  0.00  0.00     0.123 C 
BRANCH  12  13
ATOM     13  C   UNL d   1      21.904 -18.117  -0.805  0.00  0.00     0.233 C 
ATOM     14  O   UNL d   1      21.698 -16.904  -0.889  0.00  0.00    -0.272 OA
ATOM     15  N   UNL d   1      20.864 -19.036  -0.740  0.00  0.00    -0.294 N 
ATOM     16  H   UNL d   1      21.043 -20.038  -0.780  0.00  0.00     0.183 HD
BRANCH  15  17
ATOM     17  N   UNL d   1      19.532 -18.578  -0.895  0.00  0.00    -0.247 NA
ATOM     18  H   UNL d   1      19.170 -18.993  -1.767  0.00  0.00     0.143 HD
ATOM     19  H   UNL d   1      19.549 -17.573  -1.083  0.00  0.00     0.143 HD
ENDBRANCH  15  17
ENDBRANCH  12  13
ENDBRANCH  11  12
ENDBRANCH   1  11
TORSDOF 5
ENDMDL
MODEL 5
REMARK VINA RESULT:   -27.670      1.627      2.255
REMARK INTER + INTRA:         -30.543
REMARK INTER:                 -29.161
REMARK INTRA:                  -1.382
REMARK CONF_INDEPENDENT:        1.492
REMARK UNBOUND:                -1.382
REMARK  5 active torsions:
REMARK  status: ('A' for Active; 'I' for Inactive)
REMARK    1  A    between atoms: C_5  and  N_6 
REMARK    2  A    between atoms: N_6  and  C_7 
REMARK    3  A    between atoms: C_7  and  C_8 
REMARK    4  A    between atoms: C_8  and  C_9 
REMARK       I    between atoms: C_9  and  N_11 
REMARK    5  A    between atoms: N_11  and  N_12 
ROOT
ATOM      1  N   UNL d   1      24.641 -17.473  -0.935  0.00  0.00    -0.388 N 
ATOM      2  H   UNL d   1      24.418 -18.366  -1.364  0.00  0.00     0.159 HD
ENDROOT
BRANCH   1   3
ATOM      3  C   UNL d   1      25.929 -16.980  -1.142  0.00  0.00     0.050 A 
ATOM      4  C   UNL d   1      26.226 -16.089  -2.185  0.00  0.00     0.031 A 
ATOM      5  C   UNL d   1      27.521 -15.600  -2.396  0.00  0.00     0.009 A 
ATOM      6  C   UNL d   1      28.570 -15.994  -1.566  0.00  0.00    -0.060 A 
ATOM      7  C   UNL d   1      29.972 -15.520  -1.813  0.00  0.00     0.048 C 
ATOM      8  C   UNL d   1      28.298 -16.865  -0.506  0.00  0.00     0.033 A 
ATOM      9  C   UNL d   1      26.999 -17.352  -0.301  0.00  0.00     0.060 A 
ATOM     10 CL   UNL d   1      26.747 -18.448   1.018  0.00  0.00    -0.082 Cl
ENDBRANCH   1   3
BRANCH   1  11
ATOM     11  C   UNL d   1      23.639 -16.742  -0.175  0.00  0.00     0.129 C 
BRANCH  11  12
ATOM     12  C   UNL d   1      22.300 -16.653  -0.901  0.00  0.00     0.123 C 
BRANCH  12  13
ATOM     13  C   UNL d   1      21.705 -18.045  -1.025  0.00  0.00     0.233 C 
ATOM     14  O   UNL d   1      22.378 -19.077  -0.979  0.00  0.00    -0.272 OA
ATOM     15  N   UNL d   1      20.329 -18.073  -1.219  0.00  0.00    -0.294 N 
ATOM     16  H   UNL d   1      19.770 -17.226  -1.148  0.00  0.00     0.183 HD
BRANCH  15  17
ATOM     17  N   UNL d   1      19.665 -19.325  -1.245  0.00  0.00    -0.247 NA
ATOM     18  H   UNL d   1      20.380 -20.041  -1.443  0.00  0.00     0.143 HD
ATOM     19  H   UNL d   1      19.048 -19.353  -2.061  0.00  0.00     0.143 HD
ENDBRANCH  15  17
ENDBRANCH  12  13
ENDBRANCH  11  12
ENDBRANCH   1  11
TORSDOF 5
ENDMDL
MODEL 6
REMARK VINA RESULT:   -27.390      1.654      2.055
REMARK INTER + INTRA:         -27.861
REMARK INTER:                 -28.881
REMARK INTRA:                   1.020
REMARK CONF_INDEPENDENT:        1.492
REMARK UNBOUND:                 1.020
REMARK  5 active torsions:
REMARK  status: ('A' for Active; 'I' for Inactive)
REMARK    1  A    between atoms: C_5  and  N_6 
REMARK    2  A    between atoms: N_6  and  C_7 
REMARK    3  A    between atoms: C_7  and  C_8 
REMARK    4  A    between atoms: C_8  and  C_9 
REMARK       I    between atoms: C_9  and  N_11 
REMARK    5  A    between atoms: N_11  and  N_12 
ROOT
ATOM      1  N   UNL d   1      25.295 -17.774  -0.092  0.00  0.00    -0.388 N 
ATOM      2  H   UNL d   1      26.068 -18.321   0.277  0.00  0.00     0.159 HD
ENDROOT
BRANCH   1   3
ATOM      3  C   UNL d   1      25.615 -16.769  -1.005  0.00  0.00     0.050 A 
ATOM      4  C   UNL d   1      26.921 -16.587  -1.483  0.00  0.00     0.031 A 
ATOM      5  C   UNL d   1      27.243 -15.572  -2.393  0.00  0.00     0.009 A 
ATOM      6  C   UNL d   1      26.260 -14.698  -2.855  0.00  0.00    -0.060 A 
ATOM      7  C   UNL d   1      26.600 -13.575  -3.789  0.00  0.00     0.048 C 
ATOM      8  C   UNL d   1      24.945 -14.870  -2.410  0.00  0.00     0.033 A 
ATOM      9  C   UNL d   1      24.630 -15.886  -1.496  0.00  0.00     0.060 A 
ATOM     10 CL   UNL d   1      22.983 -16.019  -0.973  0.00  0.00    -0.082 Cl
ENDBRANCH   1   3
BRANCH   1  11
ATOM     11  C   UNL d   1      23.925 -18.063   0.300  0.00  0.00     0.129 C 
BRANCH  11  12
ATOM     12  C   UNL d   1      23.303 -19.187  -0.524  0.00  0.00     0.123 C 
BRANCH  12  13
ATOM     13  C   UNL d   1      21.808 -19.233  -0.258  0.00  0.00     0.233 C 
ATOM     14  O   UNL d   1      21.318 -19.172   0.872  0.00  0.00    -0.272 OA
ATOM     15  N   UNL d   1      21.020 -19.373  -1.394  0.00  0.00    -0.294 N 
ATOM     16  H   UNL d   1      21.425 -19.315  -2.326  0.00  0.00     0.183 HD
BRANCH  15  17
ATOM     17  N   UNL d   1      19.610 -19.325  -1.263  0.00  0.00    -0.247 NA
ATOM     18  H   UNL d   1      19.407 -18.878  -0.355  0.00  0.00     0.143 HD
ATOM     19  H   UNL d   1      19.256 -20.279  -1.158  0.00  0.00     0.143 HD
ENDBRANCH  15  17
ENDBRANCH  12  13
ENDBRANCH  11  12
ENDBRANCH   1  11
TORSDOF 5
ENDMDL
MODEL 7
REMARK VINA RESULT:   -25.815      2.074      2.641
REMARK INTER + INTRA:         -27.560
REMARK INTER:                 -27.306
REMARK INTRA:                  -0.254
REMARK CONF_INDEPENDENT:        1.492
REMARK UNBOUND:                -0.254
REMARK  5 active torsions:
REMARK  status: ('A' for Active; 'I' for Inactive)
REMARK    1  A    between atoms: C_5  and  N_6 
REMARK    2  A    between atoms: N_6  and  C_7 
REMARK    3  A    between atoms: C_7  and  C_8 
REMARK    4  A    between atoms: C_8  and  C_9 
REMARK       I    between atoms: C_9  and  N_11 
REMARK    5  A    between atoms: N_11  and  N_12 
ROOT
ATOM      1  N   UNL d   1      25.164 -16.110  -2.115  0.00  0.00    -0.388 N 
ATOM      2  H   UNL d   1      25.673 -16.922  -2.451  0.00  0.00     0.159 HD
ENDROOT
BRANCH   1   3
ATOM      3  C   UNL d   1      25.785 -14.870  -2.266  0.00  0.00     0.050 A 
ATOM      4  C   UNL d   1      26.154 -14.084  -1.164  0.00  0.00     0.031 A 
ATOM      5  C   UNL d   1      26.771 -12.836  -1.318  0.00  0.00     0.009 A 
ATOM      6  C   UNL d   1      27.034 -12.328  -2.589  0.00  0.00    -0.060 A 
ATOM      7  C   UNL d   1      27.646 -10.970  -2.769  0.00  0.00     0.048 C 
ATOM      8  C   UNL d   1      26.695 -13.101  -3.705  0.00  0.00     0.033 A 
ATOM      9  C   UNL d   1      26.076 -14.349  -3.544  0.00  0.00     0.060 A 
ATOM     10 CL   UNL d   1      25.663 -15.234  -4.976  0.00  0.00    -0.082 Cl
ENDBRANCH   1   3
BRANCH   1  11
ATOM     11  C   UNL d   1      23.837 -16.251  -1.536  0.00  0.00     0.129 C 
BRANCH  11  12
ATOM     12  C   UNL d   1      23.335 -17.692  -1.562  0.00  0.00     0.123 C 
BRANCH  12  13
ATOM     13  C   UNL d   1      21.864 -17.716  -1.180  0.00  0.00     0.233 C 
ATOM     14  O   UNL d   1      21.219 -16.702  -0.904  0.00  0.00    -0.272 OA
ATOM     15  N   UNL d   1      21.295 -18.983  -1.142  0.00  0.00    -0.294 N 
ATOM     16  H   UNL d   1      21.805 -19.800  -1.474  0.00  0.00     0.183 HD
BRANCH  15  17
ATOM     17  N   UNL d   1      19.905 -19.104  -0.896  0.00  0.00    -0.247 NA
ATOM     18  H   UNL d   1      19.731 -20.086  -0.632  0.00  0.00     0.143 HD
ATOM     19  H   UNL d   1      19.403 -18.989  -1.780  0.00  0.00     0.143 HD
ENDBRANCH  15  17
ENDBRANCH  12  13
ENDBRANCH  11  12
ENDBRANCH   1  11
TORSDOF 5
ENDMDL
