MODEL 1
REMARK VINA RESULT:    -8.758      0.000      0.000
REMARK INTER + INTRA:         -12.654
REMARK INTER:                 -11.741
REMARK INTRA:                  -0.913
REMARK CONF_INDEPENDENT:        2.983
REMARK UNBOUND:                -0.913
REMARK  10 active torsions:
REMARK  status: ('A' for Active; 'I' for Inactive)
REMARK    1  A    between atoms: N_2  and  C_3 
REMARK    2  A    between atoms: N_2  and  C_28 
REMARK    3  A    between atoms: C_3  and  C_4 
REMARK    4  A    between atoms: C_4  and  C_5 
REMARK    5  A    between atoms: C_5  and  N_6 
REMARK       I    between atoms: N_6  and  C_7 
REMARK    6  A    between atoms: C_7  and  C_9 
REMARK    7  A    between atoms: C_9  and  S_10 
REMARK    8  A    between atoms: C_11  and  S_10 
REMARK    9  A    between atoms: C_14  and  C_15 
REMARK   10  A    between atoms: N_24  and  C_25 
ROOT
ATOM      1  C   UNL d   1      28.176 -14.260   4.036  0.00  0.00     0.268 C 
ATOM      2  N   UNL d   1      29.022 -15.149   4.815  0.00  0.00    -0.279 N 
ATOM      3  N   UNL d   1      29.267 -14.806   6.102  0.00  0.00    -0.158 NA
ATOM      4  C   UNL d   1      28.697 -13.656   6.252  0.00  0.00     0.157 C 
ATOM      5  N   UNL d   1      28.087 -13.145   5.045  0.00  0.00    -0.328 N 
ATOM      6  H   UNL d   1      29.478 -15.937   4.368  0.00  0.00     0.185 HD
ENDROOT
BRANCH   1   7
ATOM      7  S   UNL d   1      29.041 -13.840   2.496  0.00  0.00    -0.112 SA
BRANCH   7   8
ATOM      8  C   UNL d   1      28.248 -14.893   1.187  0.00  0.00     0.180 C 
BRANCH   8   9
ATOM      9  C   UNL d   1      27.157 -14.085   0.438  0.00  0.00     0.227 C 
ATOM     10  N   UNL d   1      27.205 -14.135  -0.945  0.00  0.00    -0.360 N 
ATOM     11  H   UNL d   1      27.892 -14.706  -1.421  0.00  0.00     0.162 HD
ATOM     12  O   UNL d   1      26.276 -13.450   1.024  0.00  0.00    -0.273 OA
BRANCH  10  13
ATOM     13  C   UNL d   1      26.275 -13.347  -1.763  0.00  0.00     0.124 C 
BRANCH  13  14
ATOM     14  C   UNL d   1      25.386 -14.235  -2.622  0.00  0.00     0.039 C 
BRANCH  14  15
ATOM     15  C   UNL d   1      25.987 -15.619  -2.905  0.00  0.00     0.124 C 
BRANCH  15  16
ATOM     16  N   UNL d   1      26.060 -16.475  -1.711  0.00  0.00    -0.385 N 
ATOM     17  C   UNL d   1      27.311 -17.071  -1.241  0.00  0.00     0.149 C 
BRANCH  16  18
ATOM     18  C   UNL d   1      24.892 -17.003  -1.147  0.00  0.00     0.029 A 
ATOM     19  C   UNL d   1      23.668 -16.323  -1.274  0.00  0.00     0.029 A 
ATOM     20  C   UNL d   1      22.520 -16.726  -0.582  0.00  0.00     0.002 A 
ATOM     21  C   UNL d   1      22.544 -17.882   0.185  0.00  0.00     0.000 A 
ATOM     22  C   UNL d   1      23.705 -18.646   0.228  0.00  0.00     0.002 A 
ATOM     23  C   UNL d   1      24.873 -18.191  -0.403  0.00  0.00     0.029 A 
ENDBRANCH  16  18
ENDBRANCH  15  16
ENDBRANCH  14  15
ENDBRANCH  13  14
ENDBRANCH  10  13
ENDBRANCH   8   9
ENDBRANCH   7   8
ENDBRANCH   1   7
BRANCH   5  24
ATOM     24  C   UNL d   1      27.921 -11.742   4.734  0.00  0.00     0.089 A 
ATOM     25  C   UNL d   1      28.981 -10.977   3.967  0.00  0.00     0.027 A 
ATOM     26  C   UNL d   1      27.641 -11.178   3.364  0.00  0.00     0.027 A 
ENDBRANCH   5  24
BRANCH   4  27
ATOM     27  C   UNL d   1      28.592 -12.905   7.511  0.00  0.00     0.019 A 
ATOM     28  C   UNL d   1      28.703 -13.414   8.745  0.00  0.00     0.002 A 
ATOM     29  C   UNL d   1      28.887 -14.723   9.271  0.00  0.00     0.014 A 
ATOM     30  C   UNL d   1      28.663 -12.238   9.652  0.00  0.00     0.039 A 
ATOM     31  C   UNL d   1      28.949 -14.883  10.602  0.00  0.00     0.001 A 
ATOM     32  C   UNL d   1      28.859 -13.756  11.518  0.00  0.00     0.002 A 
ATOM     33  C   UNL d   1      28.730 -12.478  11.112  0.00  0.00     0.030 A 
ATOM     34  N   UNL d   1      28.571 -11.141   9.014  0.00  0.00    -0.385 N 
ATOM     35  C   UNL d   1      28.553 -11.404   7.549  0.00  0.00     0.163 A 
ATOM     36  H   UNL d   1      28.518 -10.227   9.474  0.00  0.00     0.160 HD
ENDBRANCH   4  27
TORSDOF 10
ENDMDL
MODEL 2
REMARK VINA RESULT:    -8.373      6.434      9.136
REMARK INTER + INTRA:         -13.481
REMARK INTER:                 -11.356
REMARK INTRA:                  -2.124
REMARK CONF_INDEPENDENT:        2.983
REMARK UNBOUND:                -2.124
REMARK  10 active torsions:
REMARK  status: ('A' for Active; 'I' for Inactive)
REMARK    1  A    between atoms: N_2  and  C_3 
REMARK    2  A    between atoms: N_2  and  C_28 
REMARK    3  A    between atoms: C_3  and  C_4 
REMARK    4  A    between atoms: C_4  and  C_5 
REMARK    5  A    between atoms: C_5  and  N_6 
REMARK       I    between atoms: N_6  and  C_7 
REMARK    6  A    between atoms: C_7  and  C_9 
REMARK    7  A    between atoms: C_9  and  S_10 
REMARK    8  A    between atoms: C_11  and  S_10 
REMARK    9  A    between atoms: C_14  and  C_15 
REMARK   10  A    between atoms: N_24  and  C_25 
ROOT
ATOM      1  C   UNL d   1      25.529 -12.524  -3.506  0.00  0.00     0.268 C 
ATOM      2  N   UNL d   1      24.863 -13.492  -4.360  0.00  0.00    -0.279 N 
ATOM      3  N   UNL d   1      24.780 -14.767  -3.908  0.00  0.00    -0.158 NA
ATOM      4  C   UNL d   1      25.440 -14.767  -2.797  0.00  0.00     0.157 C 
ATOM      5  N   UNL d   1      26.049 -13.496  -2.479  0.00  0.00    -0.328 N 
ATOM      6  H   UNL d   1      24.564 -13.227  -5.292  0.00  0.00     0.185 HD
ENDROOT
BRANCH   1   7
ATOM      7  S   UNL d   1      26.806 -11.675  -4.480  0.00  0.00    -0.112 SA
BRANCH   7   8
ATOM      8  C   UNL d   1      27.160 -12.805  -5.911  0.00  0.00     0.180 C 
BRANCH   8   9
ATOM      9  C   UNL d   1      27.473 -14.235  -5.399  0.00  0.00     0.227 C 
ATOM     10  N   UNL d   1      28.470 -14.333  -4.443  0.00  0.00    -0.360 N 
ATOM     11  H   UNL d   1      28.927 -13.505  -4.080  0.00  0.00     0.162 HD
ATOM     12  O   UNL d   1      26.863 -15.233  -5.790  0.00  0.00    -0.273 OA
BRANCH  10  13
ATOM     13  C   UNL d   1      28.911 -15.641  -3.941  0.00  0.00     0.124 C 
BRANCH  13  14
ATOM     14  C   UNL d   1      30.371 -15.619  -3.512  0.00  0.00     0.039 C 
BRANCH  14  15
ATOM     15  C   UNL d   1      31.355 -15.489  -4.683  0.00  0.00     0.124 C 
BRANCH  15  16
ATOM     16  N   UNL d   1      30.843 -16.060  -5.937  0.00  0.00    -0.385 N 
ATOM     17  C   UNL d   1      30.047 -15.285  -6.890  0.00  0.00     0.149 C 
BRANCH  16  18
ATOM     18  C   UNL d   1      30.835 -17.447  -6.132  0.00  0.00     0.029 A 
ATOM     19  C   UNL d   1      31.139 -17.992  -7.391  0.00  0.00     0.029 A 
ATOM     20  C   UNL d   1      30.974 -19.354  -7.670  0.00  0.00     0.002 A 
ATOM     21  C   UNL d   1      30.589 -20.225  -6.660  0.00  0.00     0.000 A 
ATOM     22  C   UNL d   1      30.405 -19.735  -5.372  0.00  0.00     0.002 A 
ATOM     23  C   UNL d   1      30.494 -18.357  -5.122  0.00  0.00     0.029 A 
ENDBRANCH  16  18
ENDBRANCH  15  16
ENDBRANCH  14  15
ENDBRANCH  13  14
ENDBRANCH  10  13
ENDBRANCH   8   9
ENDBRANCH   7   8
ENDBRANCH   1   7
BRANCH   5  24
ATOM     24  C   UNL d   1      27.257 -13.330  -1.701  0.00  0.00     0.089 A 
ATOM     25  C   UNL d   1      27.390 -12.213  -0.686  0.00  0.00     0.027 A 
ATOM     26  C   UNL d   1      27.395 -13.624  -0.229  0.00  0.00     0.027 A 
ENDBRANCH   5  24
BRANCH   4  27
ATOM     27  C   UNL d   1      25.559 -15.900  -1.868  0.00  0.00     0.019 A 
ATOM     28  C   UNL d   1      24.546 -16.543  -1.274  0.00  0.00     0.002 A 
ATOM     29  C   UNL d   1      23.133 -16.378  -1.257  0.00  0.00     0.014 A 
ATOM     30  C   UNL d   1      25.178 -17.680  -0.556  0.00  0.00     0.039 A 
ATOM     31  C   UNL d   1      22.391 -17.223  -0.524  0.00  0.00     0.001 A 
ATOM     32  C   UNL d   1      22.987 -18.314   0.232  0.00  0.00     0.002 A 
ATOM     33  C   UNL d   1      24.308 -18.575   0.241  0.00  0.00     0.030 A 
ATOM     34  N   UNL d   1      26.437 -17.722  -0.738  0.00  0.00    -0.385 N 
ATOM     35  C   UNL d   1      26.859 -16.614  -1.636  0.00  0.00     0.163 A 
ATOM     36  H   UNL d   1      27.042 -18.431  -0.311  0.00  0.00     0.160 HD
ENDBRANCH   4  27
TORSDOF 10
ENDMDL
MODEL 3
REMARK VINA RESULT:    -8.261      7.566     10.861
REMARK INTER + INTRA:         -13.090
REMARK INTER:                 -11.244
REMARK INTRA:                  -1.846
REMARK CONF_INDEPENDENT:        2.983
REMARK UNBOUND:                -1.846
REMARK  10 active torsions:
REMARK  status: ('A' for Active; 'I' for Inactive)
REMARK    1  A    between atoms: N_2  and  C_3 
REMARK    2  A    between atoms: N_2  and  C_28 
REMARK    3  A    between atoms: C_3  and  C_4 
REMARK    4  A    between atoms: C_4  and  C_5 
REMARK    5  A    between atoms: C_5  and  N_6 
REMARK       I    between atoms: N_6  and  C_7 
REMARK    6  A    between atoms: C_7  and  C_9 
REMARK    7  A    between atoms: C_9  and  S_10 
REMARK    8  A    between atoms: C_11  and  S_10 
REMARK    9  A    between atoms: C_14  and  C_15 
REMARK   10  A    between atoms: N_24  and  C_25 
ROOT
ATOM      1  C   UNL d   1      27.882 -13.982  -4.307  0.00  0.00     0.268 C 
ATOM      2  N   UNL d   1      27.199 -14.636  -5.411  0.00  0.00    -0.279 N 
ATOM      3  N   UNL d   1      27.968 -15.198  -6.373  0.00  0.00    -0.158 NA
ATOM      4  C   UNL d   1      29.180 -14.897  -6.045  0.00  0.00     0.157 C 
ATOM      5  N   UNL d   1      29.277 -14.063  -4.869  0.00  0.00    -0.328 N 
ATOM      6  H   UNL d   1      26.189 -14.580  -5.487  0.00  0.00     0.185 HD
ENDROOT
BRANCH   1   7
ATOM      7  S   UNL d   1      27.217 -12.302  -4.130  0.00  0.00    -0.112 SA
BRANCH   7   8
ATOM      8  C   UNL d   1      25.545 -12.517  -3.350  0.00  0.00     0.180 C 
BRANCH   8   9
ATOM      9  C   UNL d   1      25.143 -14.015  -3.351  0.00  0.00     0.227 C 
ATOM     10  N   UNL d   1      25.183 -14.656  -2.124  0.00  0.00    -0.360 N 
ATOM     11  H   UNL d   1      25.422 -14.150  -1.280  0.00  0.00     0.162 HD
ATOM     12  O   UNL d   1      24.781 -14.608  -4.370  0.00  0.00    -0.273 OA
BRANCH  10  13
ATOM     13  C   UNL d   1      24.902 -16.093  -2.012  0.00  0.00     0.124 C 
BRANCH  13  14
ATOM     14  C   UNL d   1      24.317 -16.450  -0.653  0.00  0.00     0.039 C 
BRANCH  14  15
ATOM     15  C   UNL d   1      22.851 -16.901  -0.713  0.00  0.00     0.124 C 
BRANCH  15  16
ATOM     16  N   UNL d   1      22.665 -18.317  -0.363  0.00  0.00    -0.385 N 
ATOM     17  C   UNL d   1      23.715 -19.320  -0.543  0.00  0.00     0.149 C 
BRANCH  16  18
ATOM     18  C   UNL d   1      21.381 -18.824  -0.127  0.00  0.00     0.029 A 
ATOM     19  C   UNL d   1      20.957 -19.114   1.181  0.00  0.00     0.029 A 
ATOM     20  C   UNL d   1      19.754 -19.781   1.442  0.00  0.00     0.002 A 
ATOM     21  C   UNL d   1      18.894 -20.090   0.397  0.00  0.00     0.000 A 
ATOM     22  C   UNL d   1      19.227 -19.701  -0.896  0.00  0.00     0.002 A 
ATOM     23  C   UNL d   1      20.471 -19.107  -1.156  0.00  0.00     0.029 A 
ENDBRANCH  16  18
ENDBRANCH  15  16
ENDBRANCH  14  15
ENDBRANCH  13  14
ENDBRANCH  10  13
ENDBRANCH   8   9
ENDBRANCH   7   8
ENDBRANCH   1   7
BRANCH   5  24
ATOM     24  C   UNL d   1      30.342 -13.118  -4.611  0.00  0.00     0.089 A 
ATOM     25  C   UNL d   1      30.946 -12.974  -3.229  0.00  0.00     0.027 A 
ATOM     26  C   UNL d   1      31.782 -13.477  -4.345  0.00  0.00     0.027 A 
ENDBRANCH   5  24
BRANCH   4  27
ATOM     27  C   UNL d   1      30.397 -15.364  -6.725  0.00  0.00     0.019 A 
ATOM     28  C   UNL d   1      30.841 -16.627  -6.769  0.00  0.00     0.002 A 
ATOM     29  C   UNL d   1      30.405 -17.857  -6.205  0.00  0.00     0.014 A 
ATOM     30  C   UNL d   1      32.012 -16.593  -7.683  0.00  0.00     0.039 A 
ATOM     31  C   UNL d   1      31.112 -18.971  -6.454  0.00  0.00     0.001 A 
ATOM     32  C   UNL d   1      32.294 -18.958  -7.302  0.00  0.00     0.002 A 
ATOM     33  C   UNL d   1      32.756 -17.852  -7.914  0.00  0.00     0.030 A 
ATOM     34  N   UNL d   1      32.218 -15.429  -8.158  0.00  0.00    -0.385 N 
ATOM     35  C   UNL d   1      31.190 -14.482  -7.646  0.00  0.00     0.163 A 
ATOM     36  H   UNL d   1      32.989 -15.212  -8.796  0.00  0.00     0.160 HD
ENDBRANCH   4  27
TORSDOF 10
ENDMDL
MODEL 4
REMARK VINA RESULT:    -7.755      6.438      9.901
REMARK INTER + INTRA:         -12.704
REMARK INTER:                 -10.738
REMARK INTRA:                  -1.966
REMARK CONF_INDEPENDENT:        2.983
REMARK UNBOUND:                -1.966
REMARK  10 active torsions:
REMARK  status: ('A' for Active; 'I' for Inactive)
REMARK    1  A    between atoms: N_2  and  C_3 
REMARK    2  A    between atoms: N_2  and  C_28 
REMARK    3  A    between atoms: C_3  and  C_4 
REMARK    4  A    between atoms: C_4  and  C_5 
REMARK    5  A    between atoms: C_5  and  N_6 
REMARK       I    between atoms: N_6  and  C_7 
REMARK    6  A    between atoms: C_7  and  C_9 
REMARK    7  A    between atoms: C_9  and  S_10 
REMARK    8  A    between atoms: C_11  and  S_10 
REMARK    9  A    between atoms: C_14  and  C_15 
REMARK   10  A    between atoms: N_24  and  C_25 
ROOT
ATOM      1  C   UNL d   1      25.533 -12.482  -3.508  0.00  0.00     0.268 C 
ATOM      2  N   UNL d   1      24.840 -13.455  -4.336  0.00  0.00    -0.279 N 
ATOM      3  N   UNL d   1      24.780 -14.729  -3.880  0.00  0.00    -0.158 NA
ATOM      4  C   UNL d   1      25.480 -14.725  -2.794  0.00  0.00     0.157 C 
ATOM      5  N   UNL d   1      26.095 -13.450  -2.501  0.00  0.00    -0.328 N 
ATOM      6  H   UNL d   1      24.506 -13.192  -5.256  0.00  0.00     0.185 HD
ENDROOT
BRANCH   1   7
ATOM      7  S   UNL d   1      26.768 -11.629  -4.530  0.00  0.00    -0.112 SA
BRANCH   7   8
ATOM      8  C   UNL d   1      27.091 -12.769  -5.961  0.00  0.00     0.180 C 
BRANCH   8   9
ATOM      9  C   UNL d   1      27.445 -14.188  -5.445  0.00  0.00     0.227 C 
ATOM     10  N   UNL d   1      28.508 -14.267  -4.561  0.00  0.00    -0.360 N 
ATOM     11  H   UNL d   1      28.987 -13.431  -4.248  0.00  0.00     0.162 HD
ATOM     12  O   UNL d   1      26.811 -15.195  -5.771  0.00  0.00    -0.273 OA
BRANCH  10  13
ATOM     13  C   UNL d   1      28.987 -15.563  -4.066  0.00  0.00     0.124 C 
BRANCH  13  14
ATOM     14  C   UNL d   1      29.676 -16.366  -5.160  0.00  0.00     0.039 C 
BRANCH  14  15
ATOM     15  C   UNL d   1      30.211 -15.504  -6.313  0.00  0.00     0.124 C 
BRANCH  15  16
ATOM     16  N   UNL d   1      31.067 -16.250  -7.247  0.00  0.00    -0.385 N 
ATOM     17  C   UNL d   1      31.175 -17.709  -7.226  0.00  0.00     0.149 C 
BRANCH  16  18
ATOM     18  C   UNL d   1      32.044 -15.584  -7.997  0.00  0.00     0.029 A 
ATOM     19  C   UNL d   1      31.934 -14.205  -8.249  0.00  0.00     0.029 A 
ATOM     20  C   UNL d   1      32.792 -13.541  -9.134  0.00  0.00     0.002 A 
ATOM     21  C   UNL d   1      33.849 -14.226  -9.718  0.00  0.00     0.000 A 
ATOM     22  C   UNL d   1      34.060 -15.560  -9.388  0.00  0.00     0.002 A 
ATOM     23  C   UNL d   1      33.147 -16.237  -8.564  0.00  0.00     0.029 A 
ENDBRANCH  16  18
ENDBRANCH  15  16
ENDBRANCH  14  15
ENDBRANCH  13  14
ENDBRANCH  10  13
ENDBRANCH   8   9
ENDBRANCH   7   8
ENDBRANCH   1   7
BRANCH   5  24
ATOM     24  C   UNL d   1      27.330 -13.278  -1.768  0.00  0.00     0.089 A 
ATOM     25  C   UNL d   1      27.601 -12.018  -0.970  0.00  0.00     0.027 A 
ATOM     26  C   UNL d   1      27.469 -13.317  -0.267  0.00  0.00     0.027 A 
ENDBRANCH   5  24
BRANCH   4  27
ATOM     27  C   UNL d   1      25.639 -15.856  -1.868  0.00  0.00     0.019 A 
ATOM     28  C   UNL d   1      24.649 -16.534  -1.274  0.00  0.00     0.002 A 
ATOM     29  C   UNL d   1      23.232 -16.418  -1.256  0.00  0.00     0.014 A 
ATOM     30  C   UNL d   1      25.321 -17.651  -0.561  0.00  0.00     0.039 A 
ATOM     31  C   UNL d   1      22.519 -17.290  -0.525  0.00  0.00     0.001 A 
ATOM     32  C   UNL d   1      23.154 -18.362   0.227  0.00  0.00     0.002 A 
ATOM     33  C   UNL d   1      24.483 -18.577   0.234  0.00  0.00     0.030 A 
ATOM     34  N   UNL d   1      26.581 -17.650  -0.744  0.00  0.00    -0.385 N 
ATOM     35  C   UNL d   1      26.963 -16.526  -1.640  0.00  0.00     0.163 A 
ATOM     36  H   UNL d   1      27.209 -18.339  -0.320  0.00  0.00     0.160 HD
ENDBRANCH   4  27
TORSDOF 10
ENDMDL
MODEL 5
REMARK VINA RESULT:    -7.638      2.250      3.998
REMARK INTER + INTRA:         -12.680
REMARK INTER:                 -10.621
REMARK INTRA:                  -2.059
REMARK CONF_INDEPENDENT:        2.983
REMARK UNBOUND:                -2.059
REMARK  10 active torsions:
REMARK  status: ('A' for Active; 'I' for Inactive)
REMARK    1  A    between atoms: N_2  and  C_3 
REMARK    2  A    between atoms: N_2  and  C_28 
REMARK    3  A    between atoms: C_3  and  C_4 
REMARK    4  A    between atoms: C_4  and  C_5 
REMARK    5  A    between atoms: C_5  and  N_6 
REMARK       I    between atoms: N_6  and  C_7 
REMARK    6  A    between atoms: C_7  and  C_9 
REMARK    7  A    between atoms: C_9  and  S_10 
REMARK    8  A    between atoms: C_11  and  S_10 
REMARK    9  A    between atoms: C_14  and  C_15 
REMARK   10  A    between atoms: N_24  and  C_25 
ROOT
ATOM      1  C   UNL d   1      27.753 -12.135   0.717  0.00  0.00     0.268 C 
ATOM      2  N   UNL d   1      26.452 -12.601   1.166  0.00  0.00    -0.279 N 
ATOM      3  N   UNL d   1      26.390 -13.199   2.380  0.00  0.00    -0.158 NA
ATOM      4  C   UNL d   1      27.616 -13.256   2.783  0.00  0.00     0.157 C 
ATOM      5  N   UNL d   1      28.570 -12.747   1.824  0.00  0.00    -0.328 N 
ATOM      6  H   UNL d   1      25.654 -12.557   0.542  0.00  0.00     0.185 HD
ENDROOT
BRANCH   1   7
ATOM      7  S   UNL d   1      28.069 -12.809  -0.939  0.00  0.00    -0.112 SA
BRANCH   7   8
ATOM      8  C   UNL d   1      26.431 -13.467  -1.520  0.00  0.00     0.180 C 
BRANCH   8   9
ATOM      9  C   UNL d   1      26.354 -14.997  -1.280  0.00  0.00     0.227 C 
ATOM     10  N   UNL d   1      26.496 -15.414   0.033  0.00  0.00    -0.360 N 
ATOM     11  H   UNL d   1      26.601 -14.743   0.784  0.00  0.00     0.162 HD
ATOM     12  O   UNL d   1      26.152 -15.807  -2.188  0.00  0.00    -0.273 OA
BRANCH  10  13
ATOM     13  C   UNL d   1      26.521 -16.842   0.375  0.00  0.00     0.124 C 
BRANCH  13  14
ATOM     14  C   UNL d   1      25.558 -17.646  -0.487  0.00  0.00     0.039 C 
BRANCH  14  15
ATOM     15  C   UNL d   1      24.348 -18.191   0.285  0.00  0.00     0.124 C 
BRANCH  15  16
ATOM     16  N   UNL d   1      23.060 -17.739  -0.261  0.00  0.00    -0.385 N 
ATOM     17  C   UNL d   1      22.816 -16.354  -0.665  0.00  0.00     0.149 C 
BRANCH  16  18
ATOM     18  C   UNL d   1      21.919 -18.541  -0.137  0.00  0.00     0.029 A 
ATOM     19  C   UNL d   1      21.203 -18.946  -1.277  0.00  0.00     0.029 A 
ATOM     20  C   UNL d   1      19.968 -19.598  -1.187  0.00  0.00     0.002 A 
ATOM     21  C   UNL d   1      19.461 -19.949   0.057  0.00  0.00     0.000 A 
ATOM     22  C   UNL d   1      20.207 -19.676   1.198  0.00  0.00     0.002 A 
ATOM     23  C   UNL d   1      21.405 -18.950   1.102  0.00  0.00     0.029 A 
ENDBRANCH  16  18
ENDBRANCH  15  16
ENDBRANCH  14  15
ENDBRANCH  13  14
ENDBRANCH  10  13
ENDBRANCH   8   9
ENDBRANCH   7   8
ENDBRANCH   1   7
BRANCH   5  24
ATOM     24  C   UNL d   1      29.942 -13.192   1.708  0.00  0.00     0.089 A 
ATOM     25  C   UNL d   1      31.066 -12.210   1.442  0.00  0.00     0.027 A 
ATOM     26  C   UNL d   1      31.028 -12.950   2.726  0.00  0.00     0.027 A 
ENDBRANCH   5  24
BRANCH   4  27
ATOM     27  C   UNL d   1      28.068 -13.733   4.098  0.00  0.00     0.019 A 
ATOM     28  C   UNL d   1      28.273 -12.976   5.184  0.00  0.00     0.002 A 
ATOM     29  C   UNL d   1      28.201 -11.582   5.455  0.00  0.00     0.014 A 
ATOM     30  C   UNL d   1      28.582 -13.939   6.272  0.00  0.00     0.039 A 
ATOM     31  C   UNL d   1      28.488 -11.147   6.692  0.00  0.00     0.001 A 
ATOM     32  C   UNL d   1      28.846 -12.062   7.765  0.00  0.00     0.002 A 
ATOM     33  C   UNL d   1      28.896 -13.399   7.615  0.00  0.00     0.030 A 
ATOM     34  N   UNL d   1      28.531 -15.147   5.875  0.00  0.00    -0.385 N 
ATOM     35  C   UNL d   1      28.155 -15.193   4.436  0.00  0.00     0.163 A 
ATOM     36  H   UNL d   1      28.727 -15.946   6.484  0.00  0.00     0.160 HD
ENDBRANCH   4  27
TORSDOF 10
ENDMDL
MODEL 6
REMARK VINA RESULT:    -7.566      6.488      8.879
REMARK INTER + INTRA:         -13.043
REMARK INTER:                 -10.549
REMARK INTRA:                  -2.494
REMARK CONF_INDEPENDENT:        2.983
REMARK UNBOUND:                -2.494
REMARK  10 active torsions:
REMARK  status: ('A' for Active; 'I' for Inactive)
REMARK    1  A    between atoms: N_2  and  C_3 
REMARK    2  A    between atoms: N_2  and  C_28 
REMARK    3  A    between atoms: C_3  and  C_4 
REMARK    4  A    between atoms: C_4  and  C_5 
REMARK    5  A    between atoms: C_5  and  N_6 
REMARK       I    between atoms: N_6  and  C_7 
REMARK    6  A    between atoms: C_7  and  C_9 
REMARK    7  A    between atoms: C_9  and  S_10 
REMARK    8  A    between atoms: C_11  and  S_10 
REMARK    9  A    between atoms: C_14  and  C_15 
REMARK   10  A    between atoms: N_24  and  C_25 
ROOT
ATOM      1  C   UNL d   1      25.503 -12.362  -3.483  0.00  0.00     0.268 C 
ATOM      2  N   UNL d   1      24.792 -13.218  -4.417  0.00  0.00    -0.279 N 
ATOM      3  N   UNL d   1      24.433 -14.449  -3.984  0.00  0.00    -0.158 NA
ATOM      4  C   UNL d   1      24.936 -14.542  -2.798  0.00  0.00     0.157 C 
ATOM      5  N   UNL d   1      25.712 -13.389  -2.401  0.00  0.00    -0.328 N 
ATOM      6  H   UNL d   1      24.663 -12.922  -5.379  0.00  0.00     0.185 HD
ENDROOT
BRANCH   1   7
ATOM      7  S   UNL d   1      27.020 -11.765  -4.284  0.00  0.00    -0.112 SA
BRANCH   7   8
ATOM      8  C   UNL d   1      27.252 -12.859  -5.767  0.00  0.00     0.180 C 
BRANCH   8   9
ATOM      9  C   UNL d   1      27.554 -14.312  -5.319  0.00  0.00     0.227 C 
ATOM     10  N   UNL d   1      28.539 -14.459  -4.356  0.00  0.00    -0.360 N 
ATOM     11  H   UNL d   1      28.994 -13.651  -3.949  0.00  0.00     0.162 HD
ATOM     12  O   UNL d   1      26.945 -15.289  -5.763  0.00  0.00    -0.273 OA
BRANCH  10  13
ATOM     13  C   UNL d   1      28.969 -15.791  -3.910  0.00  0.00     0.124 C 
BRANCH  13  14
ATOM     14  C   UNL d   1      30.054 -15.707  -2.847  0.00  0.00     0.039 C 
BRANCH  14  15
ATOM     15  C   UNL d   1      31.301 -16.542  -3.172  0.00  0.00     0.124 C 
BRANCH  15  16
ATOM     16  N   UNL d   1      31.006 -17.968  -3.377  0.00  0.00    -0.385 N 
ATOM     17  C   UNL d   1      31.158 -18.967  -2.318  0.00  0.00     0.149 C 
BRANCH  16  18
ATOM     18  C   UNL d   1      30.858 -18.480  -4.672  0.00  0.00     0.029 A 
ATOM     19  C   UNL d   1      30.773 -19.867  -4.886  0.00  0.00     0.029 A 
ATOM     20  C   UNL d   1      30.799 -20.423  -6.171  0.00  0.00     0.002 A 
ATOM     21  C   UNL d   1      30.816 -19.594  -7.284  0.00  0.00     0.000 A 
ATOM     22  C   UNL d   1      30.771 -18.215  -7.106  0.00  0.00     0.002 A 
ATOM     23  C   UNL d   1      30.827 -17.668  -5.815  0.00  0.00     0.029 A 
ENDBRANCH  16  18
ENDBRANCH  15  16
ENDBRANCH  14  15
ENDBRANCH  13  14
ENDBRANCH  10  13
ENDBRANCH   8   9
ENDBRANCH   7   8
ENDBRANCH   1   7
BRANCH   5  24
ATOM     24  C   UNL d   1      26.823 -13.419  -1.474  0.00  0.00     0.089 A 
ATOM     25  C   UNL d   1      27.180 -12.207  -0.638  0.00  0.00     0.027 A 
ATOM     26  C   UNL d   1      26.706 -13.444   0.029  0.00  0.00     0.027 A 
ENDBRANCH   5  24
BRANCH   4  27
ATOM     27  C   UNL d   1      24.739 -15.660  -1.864  0.00  0.00     0.019 A 
ATOM     28  C   UNL d   1      25.704 -16.390  -1.291  0.00  0.00     0.002 A 
ATOM     29  C   UNL d   1      27.124 -16.413  -1.383  0.00  0.00     0.014 A 
ATOM     30  C   UNL d   1      24.998 -17.287  -0.340  0.00  0.00     0.039 A 
ATOM     31  C   UNL d   1      27.805 -17.308  -0.650  0.00  0.00     0.001 A 
ATOM     32  C   UNL d   1      27.136 -18.236   0.249  0.00  0.00     0.002 A 
ATOM     33  C   UNL d   1      25.803 -18.257   0.435  0.00  0.00     0.030 A 
ATOM     34  N   UNL d   1      23.741 -17.082  -0.330  0.00  0.00    -0.385 N 
ATOM     35  C   UNL d   1      23.397 -15.984  -1.273  0.00  0.00     0.163 A 
ATOM     36  H   UNL d   1      23.091 -17.616   0.255  0.00  0.00     0.160 HD
ENDBRANCH   4  27
TORSDOF 10
ENDMDL
MODEL 7
REMARK VINA RESULT:    -6.991      5.089      8.890
REMARK INTER + INTRA:         -12.545
REMARK INTER:                  -9.974
REMARK INTRA:                  -2.571
REMARK CONF_INDEPENDENT:        2.983
REMARK UNBOUND:                -2.571
REMARK  10 active torsions:
REMARK  status: ('A' for Active; 'I' for Inactive)
REMARK    1  A    between atoms: N_2  and  C_3 
REMARK    2  A    between atoms: N_2  and  C_28 
REMARK    3  A    between atoms: C_3  and  C_4 
REMARK    4  A    between atoms: C_4  and  C_5 
REMARK    5  A    between atoms: C_5  and  N_6 
REMARK       I    between atoms: N_6  and  C_7 
REMARK    6  A    between atoms: C_7  and  C_9 
REMARK    7  A    between atoms: C_9  and  S_10 
REMARK    8  A    between atoms: C_11  and  S_10 
REMARK    9  A    between atoms: C_14  and  C_15 
REMARK   10  A    between atoms: N_24  and  C_25 
ROOT
ATOM      1  C   UNL d   1      25.218 -12.252  -3.673  0.00  0.00     0.268 C 
ATOM      2  N   UNL d   1      24.711 -13.351  -4.477  0.00  0.00    -0.279 N 
ATOM      3  N   UNL d   1      24.866 -14.604  -3.987  0.00  0.00    -0.158 NA
ATOM      4  C   UNL d   1      25.544 -14.451  -2.898  0.00  0.00     0.157 C 
ATOM      5  N   UNL d   1      25.927 -13.082  -2.636  0.00  0.00    -0.328 N 
ATOM      6  H   UNL d   1      24.345 -13.173  -5.407  0.00  0.00     0.185 HD
ENDROOT
BRANCH   1   7
ATOM      7  S   UNL d   1      26.298 -11.226  -4.711  0.00  0.00    -0.112 SA
BRANCH   7   8
ATOM      8  C   UNL d   1      25.688  -9.486  -4.483  0.00  0.00     0.180 C 
BRANCH   8   9
ATOM      9  C   UNL d   1      26.398  -8.824  -3.273  0.00  0.00     0.227 C 
ATOM     10  N   UNL d   1      25.571  -8.349  -2.269  0.00  0.00    -0.360 N 
ATOM     11  H   UNL d   1      24.567  -8.474  -2.318  0.00  0.00     0.162 HD
ATOM     12  O   UNL d   1      27.625  -8.741  -3.183  0.00  0.00    -0.273 OA
BRANCH  10  13
ATOM     13  C   UNL d   1      26.122  -7.632  -1.112  0.00  0.00     0.124 C 
BRANCH  13  14
ATOM     14  C   UNL d   1      25.916  -8.404   0.183  0.00  0.00     0.039 C 
BRANCH  14  15
ATOM     15  C   UNL d   1      27.133  -9.242   0.600  0.00  0.00     0.124 C 
BRANCH  15  16
ATOM     16  N   UNL d   1      26.814 -10.266   1.607  0.00  0.00    -0.385 N 
ATOM     17  C   UNL d   1      26.258  -9.937   2.920  0.00  0.00     0.149 C 
BRANCH  16  18
ATOM     18  C   UNL d   1      27.309 -11.569   1.471  0.00  0.00     0.029 A 
ATOM     19  C   UNL d   1      28.679 -11.794   1.256  0.00  0.00     0.029 A 
ATOM     20  C   UNL d   1      29.184 -13.062   0.943  0.00  0.00     0.002 A 
ATOM     21  C   UNL d   1      28.336 -14.161   0.932  0.00  0.00     0.000 A 
ATOM     22  C   UNL d   1      26.997 -13.990   1.266  0.00  0.00     0.002 A 
ATOM     23  C   UNL d   1      26.485 -12.704   1.498  0.00  0.00     0.029 A 
ENDBRANCH  16  18
ENDBRANCH  15  16
ENDBRANCH  14  15
ENDBRANCH  13  14
ENDBRANCH  10  13
ENDBRANCH   8   9
ENDBRANCH   7   8
ENDBRANCH   1   7
BRANCH   5  24
ATOM     24  C   UNL d   1      27.108 -12.681  -1.902  0.00  0.00     0.089 A 
ATOM     25  C   UNL d   1      28.490 -12.801  -2.512  0.00  0.00     0.027 A 
ATOM     26  C   UNL d   1      27.944 -11.460  -2.191  0.00  0.00     0.027 A 
ENDBRANCH   5  24
BRANCH   4  27
ATOM     27  C   UNL d   1      25.886 -15.514  -1.941  0.00  0.00     0.019 A 
ATOM     28  C   UNL d   1      25.019 -16.315  -1.310  0.00  0.00     0.002 A 
ATOM     29  C   UNL d   1      23.600 -16.416  -1.270  0.00  0.00     0.014 A 
ATOM     30  C   UNL d   1      25.862 -17.293  -0.574  0.00  0.00     0.039 A 
ATOM     31  C   UNL d   1      23.039 -17.362  -0.500  0.00  0.00     0.001 A 
ATOM     32  C   UNL d   1      23.839 -18.299   0.273  0.00  0.00     0.002 A 
ATOM     33  C   UNL d   1      25.186 -18.309   0.263  0.00  0.00     0.030 A 
ATOM     34  N   UNL d   1      27.105 -17.106  -0.779  0.00  0.00    -0.385 N 
ATOM     35  C   UNL d   1      27.300 -15.966  -1.716  0.00  0.00     0.163 A 
ATOM     36  H   UNL d   1      27.837 -17.676  -0.345  0.00  0.00     0.160 HD
ENDBRANCH   4  27
TORSDOF 10
ENDMDL
MODEL 8
REMARK VINA RESULT:    -6.810      5.113      8.562
REMARK INTER + INTRA:         -12.894
REMARK INTER:                  -9.793
REMARK INTRA:                  -3.101
REMARK CONF_INDEPENDENT:        2.983
REMARK UNBOUND:                -3.101
REMARK  10 active torsions:
REMARK  status: ('A' for Active; 'I' for Inactive)
REMARK    1  A    between atoms: N_2  and  C_3 
REMARK    2  A    between atoms: N_2  and  C_28 
REMARK    3  A    between atoms: C_3  and  C_4 
REMARK    4  A    between atoms: C_4  and  C_5 
REMARK    5  A    between atoms: C_5  and  N_6 
REMARK       I    between atoms: N_6  and  C_7 
REMARK    6  A    between atoms: C_7  and  C_9 
REMARK    7  A    between atoms: C_9  and  S_10 
REMARK    8  A    between atoms: C_11  and  S_10 
REMARK    9  A    between atoms: C_14  and  C_15 
REMARK   10  A    between atoms: N_24  and  C_25 
ROOT
ATOM      1  C   UNL d   1      25.390 -12.509  -3.627  0.00  0.00     0.268 C 
ATOM      2  N   UNL d   1      24.808 -13.519  -4.493  0.00  0.00    -0.279 N 
ATOM      3  N   UNL d   1      24.780 -14.793  -4.033  0.00  0.00    -0.158 NA
ATOM      4  C   UNL d   1      25.401 -14.748  -2.901  0.00  0.00     0.157 C 
ATOM      5  N   UNL d   1      25.927 -13.442  -2.575  0.00  0.00    -0.328 N 
ATOM      6  H   UNL d   1      24.526 -13.278  -5.437  0.00  0.00     0.185 HD
ENDROOT
BRANCH   1   7
ATOM      7  S   UNL d   1      26.649 -11.598  -4.566  0.00  0.00    -0.112 SA
BRANCH   7   8
ATOM      8  C   UNL d   1      27.264 -12.794  -5.847  0.00  0.00     0.180 C 
BRANCH   8   9
ATOM      9  C   UNL d   1      27.817 -14.072  -5.165  0.00  0.00     0.227 C 
ATOM     10  N   UNL d   1      28.731 -13.869  -4.143  0.00  0.00    -0.360 N 
ATOM     11  H   UNL d   1      28.978 -12.933  -3.845  0.00  0.00     0.162 HD
ATOM     12  O   UNL d   1      27.457 -15.208  -5.482  0.00  0.00    -0.273 OA
BRANCH  10  13
ATOM     13  C   UNL d   1      29.384 -15.002  -3.476  0.00  0.00     0.124 C 
BRANCH  13  14
ATOM     14  C   UNL d   1      30.480 -14.542  -2.525  0.00  0.00     0.039 C 
BRANCH  14  15
ATOM     15  C   UNL d   1      31.117 -15.685  -1.721  0.00  0.00     0.124 C 
BRANCH  15  16
ATOM     16  N   UNL d   1      30.203 -16.278  -0.733  0.00  0.00    -0.385 N 
ATOM     17  C   UNL d   1      29.639 -17.619  -0.884  0.00  0.00     0.149 C 
BRANCH  16  18
ATOM     18  C   UNL d   1      29.596 -15.474   0.240  0.00  0.00     0.029 A 
ATOM     19  C   UNL d   1      30.270 -14.360   0.768  0.00  0.00     0.029 A 
ATOM     20  C   UNL d   1      29.771 -13.638   1.859  0.00  0.00     0.002 A 
ATOM     21  C   UNL d   1      28.529 -13.958   2.390  0.00  0.00     0.000 A 
ATOM     22  C   UNL d   1      27.780 -14.974   1.806  0.00  0.00     0.002 A 
ATOM     23  C   UNL d   1      28.324 -15.743   0.766  0.00  0.00     0.029 A 
ENDBRANCH  16  18
ENDBRANCH  15  16
ENDBRANCH  14  15
ENDBRANCH  13  14
ENDBRANCH  10  13
ENDBRANCH   8   9
ENDBRANCH   7   8
ENDBRANCH   1   7
BRANCH   5  24
ATOM     24  C   UNL d   1      27.097 -13.204  -1.758  0.00  0.00     0.089 A 
ATOM     25  C   UNL d   1      27.530 -11.797  -1.398  0.00  0.00     0.027 A 
ATOM     26  C   UNL d   1      27.083 -12.722  -0.329  0.00  0.00     0.027 A 
ENDBRANCH   5  24
BRANCH   4  27
ATOM     27  C   UNL d   1      25.551 -15.866  -1.957  0.00  0.00     0.019 A 
ATOM     28  C   UNL d   1      24.557 -16.502  -1.323  0.00  0.00     0.002 A 
ATOM     29  C   UNL d   1      23.145 -16.341  -1.268  0.00  0.00     0.014 A 
ATOM     30  C   UNL d   1      25.215 -17.625  -0.606  0.00  0.00     0.039 A 
ATOM     31  C   UNL d   1      22.428 -17.177  -0.501  0.00  0.00     0.001 A 
ATOM     32  C   UNL d   1      23.050 -18.253   0.255  0.00  0.00     0.002 A 
ATOM     33  C   UNL d   1      24.371 -18.510   0.230  0.00  0.00     0.030 A 
ATOM     34  N   UNL d   1      26.468 -17.667  -0.823  0.00  0.00    -0.385 N 
ATOM     35  C   UNL d   1      26.860 -16.572  -1.752  0.00  0.00     0.163 A 
ATOM     36  H   UNL d   1      27.087 -18.366  -0.403  0.00  0.00     0.160 HD
ENDBRANCH   4  27
TORSDOF 10
ENDMDL
MODEL 9
REMARK VINA RESULT:    -6.349      6.556      8.722
REMARK INTER + INTRA:         -12.804
REMARK INTER:                  -9.332
REMARK INTRA:                  -3.472
REMARK CONF_INDEPENDENT:        2.983
REMARK UNBOUND:                -3.472
REMARK  10 active torsions:
REMARK  status: ('A' for Active; 'I' for Inactive)
REMARK    1  A    between atoms: N_2  and  C_3 
REMARK    2  A    between atoms: N_2  and  C_28 
REMARK    3  A    between atoms: C_3  and  C_4 
REMARK    4  A    between atoms: C_4  and  C_5 
REMARK    5  A    between atoms: C_5  and  N_6 
REMARK       I    between atoms: N_6  and  C_7 
REMARK    6  A    between atoms: C_7  and  C_9 
REMARK    7  A    between atoms: C_9  and  S_10 
REMARK    8  A    between atoms: C_11  and  S_10 
REMARK    9  A    between atoms: C_14  and  C_15 
REMARK   10  A    between atoms: N_24  and  C_25 
ROOT
ATOM      1  C   UNL d   1      25.332 -12.206  -3.609  0.00  0.00     0.268 C 
ATOM      2  N   UNL d   1      24.781 -13.234  -4.474  0.00  0.00    -0.279 N 
ATOM      3  N   UNL d   1      24.906 -14.521  -4.070  0.00  0.00    -0.158 NA
ATOM      4  C   UNL d   1      25.605 -14.460  -2.985  0.00  0.00     0.157 C 
ATOM      5  N   UNL d   1      26.033 -13.123  -2.641  0.00  0.00    -0.328 N 
ATOM      6  H   UNL d   1      24.406 -12.986  -5.383  0.00  0.00     0.185 HD
ENDROOT
BRANCH   1   7
ATOM      7  S   UNL d   1      26.426 -11.145  -4.596  0.00  0.00    -0.112 SA
BRANCH   7   8
ATOM      8  C   UNL d   1      26.872 -12.157  -6.088  0.00  0.00     0.180 C 
BRANCH   8   9
ATOM      9  C   UNL d   1      27.932 -13.225  -5.713  0.00  0.00     0.227 C 
ATOM     10  N   UNL d   1      27.449 -14.499  -5.466  0.00  0.00    -0.360 N 
ATOM     11  H   UNL d   1      26.465 -14.712  -5.571  0.00  0.00     0.162 HD
ATOM     12  O   UNL d   1      29.139 -12.979  -5.659  0.00  0.00    -0.273 OA
BRANCH  10  13
ATOM     13  C   UNL d   1      28.345 -15.575  -5.024  0.00  0.00     0.124 C 
BRANCH  13  14
ATOM     14  C   UNL d   1      29.407 -15.891  -6.068  0.00  0.00     0.039 C 
BRANCH  14  15
ATOM     15  C   UNL d   1      30.772 -16.255  -5.467  0.00  0.00     0.124 C 
BRANCH  15  16
ATOM     16  N   UNL d   1      30.688 -17.277  -4.412  0.00  0.00    -0.385 N 
ATOM     17  C   UNL d   1      30.447 -18.691  -4.700  0.00  0.00     0.149 C 
BRANCH  16  18
ATOM     18  C   UNL d   1      30.534 -16.899  -3.073  0.00  0.00     0.029 A 
ATOM     19  C   UNL d   1      30.546 -15.542  -2.708  0.00  0.00     0.029 A 
ATOM     20  C   UNL d   1      30.570 -15.132  -1.369  0.00  0.00     0.002 A 
ATOM     21  C   UNL d   1      30.485 -16.077  -0.355  0.00  0.00     0.000 A 
ATOM     22  C   UNL d   1      30.343 -17.420  -0.687  0.00  0.00     0.002 A 
ATOM     23  C   UNL d   1      30.402 -17.826  -2.029  0.00  0.00     0.029 A 
ENDBRANCH  16  18
ENDBRANCH  15  16
ENDBRANCH  14  15
ENDBRANCH  13  14
ENDBRANCH  10  13
ENDBRANCH   8   9
ENDBRANCH   7   8
ENDBRANCH   1   7
BRANCH   5  24
ATOM     24  C   UNL d   1      27.236 -12.804  -1.902  0.00  0.00     0.089 A 
ATOM     25  C   UNL d   1      27.211 -11.828  -0.743  0.00  0.00     0.027 A 
ATOM     26  C   UNL d   1      27.542 -13.252  -0.496  0.00  0.00     0.027 A 
ENDBRANCH   5  24
BRANCH   4  27
ATOM     27  C   UNL d   1      25.930 -15.592  -2.105  0.00  0.00     0.019 A 
ATOM     28  C   UNL d   1      25.051 -16.346  -1.433  0.00  0.00     0.002 A 
ATOM     29  C   UNL d   1      23.638 -16.326  -1.272  0.00  0.00     0.014 A 
ATOM     30  C   UNL d   1      25.863 -17.426  -0.814  0.00  0.00     0.039 A 
ATOM     31  C   UNL d   1      23.062 -17.257  -0.494  0.00  0.00     0.001 A 
ATOM     32  C   UNL d   1      23.838 -18.295   0.167  0.00  0.00     0.002 A 
ATOM     33  C   UNL d   1      25.172 -18.420   0.038  0.00  0.00     0.030 A 
ATOM     34  N   UNL d   1      27.096 -17.336  -1.121  0.00  0.00    -0.385 N 
ATOM     35  C   UNL d   1      27.312 -16.174  -2.024  0.00  0.00     0.163 A 
ATOM     36  H   UNL d   1      27.808 -17.987  -0.777  0.00  0.00     0.160 HD
ENDBRANCH   4  27
TORSDOF 10
ENDMDL
