MODEL 1
REMARK VINA RESULT:    -8.243      0.000      0.000
REMARK INTER + INTRA:         -10.471
REMARK INTER:                  -9.735
REMARK INTRA:                  -0.736
REMARK CONF_INDEPENDENT:        1.492
REMARK UNBOUND:                -0.736
REMARK  5 active torsions:
REMARK  status: ('A' for Active; 'I' for Inactive)
REMARK    1  A    between atoms: C_2  and  C_4 
REMARK    2  A    between atoms: C_4  and  C_5 
REMARK    3  A    between atoms: C_5  and  C_6 
REMARK       I    between atoms: C_6  and  N_8 
REMARK    4  A    between atoms: N_8  and  N_9 
REMARK       I    between atoms: N_9  and  C_10 
REMARK    5  A    between atoms: C_10  and  C_12 
ROOT
ATOM      1  N   UNL d   1      22.886 -19.087  -0.162  0.00  0.00    -0.263 N 
ATOM      2  C   UNL d   1      23.143 -17.759  -0.459  0.00  0.00     0.270 C 
ATOM      3  O   UNL d   1      22.276 -16.885  -0.434  0.00  0.00    -0.266 OA
ATOM      4  H   UNL d   1      23.606 -19.804  -0.078  0.00  0.00     0.190 HD
ENDROOT
BRANCH   2   5
ATOM      5  C   UNL d   1      24.547 -17.406  -0.841  0.00  0.00     0.036 A 
ATOM      6  C   UNL d   1      25.610 -17.695   0.033  0.00  0.00     0.020 A 
ATOM      7  C   UNL d   1      26.915 -17.277  -0.268  0.00  0.00     0.040 A 
ATOM      8  C   UNL d   1      27.163 -16.550  -1.430  0.00  0.00     0.096 A 
ATOM      9  C   UNL d   1      26.112 -16.274  -2.310  0.00  0.00     0.069 A 
ATOM     10  O   UNL d   1      28.461 -16.184  -1.665  0.00  0.00    -0.340 OA
ATOM     11  C   UNL d   1      24.809 -16.698  -2.023  0.00  0.00     0.049 A 
ATOM     12  N   UNL d   1      26.368 -15.578  -3.493  0.00  0.00    -0.323 N 
ATOM     13  C   UNL d   1      27.596 -15.031  -3.754  0.00  0.00     0.246 C 
ATOM     14  H   UNL d   1      25.656 -15.458  -4.202  0.00  0.00     0.169 HD
ATOM     15  O   UNL d   1      27.822 -14.436  -4.804  0.00  0.00    -0.271 OA
ATOM     16  C   UNL d   1      28.604 -15.134  -2.613  0.00  0.00     0.278 C 
ENDBRANCH   2   5
BRANCH   1  17
ATOM     17  N   UNL d   1      21.572 -19.501   0.168  0.00  0.00    -0.267 N 
ATOM     18  C   UNL d   1      20.636 -19.584  -0.851  0.00  0.00     0.236 C 
ATOM     19  O   UNL d   1      20.930 -19.326  -2.020  0.00  0.00    -0.272 OA
ATOM     20  H   UNL d   1      21.382 -19.709   1.147  0.00  0.00     0.190 HD
BRANCH  18  21
ATOM     21  C   UNL d   1      19.242 -20.025  -0.418  0.00  0.00     0.105 C 
BRANCH  21  22
ATOM     22  C   UNL d   1      18.789 -19.326   0.877  0.00  0.00     0.013 C 
BRANCH  22  23
ATOM     23  C   UNL d   1      18.410 -20.294   2.017  0.00  0.00    -0.022 C 
ATOM     24  C   UNL d   1      18.048 -21.672   1.450  0.00  0.00     0.009 C 
ATOM     25  C   UNL d   1      19.552 -20.450   3.021  0.00  0.00     0.009 C 
ENDBRANCH  22  23
ENDBRANCH  21  22
ENDBRANCH  18  21
ENDBRANCH   1  17
TORSDOF 5
ENDMDL
MODEL 2
REMARK VINA RESULT:    -8.214      1.869      2.067
REMARK INTER + INTRA:         -11.011
REMARK INTER:                  -9.706
REMARK INTRA:                  -1.305
REMARK CONF_INDEPENDENT:        1.492
REMARK UNBOUND:                -1.305
REMARK  5 active torsions:
REMARK  status: ('A' for Active; 'I' for Inactive)
REMARK    1  A    between atoms: C_2  and  C_4 
REMARK    2  A    between atoms: C_4  and  C_5 
REMARK    3  A    between atoms: C_5  and  C_6 
REMARK       I    between atoms: C_6  and  N_8 
REMARK    4  A    between atoms: N_8  and  N_9 
REMARK       I    between atoms: N_9  and  C_10 
REMARK    5  A    between atoms: C_10  and  C_12 
ROOT
ATOM      1  N   UNL d   1      23.440 -17.795  -0.782  0.00  0.00    -0.263 N 
ATOM      2  C   UNL d   1      24.789 -17.712  -0.480  0.00  0.00     0.270 C 
ATOM      3  O   UNL d   1      25.382 -18.559   0.188  0.00  0.00    -0.266 OA
ATOM      4  H   UNL d   1      22.955 -17.160  -1.415  0.00  0.00     0.190 HD
ENDROOT
BRANCH   2   5
ATOM      5  C   UNL d   1      25.528 -16.513  -0.990  0.00  0.00     0.036 A 
ATOM      6  C   UNL d   1      26.564 -15.946  -0.226  0.00  0.00     0.020 A 
ATOM      7  C   UNL d   1      27.194 -14.763  -0.644  0.00  0.00     0.040 A 
ATOM      8  C   UNL d   1      26.779 -14.130  -1.814  0.00  0.00     0.096 A 
ATOM      9  C   UNL d   1      25.761 -14.699  -2.585  0.00  0.00     0.069 A 
ATOM     10  O   UNL d   1      27.445 -12.987  -2.167  0.00  0.00    -0.340 OA
ATOM     11  C   UNL d   1      25.136 -15.885  -2.181  0.00  0.00     0.049 A 
ATOM     12  N   UNL d   1      25.372 -14.084  -3.777  0.00  0.00    -0.323 N 
ATOM     13  C   UNL d   1      25.860 -12.859  -4.146  0.00  0.00     0.246 C 
ATOM     14  H   UNL d   1      24.719 -14.525  -4.412  0.00  0.00     0.169 HD
ATOM     15  O   UNL d   1      25.530 -12.330  -5.203  0.00  0.00    -0.271 OA
ATOM     16  C   UNL d   1      26.749 -12.179  -3.108  0.00  0.00     0.278 C 
ENDBRANCH   2   5
BRANCH   1  17
ATOM     17  N   UNL d   1      22.669 -18.880  -0.296  0.00  0.00    -0.267 N 
ATOM     18  C   UNL d   1      21.308 -18.885  -0.556  0.00  0.00     0.236 C 
ATOM     19  O   UNL d   1      20.771 -17.986  -1.207  0.00  0.00    -0.272 OA
ATOM     20  H   UNL d   1      23.161 -19.600   0.230  0.00  0.00     0.190 HD
BRANCH  18  21
ATOM     21  C   UNL d   1      20.543 -20.078   0.007  0.00  0.00     0.105 C 
BRANCH  21  22
ATOM     22  C   UNL d   1      19.033 -19.797   0.123  0.00  0.00     0.013 C 
BRANCH  22  23
ATOM     23  C   UNL d   1      18.353 -20.490   1.322  0.00  0.00    -0.022 C 
ATOM     24  C   UNL d   1      18.029 -21.949   0.983  0.00  0.00     0.009 C 
ATOM     25  C   UNL d   1      19.238 -20.450   2.568  0.00  0.00     0.009 C 
ENDBRANCH  22  23
ENDBRANCH  21  22
ENDBRANCH  18  21
ENDBRANCH   1  17
TORSDOF 5
ENDMDL
MODEL 3
REMARK VINA RESULT:    -8.092      1.845      2.647
REMARK INTER + INTRA:         -10.439
REMARK INTER:                  -9.583
REMARK INTRA:                  -0.855
REMARK CONF_INDEPENDENT:        1.492
REMARK UNBOUND:                -0.855
REMARK  5 active torsions:
REMARK  status: ('A' for Active; 'I' for Inactive)
REMARK    1  A    between atoms: C_2  and  C_4 
REMARK    2  A    between atoms: C_4  and  C_5 
REMARK    3  A    between atoms: C_5  and  C_6 
REMARK       I    between atoms: C_6  and  N_8 
REMARK    4  A    between atoms: N_8  and  N_9 
REMARK       I    between atoms: N_9  and  C_10 
REMARK    5  A    between atoms: C_10  and  C_12 
ROOT
ATOM      1  N   UNL d   1      23.179 -17.582  -0.731  0.00  0.00    -0.263 N 
ATOM      2  C   UNL d   1      24.369 -17.740  -0.040  0.00  0.00     0.270 C 
ATOM      3  O   UNL d   1      24.441 -18.295   1.057  0.00  0.00    -0.266 OA
ATOM      4  H   UNL d   1      23.113 -17.219  -1.681  0.00  0.00     0.190 HD
ENDROOT
BRANCH   2   5
ATOM      5  C   UNL d   1      25.605 -17.183  -0.677  0.00  0.00     0.036 A 
ATOM      6  C   UNL d   1      25.505 -16.386  -1.831  0.00  0.00     0.020 A 
ATOM      7  C   UNL d   1      26.660 -15.944  -2.495  0.00  0.00     0.040 A 
ATOM      8  C   UNL d   1      27.918 -16.313  -2.024  0.00  0.00     0.096 A 
ATOM      9  C   UNL d   1      28.022 -17.092  -0.868  0.00  0.00     0.069 A 
ATOM     10  O   UNL d   1      29.000 -15.837  -2.714  0.00  0.00    -0.340 OA
ATOM     11  C   UNL d   1      26.875 -17.526  -0.193  0.00  0.00     0.049 A 
ATOM     12  N   UNL d   1      29.284 -17.429  -0.374  0.00  0.00    -0.323 N 
ATOM     13  C   UNL d   1      30.429 -17.140  -1.069  0.00  0.00     0.246 C 
ATOM     14  H   UNL d   1      29.398 -17.896   0.516  0.00  0.00     0.169 HD
ATOM     15  O   UNL d   1      31.537 -17.422  -0.624  0.00  0.00    -0.271 OA
ATOM     16  C   UNL d   1      30.207 -16.543  -2.457  0.00  0.00     0.278 C 
ENDBRANCH   2   5
BRANCH   1  17
ATOM     17  N   UNL d   1      21.964 -18.047  -0.170  0.00  0.00    -0.267 N 
ATOM     18  C   UNL d   1      21.196 -18.931  -0.910  0.00  0.00     0.236 C 
ATOM     19  O   UNL d   1      21.555 -19.325  -2.021  0.00  0.00    -0.272 OA
ATOM     20  H   UNL d   1      21.716 -17.696   0.754  0.00  0.00     0.190 HD
BRANCH  18  21
ATOM     21  C   UNL d   1      19.898 -19.378  -0.246  0.00  0.00     0.105 C 
BRANCH  21  22
ATOM     22  C   UNL d   1      20.086 -20.656   0.593  0.00  0.00     0.013 C 
BRANCH  22  23
ATOM     23  C   UNL d   1      18.799 -21.154   1.283  0.00  0.00    -0.022 C 
ATOM     24  C   UNL d   1      18.363 -20.171   2.375  0.00  0.00     0.009 C 
ATOM     25  C   UNL d   1      17.658 -21.326   0.280  0.00  0.00     0.009 C 
ENDBRANCH  22  23
ENDBRANCH  21  22
ENDBRANCH  18  21
ENDBRANCH   1  17
TORSDOF 5
ENDMDL
MODEL 4
REMARK VINA RESULT:    -7.826      2.017      2.298
REMARK INTER + INTRA:          -9.979
REMARK INTER:                  -9.317
REMARK INTRA:                  -0.661
REMARK CONF_INDEPENDENT:        1.492
REMARK UNBOUND:                -0.661
REMARK  5 active torsions:
REMARK  status: ('A' for Active; 'I' for Inactive)
REMARK    1  A    between atoms: C_2  and  C_4 
REMARK    2  A    between atoms: C_4  and  C_5 
REMARK    3  A    between atoms: C_5  and  C_6 
REMARK       I    between atoms: C_6  and  N_8 
REMARK    4  A    between atoms: N_8  and  N_9 
REMARK       I    between atoms: N_9  and  C_10 
REMARK    5  A    between atoms: C_10  and  C_12 
ROOT
ATOM      1  N   UNL d   1      23.050 -18.422   0.167  0.00  0.00    -0.263 N 
ATOM      2  C   UNL d   1      23.890 -18.176  -0.908  0.00  0.00     0.270 C 
ATOM      3  O   UNL d   1      23.653 -18.570  -2.050  0.00  0.00    -0.266 OA
ATOM      4  H   UNL d   1      23.176 -18.020   1.094  0.00  0.00     0.190 HD
ENDROOT
BRANCH   2   5
ATOM      5  C   UNL d   1      25.145 -17.407  -0.629  0.00  0.00     0.036 A 
ATOM      6  C   UNL d   1      26.264 -18.060  -0.082  0.00  0.00     0.020 A 
ATOM      7  C   UNL d   1      27.408 -17.332   0.280  0.00  0.00     0.040 A 
ATOM      8  C   UNL d   1      27.433 -15.948   0.117  0.00  0.00     0.096 A 
ATOM      9  C   UNL d   1      26.329 -15.298  -0.441  0.00  0.00     0.069 A 
ATOM     10  O   UNL d   1      28.585 -15.304   0.480  0.00  0.00    -0.340 OA
ATOM     11  C   UNL d   1      25.188 -16.019  -0.815  0.00  0.00     0.049 A 
ATOM     12  N   UNL d   1      26.369 -13.916  -0.639  0.00  0.00    -0.323 N 
ATOM     13  C   UNL d   1      27.406 -13.153  -0.171  0.00  0.00     0.246 C 
ATOM     14  H   UNL d   1      25.636 -13.430  -1.140  0.00  0.00     0.169 HD
ATOM     15  O   UNL d   1      27.446 -11.941  -0.363  0.00  0.00    -0.271 OA
ATOM     16  C   UNL d   1      28.429 -13.905   0.676  0.00  0.00     0.278 C 
ENDBRANCH   2   5
BRANCH   1  17
ATOM     17  N   UNL d   1      21.866 -19.180  -0.016  0.00  0.00    -0.267 N 
ATOM     18  C   UNL d   1      20.839 -18.621  -0.758  0.00  0.00     0.236 C 
ATOM     19  O   UNL d   1      20.944 -17.504  -1.268  0.00  0.00    -0.272 OA
ATOM     20  H   UNL d   1      21.833 -20.100   0.421  0.00  0.00     0.190 HD
BRANCH  18  21
ATOM     21  C   UNL d   1      19.594 -19.490  -0.901  0.00  0.00     0.105 C 
BRANCH  21  22
ATOM     22  C   UNL d   1      19.727 -20.823  -0.143  0.00  0.00     0.013 C 
BRANCH  22  23
ATOM     23  C   UNL d   1      19.008 -20.849   1.221  0.00  0.00    -0.022 C 
ATOM     24  C   UNL d   1      18.775 -19.421   1.730  0.00  0.00     0.009 C 
ATOM     25  C   UNL d   1      17.664 -21.573   1.132  0.00  0.00     0.009 C 
ENDBRANCH  22  23
ENDBRANCH  21  22
ENDBRANCH  18  21
ENDBRANCH   1  17
TORSDOF 5
ENDMDL
MODEL 5
REMARK VINA RESULT:    -7.788      2.149      3.028
REMARK INTER + INTRA:         -10.546
REMARK INTER:                  -9.279
REMARK INTRA:                  -1.267
REMARK CONF_INDEPENDENT:        1.492
REMARK UNBOUND:                -1.267
REMARK  5 active torsions:
REMARK  status: ('A' for Active; 'I' for Inactive)
REMARK    1  A    between atoms: C_2  and  C_4 
REMARK    2  A    between atoms: C_4  and  C_5 
REMARK    3  A    between atoms: C_5  and  C_6 
REMARK       I    between atoms: C_6  and  N_8 
REMARK    4  A    between atoms: N_8  and  N_9 
REMARK       I    between atoms: N_9  and  C_10 
REMARK    5  A    between atoms: C_10  and  C_12 
ROOT
ATOM      1  N   UNL d   1      23.848 -16.985  -1.619  0.00  0.00    -0.263 N 
ATOM      2  C   UNL d   1      24.771 -16.000  -1.309  0.00  0.00     0.270 C 
ATOM      3  O   UNL d   1      24.957 -15.589  -0.164  0.00  0.00    -0.266 OA
ATOM      4  H   UNL d   1      23.750 -17.409  -2.540  0.00  0.00     0.190 HD
ENDROOT
BRANCH   2   5
ATOM      5  C   UNL d   1      25.549 -15.415  -2.447  0.00  0.00     0.036 A 
ATOM      6  C   UNL d   1      26.823 -15.920  -2.763  0.00  0.00     0.020 A 
ATOM      7  C   UNL d   1      27.604 -15.314  -3.759  0.00  0.00     0.040 A 
ATOM      8  C   UNL d   1      27.127 -14.189  -4.429  0.00  0.00     0.096 A 
ATOM      9  C   UNL d   1      25.855 -13.694  -4.130  0.00  0.00     0.069 A 
ATOM     10  O   UNL d   1      27.937 -13.656  -5.396  0.00  0.00    -0.340 OA
ATOM     11  C   UNL d   1      25.065 -14.300  -3.146  0.00  0.00     0.049 A 
ATOM     12  N   UNL d   1      25.363 -12.590  -4.829  0.00  0.00    -0.323 N 
ATOM     13  C   UNL d   1      26.146 -11.885  -5.704  0.00  0.00     0.246 C 
ATOM     14  H   UNL d   1      24.408 -12.274  -4.716  0.00  0.00     0.169 HD
ATOM     15  O   UNL d   1      25.704 -10.926  -6.330  0.00  0.00    -0.271 OA
ATOM     16  C   UNL d   1      27.608 -12.321  -5.756  0.00  0.00     0.278 C 
ENDBRANCH   2   5
BRANCH   1  17
ATOM     17  N   UNL d   1      23.046 -17.554  -0.598  0.00  0.00    -0.267 N 
ATOM     18  C   UNL d   1      22.300 -18.681  -0.902  0.00  0.00     0.236 C 
ATOM     19  O   UNL d   1      22.337 -19.198  -2.020  0.00  0.00    -0.272 OA
ATOM     20  H   UNL d   1      23.056 -17.093   0.311  0.00  0.00     0.190 HD
BRANCH  18  21
ATOM     21  C   UNL d   1      21.454 -19.229   0.244  0.00  0.00     0.105 C 
BRANCH  21  22
ATOM     22  C   UNL d   1      20.070 -19.705  -0.234  0.00  0.00     0.013 C 
BRANCH  22  23
ATOM     23  C   UNL d   1      19.055 -19.937   0.904  0.00  0.00    -0.022 C 
ATOM     24  C   UNL d   1      18.228 -21.200   0.634  0.00  0.00     0.009 C 
ATOM     25  C   UNL d   1      19.753 -20.077   2.257  0.00  0.00     0.009 C 
ENDBRANCH  22  23
ENDBRANCH  21  22
ENDBRANCH  18  21
ENDBRANCH   1  17
TORSDOF 5
ENDMDL
MODEL 6
REMARK VINA RESULT:    -7.705      2.149      2.756
REMARK INTER + INTRA:         -10.569
REMARK INTER:                  -9.197
REMARK INTRA:                  -1.372
REMARK CONF_INDEPENDENT:        1.492
REMARK UNBOUND:                -1.372
REMARK  5 active torsions:
REMARK  status: ('A' for Active; 'I' for Inactive)
REMARK    1  A    between atoms: C_2  and  C_4 
REMARK    2  A    between atoms: C_4  and  C_5 
REMARK    3  A    between atoms: C_5  and  C_6 
REMARK       I    between atoms: C_6  and  N_8 
REMARK    4  A    between atoms: N_8  and  N_9 
REMARK       I    between atoms: N_9  and  C_10 
REMARK    5  A    between atoms: C_10  and  C_12 
ROOT
ATOM      1  N   UNL d   1      23.324 -17.818  -0.765  0.00  0.00    -0.263 N 
ATOM      2  C   UNL d   1      24.673 -17.909  -0.462  0.00  0.00     0.270 C 
ATOM      3  O   UNL d   1      25.209 -18.951  -0.084  0.00  0.00    -0.266 OA
ATOM      4  H   UNL d   1      22.884 -16.996  -1.175  0.00  0.00     0.190 HD
ENDROOT
BRANCH   2   5
ATOM      5  C   UNL d   1      25.486 -16.658  -0.595  0.00  0.00     0.036 A 
ATOM      6  C   UNL d   1      25.099 -15.659  -1.506  0.00  0.00     0.020 A 
ATOM      7  C   UNL d   1      25.907 -14.531  -1.714  0.00  0.00     0.040 A 
ATOM      8  C   UNL d   1      27.115 -14.404  -1.031  0.00  0.00     0.096 A 
ATOM      9  C   UNL d   1      27.496 -15.387  -0.112  0.00  0.00     0.069 A 
ATOM     10  O   UNL d   1      27.847 -13.274  -1.274  0.00  0.00    -0.340 OA
ATOM     11  C   UNL d   1      26.689 -16.510   0.110  0.00  0.00     0.049 A 
ATOM     12  N   UNL d   1      28.688 -15.241   0.600  0.00  0.00    -0.323 N 
ATOM     13  C   UNL d   1      29.571 -14.231   0.324  0.00  0.00     0.246 C 
ATOM     14  H   UNL d   1      28.939 -15.873   1.349  0.00  0.00     0.169 HD
ATOM     15  O   UNL d   1      30.609 -14.095   0.965  0.00  0.00    -0.271 OA
ATOM     16  C   UNL d   1      29.211 -13.372  -0.885  0.00  0.00     0.278 C 
ENDBRANCH   2   5
BRANCH   1  17
ATOM     17  N   UNL d   1      22.486 -18.952  -0.622  0.00  0.00    -0.267 N 
ATOM     18  C   UNL d   1      21.135 -18.806  -0.891  0.00  0.00     0.236 C 
ATOM     19  O   UNL d   1      20.663 -17.730  -1.265  0.00  0.00    -0.272 OA
ATOM     20  H   UNL d   1      22.926 -19.819  -0.317  0.00  0.00     0.190 HD
BRANCH  18  21
ATOM     21  C   UNL d   1      20.295 -20.065  -0.704  0.00  0.00     0.105 C 
BRANCH  21  22
ATOM     22  C   UNL d   1      18.871 -19.745  -0.214  0.00  0.00     0.013 C 
BRANCH  22  23
ATOM     23  C   UNL d   1      18.612 -20.116   1.260  0.00  0.00    -0.022 C 
ATOM     24  C   UNL d   1      18.039 -21.534   1.362  0.00  0.00     0.009 C 
ATOM     25  C   UNL d   1      19.892 -20.033   2.091  0.00  0.00     0.009 C 
ENDBRANCH  22  23
ENDBRANCH  21  22
ENDBRANCH  18  21
ENDBRANCH   1  17
TORSDOF 5
ENDMDL
MODEL 7
REMARK VINA RESULT:    -7.317      2.026      3.242
REMARK INTER + INTRA:         -10.095
REMARK INTER:                  -8.808
REMARK INTRA:                  -1.287
REMARK CONF_INDEPENDENT:        1.492
REMARK UNBOUND:                -1.287
REMARK  5 active torsions:
REMARK  status: ('A' for Active; 'I' for Inactive)
REMARK    1  A    between atoms: C_2  and  C_4 
REMARK    2  A    between atoms: C_4  and  C_5 
REMARK    3  A    between atoms: C_5  and  C_6 
REMARK       I    between atoms: C_6  and  N_8 
REMARK    4  A    between atoms: N_8  and  N_9 
REMARK       I    between atoms: N_9  and  C_10 
REMARK    5  A    between atoms: C_10  and  C_12 
ROOT
ATOM      1  N   UNL d   1      24.148 -16.920  -1.684  0.00  0.00    -0.263 N 
ATOM      2  C   UNL d   1      25.127 -15.975  -1.424  0.00  0.00     0.270 C 
ATOM      3  O   UNL d   1      25.361 -15.543  -0.295  0.00  0.00    -0.266 OA
ATOM      4  H   UNL d   1      24.007 -17.363  -2.591  0.00  0.00     0.190 HD
ENDROOT
BRANCH   2   5
ATOM      5  C   UNL d   1      25.906 -15.461  -2.595  0.00  0.00     0.036 A 
ATOM      6  C   UNL d   1      25.314 -14.554  -3.492  0.00  0.00     0.020 A 
ATOM      7  C   UNL d   1      25.996 -14.146  -4.648  0.00  0.00     0.040 A 
ATOM      8  C   UNL d   1      27.262 -14.657  -4.927  0.00  0.00     0.096 A 
ATOM      9  C   UNL d   1      27.861 -15.546  -4.030  0.00  0.00     0.069 A 
ATOM     10  O   UNL d   1      27.874 -14.207  -6.066  0.00  0.00    -0.340 OA
ATOM     11  C   UNL d   1      27.192 -15.949  -2.868  0.00  0.00     0.049 A 
ATOM     12  N   UNL d   1      29.145 -16.028  -4.290  0.00  0.00    -0.323 N 
ATOM     13  C   UNL d   1      29.785 -15.767  -5.472  0.00  0.00     0.246 C 
ATOM     14  H   UNL d   1      29.651 -16.584  -3.612  0.00  0.00     0.169 HD
ATOM     15  O   UNL d   1      30.922 -16.178  -5.690  0.00  0.00    -0.271 OA
ATOM     16  C   UNL d   1      28.945 -15.028  -6.510  0.00  0.00     0.278 C 
ENDBRANCH   2   5
BRANCH   1  17
ATOM     17  N   UNL d   1      23.344 -17.419  -0.630  0.00  0.00    -0.267 N 
ATOM     18  C   UNL d   1      22.489 -18.475  -0.901  0.00  0.00     0.236 C 
ATOM     19  O   UNL d   1      22.431 -18.989  -2.020  0.00  0.00    -0.272 OA
ATOM     20  H   UNL d   1      23.434 -16.964   0.278  0.00  0.00     0.190 HD
BRANCH  18  21
ATOM     21  C   UNL d   1      21.648 -18.950   0.280  0.00  0.00     0.105 C 
BRANCH  21  22
ATOM     22  C   UNL d   1      20.274 -19.486  -0.165  0.00  0.00     0.013 C 
BRANCH  22  23
ATOM     23  C   UNL d   1      19.672 -20.543   0.783  0.00  0.00    -0.022 C 
ATOM     24  C   UNL d   1      19.772 -20.073   2.240  0.00  0.00     0.009 C 
ATOM     25  C   UNL d   1      18.208 -20.826   0.449  0.00  0.00     0.009 C 
ENDBRANCH  22  23
ENDBRANCH  21  22
ENDBRANCH  18  21
ENDBRANCH   1  17
TORSDOF 5
ENDMDL
MODEL 8
REMARK VINA RESULT:    -6.507      3.166      8.430
REMARK INTER + INTRA:          -9.446
REMARK INTER:                  -7.999
REMARK INTRA:                  -1.447
REMARK CONF_INDEPENDENT:        1.492
REMARK UNBOUND:                -1.447
REMARK  5 active torsions:
REMARK  status: ('A' for Active; 'I' for Inactive)
REMARK    1  A    between atoms: C_2  and  C_4 
REMARK    2  A    between atoms: C_4  and  C_5 
REMARK    3  A    between atoms: C_5  and  C_6 
REMARK       I    between atoms: C_6  and  N_8 
REMARK    4  A    between atoms: N_8  and  N_9 
REMARK       I    between atoms: N_9  and  C_10 
REMARK    5  A    between atoms: C_10  and  C_12 
ROOT
ATOM      1  N   UNL d   1      26.670 -16.138   0.276  0.00  0.00    -0.263 N 
ATOM      2  C   UNL d   1      26.040 -17.357   0.466  0.00  0.00     0.270 C 
ATOM      3  O   UNL d   1      26.581 -18.315   1.019  0.00  0.00    -0.266 OA
ATOM      4  H   UNL d   1      26.208 -15.305  -0.085  0.00  0.00     0.190 HD
ENDROOT
BRANCH   2   5
ATOM      5  C   UNL d   1      24.641 -17.488  -0.053  0.00  0.00     0.036 A 
ATOM      6  C   UNL d   1      24.044 -16.420  -0.747  0.00  0.00     0.020 A 
ATOM      7  C   UNL d   1      22.701 -16.492  -1.147  0.00  0.00     0.040 A 
ATOM      8  C   UNL d   1      21.942 -17.619  -0.839  0.00  0.00     0.096 A 
ATOM      9  C   UNL d   1      22.536 -18.689  -0.164  0.00  0.00     0.069 A 
ATOM     10  O   UNL d   1      20.643 -17.626  -1.270  0.00  0.00    -0.340 OA
ATOM     11  C   UNL d   1      23.879 -18.630   0.228  0.00  0.00     0.049 A 
ATOM     12  N   UNL d   1      21.785 -19.834   0.111  0.00  0.00    -0.323 N 
ATOM     13  C   UNL d   1      20.439 -19.887  -0.135  0.00  0.00     0.246 C 
ATOM     14  H   UNL d   1      22.210 -20.667   0.497  0.00  0.00     0.169 HD
ATOM     15  O   UNL d   1      19.786 -20.901   0.091  0.00  0.00    -0.271 OA
ATOM     16  C   UNL d   1      19.818 -18.575  -0.607  0.00  0.00     0.278 C 
ENDBRANCH   2   5
BRANCH   1  17
ATOM     17  N   UNL d   1      28.009 -15.956   0.704  0.00  0.00    -0.267 N 
ATOM     18  C   UNL d   1      28.684 -14.822   0.281  0.00  0.00     0.236 C 
ATOM     19  O   UNL d   1      28.142 -13.978  -0.434  0.00  0.00    -0.272 OA
ATOM     20  H   UNL d   1      28.408 -16.680   1.300  0.00  0.00     0.190 HD
BRANCH  18  21
ATOM     21  C   UNL d   1      30.123 -14.702   0.772  0.00  0.00     0.105 C 
BRANCH  21  22
ATOM     22  C   UNL d   1      30.196 -14.392   2.279  0.00  0.00     0.013 C 
BRANCH  22  23
ATOM     23  C   UNL d   1      28.847 -13.987   2.907  0.00  0.00    -0.022 C 
ATOM     24  C   UNL d   1      28.591 -14.790   4.188  0.00  0.00     0.009 C 
ATOM     25  C   UNL d   1      28.807 -12.495   3.235  0.00  0.00     0.009 C 
ENDBRANCH  22  23
ENDBRANCH  21  22
ENDBRANCH  18  21
ENDBRANCH   1  17
TORSDOF 5
ENDMDL
