MODEL 1
REMARK VINA RESULT:    -8.316      0.000      0.000
REMARK INTER + INTRA:         -11.844
REMARK INTER:                 -11.000
REMARK INTRA:                  -0.843
REMARK CONF_INDEPENDENT:        2.685
REMARK UNBOUND:                -0.843
REMARK  9 active torsions:
REMARK  status: ('A' for Active; 'I' for Inactive)
REMARK       I    between atoms: C_2  and  N_3 
REMARK    1  A    between atoms: C_2  and  C_17 
REMARK    2  A    between atoms: N_3  and  N_4 
REMARK    3  A    between atoms: N_4  and  C_5 
REMARK    4  A    between atoms: C_5  and  N_7 
REMARK    5  A    between atoms: N_7  and  C_8 
REMARK    6  A    between atoms: C_8  and  C_9 
REMARK    7  A    between atoms: C_9  and  C_10 
REMARK    8  A    between atoms: C_10  and  N_11 
REMARK    9  A    between atoms: C_22  and  O_23 
ROOT
ATOM      1  N   UNL d   1      23.362 -18.933  -1.072  0.00  0.00    -0.274 N 
ATOM      2  H   UNL d   1      23.529 -19.350  -1.989  0.00  0.00     0.189 HD
ENDROOT
BRANCH   1   3
ATOM      3  N   UNL d   1      22.267 -19.482  -0.333  0.00  0.00    -0.264 N 
ATOM      4  C   UNL d   1      20.974 -19.013  -0.522  0.00  0.00     0.272 C 
ATOM      5  O   UNL d   1      20.720 -18.076  -1.260  0.00  0.00    -0.266 OA
ATOM      6  H   UNL d   1      22.486 -20.302   0.227  0.00  0.00     0.190 HD
BRANCH   4   7
ATOM      7  C   UNL d   1      19.893 -19.716   0.260  0.00  0.00     0.066 A 
ATOM      8  C   UNL d   1      18.882 -20.447  -0.388  0.00  0.00     0.020 A 
ATOM      9  C   UNL d   1      17.936 -21.172   0.358  0.00  0.00     0.001 A 
ATOM     10  C   UNL d   1      17.981 -21.168   1.752  0.00  0.00     0.003 A 
ATOM     11  C   UNL d   1      18.974 -20.441   2.407  0.00  0.00     0.037 A 
ATOM     12  C   UNL d   1      19.924 -19.723   1.664  0.00  0.00     0.081 A 
BRANCH  12  13
ATOM     13  O   UNL d   1      20.872 -18.993   2.325  0.00  0.00    -0.360 OA
ATOM     14  H   UNL d   1      21.759 -19.313   2.103  0.00  0.00     0.217 HD
ENDBRANCH  12  13
ENDBRANCH   4   7
ENDBRANCH   1   3
BRANCH   1  15
ATOM     15  C   UNL d   1      24.113 -17.920  -0.493  0.00  0.00     0.186 C 
ATOM     16  S   UNL d   1      23.462 -16.394  -0.185  0.00  0.00    -0.040 SA
BRANCH  15  17
ATOM     17  N   UNL d   1      25.420 -18.241  -0.181  0.00  0.00    -0.366 N 
ATOM     18  H   UNL d   1      25.827 -19.095  -0.559  0.00  0.00     0.161 HD
BRANCH  17  19
ATOM     19  C   UNL d   1      26.286 -17.325   0.599  0.00  0.00     0.123 C 
BRANCH  19  20
ATOM     20  C   UNL d   1      27.173 -16.519  -0.293  0.00  0.00     0.050 C 
BRANCH  20  21
ATOM     21  C   UNL d   1      26.844 -16.412  -1.786  0.00  0.00     0.274 C 
BRANCH  21  22
ATOM     22  N   UNL d   1      27.089 -15.076  -2.387  0.00  0.00     0.092 N 
ATOM     23  C   UNL d   1      26.011 -14.104  -2.103  0.00  0.00     0.298 C 
ATOM     24  C   UNL d   1      24.710 -14.419  -2.848  0.00  0.00     0.198 C 
ATOM     25  O   UNL d   1      24.912 -14.482  -4.273  0.00  0.00    -0.388 OA
ATOM     26  C   UNL d   1      25.984 -15.346  -4.675  0.00  0.00     0.198 C 
ATOM     27  C   UNL d   1      27.282 -15.114  -3.856  0.00  0.00     0.298 C 
ENDBRANCH  21  22
ENDBRANCH  20  21
ENDBRANCH  19  20
ENDBRANCH  17  19
ENDBRANCH  15  17
ENDBRANCH   1  15
TORSDOF 9
ENDMDL
MODEL 2
REMARK VINA RESULT:    -7.822      2.673      3.510
REMARK INTER + INTRA:         -11.032
REMARK INTER:                 -10.506
REMARK INTRA:                  -0.526
REMARK CONF_INDEPENDENT:        2.685
REMARK UNBOUND:                -0.526
REMARK  9 active torsions:
REMARK  status: ('A' for Active; 'I' for Inactive)
REMARK       I    between atoms: C_2  and  N_3 
REMARK    1  A    between atoms: C_2  and  C_17 
REMARK    2  A    between atoms: N_3  and  N_4 
REMARK    3  A    between atoms: N_4  and  C_5 
REMARK    4  A    between atoms: C_5  and  N_7 
REMARK    5  A    between atoms: N_7  and  C_8 
REMARK    6  A    between atoms: C_8  and  C_9 
REMARK    7  A    between atoms: C_9  and  C_10 
REMARK    8  A    between atoms: C_10  and  N_11 
REMARK    9  A    between atoms: C_22  and  O_23 
ROOT
ATOM      1  N   UNL d   1      23.203 -16.474  -0.469  0.00  0.00    -0.274 N 
ATOM      2  H   UNL d   1      23.001 -15.477  -0.546  0.00  0.00     0.189 HD
ENDROOT
BRANCH   1   3
ATOM      3  N   UNL d   1      22.151 -17.279   0.074  0.00  0.00    -0.264 N 
ATOM      4  C   UNL d   1      21.731 -18.433  -0.574  0.00  0.00     0.272 C 
ATOM      5  O   UNL d   1      22.176 -18.774  -1.657  0.00  0.00    -0.266 OA
ATOM      6  H   UNL d   1      21.838 -17.017   1.004  0.00  0.00     0.190 HD
BRANCH   4   7
ATOM      7  C   UNL d   1      20.666 -19.236   0.129  0.00  0.00     0.066 A 
ATOM      8  C   UNL d   1      20.666 -19.382   1.527  0.00  0.00     0.020 A 
ATOM      9  C   UNL d   1      19.616 -20.056   2.176  0.00  0.00     0.001 A 
ATOM     10  C   UNL d   1      18.564 -20.599   1.438  0.00  0.00     0.003 A 
ATOM     11  C   UNL d   1      18.555 -20.469   0.050  0.00  0.00     0.037 A 
ATOM     12  C   UNL d   1      19.598 -19.789  -0.598  0.00  0.00     0.081 A 
BRANCH  12  13
ATOM     13  O   UNL d   1      19.587 -19.698  -1.961  0.00  0.00    -0.360 OA
ATOM     14  H   UNL d   1      18.783 -19.246  -2.261  0.00  0.00     0.217 HD
ENDBRANCH  12  13
ENDBRANCH   4   7
ENDBRANCH   1   3
BRANCH   1  15
ATOM     15  C   UNL d   1      24.379 -17.097  -0.864  0.00  0.00     0.186 C 
ATOM     16  S   UNL d   1      25.090 -16.787  -2.362  0.00  0.00    -0.040 SA
BRANCH  15  17
ATOM     17  N   UNL d   1      24.928 -17.979   0.046  0.00  0.00    -0.366 N 
ATOM     18  H   UNL d   1      24.436 -18.845   0.261  0.00  0.00     0.161 HD
BRANCH  17  19
ATOM     19  C   UNL d   1      26.269 -17.757   0.640  0.00  0.00     0.123 C 
BRANCH  19  20
ATOM     20  C   UNL d   1      27.296 -17.496  -0.413  0.00  0.00     0.050 C 
BRANCH  20  21
ATOM     21  C   UNL d   1      28.438 -16.515  -0.127  0.00  0.00     0.274 C 
BRANCH  21  22
ATOM     22  N   UNL d   1      29.778 -17.140   0.016  0.00  0.00     0.092 N 
ATOM     23  C   UNL d   1      30.824 -16.181   0.438  0.00  0.00     0.298 C 
ATOM     24  C   UNL d   1      31.190 -15.175  -0.657  0.00  0.00     0.198 C 
ATOM     25  O   UNL d   1      31.626 -15.832  -1.863  0.00  0.00    -0.388 OA
ATOM     26  C   UNL d   1      30.723 -16.840  -2.341  0.00  0.00     0.198 C 
ATOM     27  C   UNL d   1      30.255 -17.806  -1.219  0.00  0.00     0.298 C 
ENDBRANCH  21  22
ENDBRANCH  20  21
ENDBRANCH  19  20
ENDBRANCH  17  19
ENDBRANCH  15  17
ENDBRANCH   1  15
TORSDOF 9
ENDMDL
MODEL 3
REMARK VINA RESULT:    -7.787      2.458      3.114
REMARK INTER + INTRA:         -12.239
REMARK INTER:                 -10.472
REMARK INTRA:                  -1.767
REMARK CONF_INDEPENDENT:        2.685
REMARK UNBOUND:                -1.767
REMARK  9 active torsions:
REMARK  status: ('A' for Active; 'I' for Inactive)
REMARK       I    between atoms: C_2  and  N_3 
REMARK    1  A    between atoms: C_2  and  C_17 
REMARK    2  A    between atoms: N_3  and  N_4 
REMARK    3  A    between atoms: N_4  and  C_5 
REMARK    4  A    between atoms: C_5  and  N_7 
REMARK    5  A    between atoms: N_7  and  C_8 
REMARK    6  A    between atoms: C_8  and  C_9 
REMARK    7  A    between atoms: C_9  and  C_10 
REMARK    8  A    between atoms: C_10  and  N_11 
REMARK    9  A    between atoms: C_22  and  O_23 
ROOT
ATOM      1  N   UNL d   1      23.383 -16.577  -0.266  0.00  0.00    -0.274 N 
ATOM      2  H   UNL d   1      23.327 -15.576  -0.078  0.00  0.00     0.189 HD
ENDROOT
BRANCH   1   3
ATOM      3  N   UNL d   1      22.264 -17.353   0.172  0.00  0.00    -0.264 N 
ATOM      4  C   UNL d   1      21.935 -18.546  -0.457  0.00  0.00     0.272 C 
ATOM      5  O   UNL d   1      22.526 -18.950  -1.444  0.00  0.00    -0.266 OA
ATOM      6  H   UNL d   1      21.825 -17.037   1.033  0.00  0.00     0.190 HD
BRANCH   4   7
ATOM      7  C   UNL d   1      20.779 -19.312   0.138  0.00  0.00     0.066 A 
ATOM      8  C   UNL d   1      20.651 -19.474   1.529  0.00  0.00     0.020 A 
ATOM      9  C   UNL d   1      19.521 -20.110   2.073  0.00  0.00     0.001 A 
ATOM     10  C   UNL d   1      18.516 -20.599   1.238  0.00  0.00     0.003 A 
ATOM     11  C   UNL d   1      18.634 -20.452  -0.144  0.00  0.00     0.037 A 
ATOM     12  C   UNL d   1      19.758 -19.809  -0.687  0.00  0.00     0.081 A 
BRANCH  12  13
ATOM     13  O   UNL d   1      19.870 -19.701  -2.045  0.00  0.00    -0.360 OA
ATOM     14  H   UNL d   1      20.521 -19.020  -2.276  0.00  0.00     0.217 HD
ENDBRANCH  12  13
ENDBRANCH   4   7
ENDBRANCH   1   3
BRANCH   1  15
ATOM     15  C   UNL d   1      24.424 -17.223  -0.919  0.00  0.00     0.186 C 
ATOM     16  S   UNL d   1      25.071 -16.635  -2.361  0.00  0.00    -0.040 SA
BRANCH  15  17
ATOM     17  N   UNL d   1      24.896 -18.371  -0.312  0.00  0.00    -0.366 N 
ATOM     18  H   UNL d   1      24.600 -19.279  -0.665  0.00  0.00     0.161 HD
BRANCH  17  19
ATOM     19  C   UNL d   1      25.907 -18.324   0.772  0.00  0.00     0.123 C 
BRANCH  19  20
ATOM     20  C   UNL d   1      27.290 -18.196   0.222  0.00  0.00     0.050 C 
BRANCH  20  21
ATOM     21  C   UNL d   1      27.865 -16.803  -0.056  0.00  0.00     0.274 C 
BRANCH  21  22
ATOM     22  N   UNL d   1      27.234 -15.700   0.713  0.00  0.00     0.092 N 
ATOM     23  C   UNL d   1      26.699 -14.622  -0.148  0.00  0.00     0.298 C 
ATOM     24  C   UNL d   1      27.798 -13.792  -0.818  0.00  0.00     0.198 C 
ATOM     25  O   UNL d   1      28.693 -13.209   0.148  0.00  0.00    -0.388 OA
ATOM     26  C   UNL d   1      29.229 -14.148   1.091  0.00  0.00     0.198 C 
ATOM     27  C   UNL d   1      28.142 -15.072   1.702  0.00  0.00     0.298 C 
ENDBRANCH  21  22
ENDBRANCH  20  21
ENDBRANCH  19  20
ENDBRANCH  17  19
ENDBRANCH  15  17
ENDBRANCH   1  15
TORSDOF 9
ENDMDL
MODEL 4
REMARK VINA RESULT:    -7.217      1.705      2.379
REMARK INTER + INTRA:         -11.564
REMARK INTER:                  -9.902
REMARK INTRA:                  -1.662
REMARK CONF_INDEPENDENT:        2.685
REMARK UNBOUND:                -1.662
REMARK  9 active torsions:
REMARK  status: ('A' for Active; 'I' for Inactive)
REMARK       I    between atoms: C_2  and  N_3 
REMARK    1  A    between atoms: C_2  and  C_17 
REMARK    2  A    between atoms: N_3  and  N_4 
REMARK    3  A    between atoms: N_4  and  C_5 
REMARK    4  A    between atoms: C_5  and  N_7 
REMARK    5  A    between atoms: N_7  and  C_8 
REMARK    6  A    between atoms: C_8  and  C_9 
REMARK    7  A    between atoms: C_9  and  C_10 
REMARK    8  A    between atoms: C_10  and  N_11 
REMARK    9  A    between atoms: C_22  and  O_23 
ROOT
ATOM      1  N   UNL d   1      23.881 -18.201  -1.831  0.00  0.00    -0.274 N 
ATOM      2  H   UNL d   1      23.954 -18.253  -2.847  0.00  0.00     0.189 HD
ENDROOT
BRANCH   1   3
ATOM      3  N   UNL d   1      22.784 -18.912  -1.251  0.00  0.00    -0.264 N 
ATOM      4  C   UNL d   1      22.099 -18.398  -0.159  0.00  0.00     0.272 C 
ATOM      5  O   UNL d   1      22.438 -17.368   0.400  0.00  0.00    -0.266 OA
ATOM      6  H   UNL d   1      22.475 -19.732  -1.767  0.00  0.00     0.190 HD
BRANCH   4   7
ATOM      7  C   UNL d   1      20.916 -19.202   0.320  0.00  0.00     0.066 A 
ATOM      8  C   UNL d   1      20.631 -19.334   1.690  0.00  0.00     0.020 A 
ATOM      9  C   UNL d   1      19.474 -20.010   2.118  0.00  0.00     0.001 A 
ATOM     10  C   UNL d   1      18.598 -20.567   1.186  0.00  0.00     0.003 A 
ATOM     11  C   UNL d   1      18.873 -20.450  -0.176  0.00  0.00     0.037 A 
ATOM     12  C   UNL d   1      20.023 -19.769  -0.603  0.00  0.00     0.081 A 
BRANCH  12  13
ATOM     13  O   UNL d   1      20.291 -19.690  -1.941  0.00  0.00    -0.360 OA
ATOM     14  H   UNL d   1      19.490 -19.447  -2.431  0.00  0.00     0.217 HD
ENDBRANCH  12  13
ENDBRANCH   4   7
ENDBRANCH   1   3
BRANCH   1  15
ATOM     15  C   UNL d   1      24.758 -17.530  -0.988  0.00  0.00     0.186 C 
ATOM     16  S   UNL d   1      26.079 -18.304  -0.281  0.00  0.00    -0.040 SA
BRANCH  15  17
ATOM     17  N   UNL d   1      24.481 -16.195  -0.771  0.00  0.00    -0.366 N 
ATOM     18  H   UNL d   1      23.512 -15.894  -0.682  0.00  0.00     0.161 HD
BRANCH  17  19
ATOM     19  C   UNL d   1      25.557 -15.198  -0.554  0.00  0.00     0.123 C 
BRANCH  19  20
ATOM     20  C   UNL d   1      26.120 -14.712  -1.851  0.00  0.00     0.050 C 
BRANCH  20  21
ATOM     21  C   UNL d   1      27.616 -14.882  -2.134  0.00  0.00     0.274 C 
BRANCH  21  22
ATOM     22  N   UNL d   1      28.130 -14.091  -3.282  0.00  0.00     0.092 N 
ATOM     23  C   UNL d   1      27.066 -13.664  -4.216  0.00  0.00     0.298 C 
ATOM     24  C   UNL d   1      26.478 -14.825  -5.024  0.00  0.00     0.198 C 
ATOM     25  O   UNL d   1      27.493 -15.526  -5.769  0.00  0.00    -0.388 OA
ATOM     26  C   UNL d   1      28.620 -15.936  -4.981  0.00  0.00     0.198 C 
ATOM     27  C   UNL d   1      29.163 -14.800  -4.074  0.00  0.00     0.298 C 
ENDBRANCH  21  22
ENDBRANCH  20  21
ENDBRANCH  19  20
ENDBRANCH  17  19
ENDBRANCH  15  17
ENDBRANCH   1  15
TORSDOF 9
ENDMDL
MODEL 5
REMARK VINA RESULT:    -7.208      2.072      3.060
REMARK INTER + INTRA:         -11.314
REMARK INTER:                  -9.893
REMARK INTRA:                  -1.421
REMARK CONF_INDEPENDENT:        2.685
REMARK UNBOUND:                -1.421
REMARK  9 active torsions:
REMARK  status: ('A' for Active; 'I' for Inactive)
REMARK       I    between atoms: C_2  and  N_3 
REMARK    1  A    between atoms: C_2  and  C_17 
REMARK    2  A    between atoms: N_3  and  N_4 
REMARK    3  A    between atoms: N_4  and  C_5 
REMARK    4  A    between atoms: C_5  and  N_7 
REMARK    5  A    between atoms: N_7  and  C_8 
REMARK    6  A    between atoms: C_8  and  C_9 
REMARK    7  A    between atoms: C_9  and  C_10 
REMARK    8  A    between atoms: C_10  and  N_11 
REMARK    9  A    between atoms: C_22  and  O_23 
ROOT
ATOM      1  N   UNL d   1      23.376 -16.595  -0.390  0.00  0.00    -0.274 N 
ATOM      2  H   UNL d   1      23.211 -15.592  -0.481  0.00  0.00     0.189 HD
ENDROOT
BRANCH   1   3
ATOM      3  N   UNL d   1      22.269 -17.364   0.091  0.00  0.00    -0.264 N 
ATOM      4  C   UNL d   1      21.864 -18.518  -0.567  0.00  0.00     0.272 C 
ATOM      5  O   UNL d   1      22.374 -18.888  -1.611  0.00  0.00    -0.266 OA
ATOM      6  H   UNL d   1      21.900 -17.079   0.993  0.00  0.00     0.190 HD
BRANCH   4   7
ATOM      7  C   UNL d   1      20.733 -19.282   0.072  0.00  0.00     0.066 A 
ATOM      8  C   UNL d   1      20.650 -19.431   1.468  0.00  0.00     0.020 A 
ATOM      9  C   UNL d   1      19.542 -20.066   2.055  0.00  0.00     0.001 A 
ATOM     10  C   UNL d   1      18.513 -20.569   1.258  0.00  0.00     0.003 A 
ATOM     11  C   UNL d   1      18.586 -20.436  -0.129  0.00  0.00     0.037 A 
ATOM     12  C   UNL d   1      19.688 -19.794  -0.714  0.00  0.00     0.081 A 
BRANCH  12  13
ATOM     13  O   UNL d   1      19.756 -19.700  -2.076  0.00  0.00    -0.360 OA
ATOM     14  H   UNL d   1      20.681 -19.692  -2.367  0.00  0.00     0.217 HD
ENDBRANCH  12  13
ENDBRANCH   4   7
ENDBRANCH   1   3
BRANCH   1  15
ATOM     15  C   UNL d   1      24.553 -17.256  -0.712  0.00  0.00     0.186 C 
ATOM     16  S   UNL d   1      25.131 -18.546   0.210  0.00  0.00    -0.040 SA
BRANCH  15  17
ATOM     17  N   UNL d   1      25.216 -16.794  -1.833  0.00  0.00    -0.366 N 
ATOM     18  H   UNL d   1      25.893 -17.398  -2.295  0.00  0.00     0.161 HD
BRANCH  17  19
ATOM     19  C   UNL d   1      24.892 -15.485  -2.449  0.00  0.00     0.123 C 
BRANCH  19  20
ATOM     20  C   UNL d   1      26.074 -14.908  -3.158  0.00  0.00     0.050 C 
BRANCH  20  21
ATOM     21  C   UNL d   1      27.468 -15.485  -2.892  0.00  0.00     0.274 C 
BRANCH  21  22
ATOM     22  N   UNL d   1      28.253 -14.773  -1.851  0.00  0.00     0.092 N 
ATOM     23  C   UNL d   1      29.129 -15.672  -1.067  0.00  0.00     0.298 C 
ATOM     24  C   UNL d   1      28.349 -16.598  -0.129  0.00  0.00     0.198 C 
ATOM     25  O   UNL d   1      27.516 -15.857   0.783  0.00  0.00    -0.388 OA
ATOM     26  C   UNL d   1      26.661 -14.896   0.145  0.00  0.00     0.198 C 
ATOM     27  C   UNL d   1      27.414 -14.018  -0.890  0.00  0.00     0.298 C 
ENDBRANCH  21  22
ENDBRANCH  20  21
ENDBRANCH  19  20
ENDBRANCH  17  19
ENDBRANCH  15  17
ENDBRANCH   1  15
TORSDOF 9
ENDMDL
MODEL 6
REMARK VINA RESULT:    -6.169      5.732      7.756
REMARK INTER + INTRA:         -10.531
REMARK INTER:                  -8.853
REMARK INTRA:                  -1.678
REMARK CONF_INDEPENDENT:        2.685
REMARK UNBOUND:                -1.678
REMARK  9 active torsions:
REMARK  status: ('A' for Active; 'I' for Inactive)
REMARK       I    between atoms: C_2  and  N_3 
REMARK    1  A    between atoms: C_2  and  C_17 
REMARK    2  A    between atoms: N_3  and  N_4 
REMARK    3  A    between atoms: N_4  and  C_5 
REMARK    4  A    between atoms: C_5  and  N_7 
REMARK    5  A    between atoms: N_7  and  C_8 
REMARK    6  A    between atoms: C_8  and  C_9 
REMARK    7  A    between atoms: C_9  and  C_10 
REMARK    8  A    between atoms: C_10  and  N_11 
REMARK    9  A    between atoms: C_22  and  O_23 
ROOT
ATOM      1  N   UNL d   1      27.448 -15.259   0.735  0.00  0.00    -0.274 N 
ATOM      2  H   UNL d   1      27.016 -14.560   0.131  0.00  0.00     0.189 HD
ENDROOT
BRANCH   1   3
ATOM      3  N   UNL d   1      27.888 -14.787   2.012  0.00  0.00    -0.264 N 
ATOM      4  C   UNL d   1      27.328 -13.652   2.584  0.00  0.00     0.272 C 
ATOM      5  O   UNL d   1      26.500 -12.969   2.005  0.00  0.00    -0.266 OA
ATOM      6  H   UNL d   1      28.529 -15.401   2.507  0.00  0.00     0.190 HD
BRANCH   4   7
ATOM      7  C   UNL d   1      27.822 -13.293   3.963  0.00  0.00     0.066 A 
ATOM      8  C   UNL d   1      27.885 -11.955   4.389  0.00  0.00     0.020 A 
ATOM      9  C   UNL d   1      28.260 -11.641   5.708  0.00  0.00     0.001 A 
ATOM     10  C   UNL d   1      28.586 -12.656   6.608  0.00  0.00     0.003 A 
ATOM     11  C   UNL d   1      28.536 -13.987   6.197  0.00  0.00     0.037 A 
ATOM     12  C   UNL d   1      28.153 -14.301   4.883  0.00  0.00     0.081 A 
BRANCH  12  13
ATOM     13  O   UNL d   1      28.139 -15.609   4.490  0.00  0.00    -0.360 OA
ATOM     14  H   UNL d   1      28.946 -15.821   3.995  0.00  0.00     0.217 HD
ENDBRANCH  12  13
ENDBRANCH   4   7
ENDBRANCH   1   3
BRANCH   1  15
ATOM     15  C   UNL d   1      27.614 -16.603   0.432  0.00  0.00     0.186 C 
ATOM     16  S   UNL d   1      26.358 -17.716   0.605  0.00  0.00    -0.040 SA
BRANCH  15  17
ATOM     17  N   UNL d   1      28.866 -16.967  -0.024  0.00  0.00    -0.366 N 
ATOM     18  H   UNL d   1      29.504 -17.451   0.605  0.00  0.00     0.161 HD
BRANCH  17  19
ATOM     19  C   UNL d   1      29.272 -16.772  -1.437  0.00  0.00     0.123 C 
BRANCH  19  20
ATOM     20  C   UNL d   1      29.269 -15.325  -1.811  0.00  0.00     0.050 C 
BRANCH  20  21
ATOM     21  C   UNL d   1      28.012 -14.711  -2.436  0.00  0.00     0.274 C 
BRANCH  21  22
ATOM     22  N   UNL d   1      27.168 -15.659  -3.208  0.00  0.00     0.092 N 
ATOM     23  C   UNL d   1      26.894 -15.203  -4.588  0.00  0.00     0.298 C 
ATOM     24  C   UNL d   1      25.943 -14.003  -4.643  0.00  0.00     0.198 C 
ATOM     25  O   UNL d   1      24.689 -14.284  -3.993  0.00  0.00    -0.388 OA
ATOM     26  C   UNL d   1      24.823 -14.802  -2.661  0.00  0.00     0.198 C 
ATOM     27  C   UNL d   1      25.864 -15.949  -2.566  0.00  0.00     0.298 C 
ENDBRANCH  21  22
ENDBRANCH  20  21
ENDBRANCH  19  20
ENDBRANCH  17  19
ENDBRANCH  15  17
ENDBRANCH   1  15
TORSDOF 9
ENDMDL
MODEL 7
REMARK VINA RESULT:    -5.488      4.592      7.714
REMARK INTER + INTRA:         -11.335
REMARK INTER:                  -8.173
REMARK INTRA:                  -3.162
REMARK CONF_INDEPENDENT:        2.685
REMARK UNBOUND:                -3.162
REMARK  9 active torsions:
REMARK  status: ('A' for Active; 'I' for Inactive)
REMARK       I    between atoms: C_2  and  N_3 
REMARK    1  A    between atoms: C_2  and  C_17 
REMARK    2  A    between atoms: N_3  and  N_4 
REMARK    3  A    between atoms: N_4  and  C_5 
REMARK    4  A    between atoms: C_5  and  N_7 
REMARK    5  A    between atoms: N_7  and  C_8 
REMARK    6  A    between atoms: C_8  and  C_9 
REMARK    7  A    between atoms: C_9  and  C_10 
REMARK    8  A    between atoms: C_10  and  N_11 
REMARK    9  A    between atoms: C_22  and  O_23 
ROOT
ATOM      1  N   UNL d   1      24.071 -15.524  -2.160  0.00  0.00    -0.274 N 
ATOM      2  H   UNL d   1      23.267 -14.902  -2.253  0.00  0.00     0.189 HD
ENDROOT
BRANCH   1   3
ATOM      3  N   UNL d   1      25.176 -15.242  -3.023  0.00  0.00    -0.264 N 
ATOM      4  C   UNL d   1      25.072 -14.285  -4.025  0.00  0.00     0.272 C 
ATOM      5  O   UNL d   1      24.029 -13.700  -4.264  0.00  0.00    -0.266 OA
ATOM      6  H   UNL d   1      26.053 -15.689  -2.769  0.00  0.00     0.190 HD
BRANCH   4   7
ATOM      7  C   UNL d   1      26.324 -14.025  -4.824  0.00  0.00     0.066 A 
ATOM      8  C   UNL d   1      27.198 -15.070  -5.172  0.00  0.00     0.020 A 
ATOM      9  C   UNL d   1      28.311 -14.826  -5.996  0.00  0.00     0.001 A 
ATOM     10  C   UNL d   1      28.570 -13.540  -6.469  0.00  0.00     0.003 A 
ATOM     11  C   UNL d   1      27.716 -12.492  -6.125  0.00  0.00     0.037 A 
ATOM     12  C   UNL d   1      26.600 -12.737  -5.311  0.00  0.00     0.081 A 
BRANCH  12  13
ATOM     13  O   UNL d   1      25.791 -11.692  -4.960  0.00  0.00    -0.360 OA
ATOM     14  H   UNL d   1      24.859 -11.953  -5.021  0.00  0.00     0.217 HD
ENDBRANCH  12  13
ENDBRANCH   4   7
ENDBRANCH   1   3
BRANCH   1  15
ATOM     15  C   UNL d   1      24.181 -16.578  -1.264  0.00  0.00     0.186 C 
ATOM     16  S   UNL d   1      22.829 -17.254  -0.515  0.00  0.00    -0.040 SA
BRANCH  15  17
ATOM     17  N   UNL d   1      25.462 -17.038  -1.029  0.00  0.00    -0.366 N 
ATOM     18  H   UNL d   1      26.254 -16.525  -1.412  0.00  0.00     0.161 HD
BRANCH  17  19
ATOM     19  C   UNL d   1      25.727 -18.199  -0.145  0.00  0.00     0.123 C 
BRANCH  19  20
ATOM     20  C   UNL d   1      27.021 -18.046   0.585  0.00  0.00     0.050 C 
BRANCH  20  21
ATOM     21  C   UNL d   1      27.404 -16.678   1.160  0.00  0.00     0.274 C 
BRANCH  21  22
ATOM     22  N   UNL d   1      28.610 -16.058   0.552  0.00  0.00     0.092 N 
ATOM     23  C   UNL d   1      28.383 -14.667   0.101  0.00  0.00     0.298 C 
ATOM     24  C   UNL d   1      27.474 -14.577  -1.128  0.00  0.00     0.198 C 
ATOM     25  O   UNL d   1      27.991 -15.342  -2.233  0.00  0.00    -0.388 OA
ATOM     26  C   UNL d   1      28.316 -16.700  -1.905  0.00  0.00     0.198 C 
ATOM     27  C   UNL d   1      29.149 -16.819  -0.600  0.00  0.00     0.298 C 
ENDBRANCH  21  22
ENDBRANCH  20  21
ENDBRANCH  19  20
ENDBRANCH  17  19
ENDBRANCH  15  17
ENDBRANCH   1  15
TORSDOF 9
ENDMDL
