MODEL 1
REMARK VINA RESULT:    -9.375      0.000      0.000
REMARK INTER + INTRA:         -11.401
REMARK INTER:                 -10.866
REMARK INTRA:                  -0.535
REMARK CONF_INDEPENDENT:        1.492
REMARK UNBOUND:                -0.535
REMARK  5 active torsions:
REMARK  status: ('A' for Active; 'I' for Inactive)
REMARK    1  A    between atoms: C_2  and  N_5 
REMARK       I    between atoms: N_5  and  C_6 
REMARK    2  A    between atoms: C_6  and  C_8 
REMARK    3  A    between atoms: C_12  and  N_13 
REMARK       I    between atoms: N_13  and  C_14 
REMARK    4  A    between atoms: C_14  and  C_16 
REMARK    5  A    between atoms: C_20  and  O_21 
ROOT
ATOM      1  C   UNL d   1      23.249 -17.974  -0.663  0.00  0.00     0.034 A 
ATOM      2  C   UNL d   1      24.190 -18.855  -0.138  0.00  0.00     0.017 A 
ATOM      3  C   UNL d   1      25.539 -18.505  -0.145  0.00  0.00     0.003 A 
ATOM      4  C   UNL d   1      25.952 -17.290  -0.717  0.00  0.00     0.029 A 
ATOM      5  C   UNL d   1      25.006 -16.389  -1.225  0.00  0.00     0.035 A 
ATOM      6  C   UNL d   1      23.655 -16.752  -1.189  0.00  0.00     0.046 A 
ENDROOT
BRANCH   5   7
ATOM      7  N   UNL d   1      25.427 -15.127  -1.727  0.00  0.00    -0.323 N 
ATOM      8  C   UNL d   1      25.642 -14.856  -3.073  0.00  0.00     0.256 C 
ATOM      9  O   UNL d   1      25.519 -15.642  -4.013  0.00  0.00    -0.267 OA
ATOM     10  H   UNL d   1      25.502 -14.365  -1.063  0.00  0.00     0.169 HD
BRANCH   8  11
ATOM     11  C   UNL d   1      26.069 -13.502  -3.460  0.00  0.00     0.035 A 
ATOM     12  C   UNL d   1      26.708 -12.719  -2.483  0.00  0.00     0.017 A 
ATOM     13  C   UNL d   1      26.911 -11.358  -2.698  0.00  0.00     0.004 A 
ATOM     14  C   UNL d   1      26.533 -10.789  -3.913  0.00  0.00     0.036 A 
ATOM     15  C   UNL d   1      25.909 -11.580  -4.879  0.00  0.00     0.066 A 
ATOM     16  C   UNL d   1      25.665 -12.932  -4.664  0.00  0.00     0.053 A 
BRANCH  15  17
ATOM     17  O   UNL d   1      25.475 -11.050  -6.058  0.00  0.00    -0.361 OA
ATOM     18  H   UNL d   1      24.556 -11.325  -6.208  0.00  0.00     0.217 HD
ENDBRANCH  15  17
ENDBRANCH   8  11
ENDBRANCH   5   7
BRANCH   1  19
ATOM     19  C   UNL d   1      21.814 -18.280  -0.524  0.00  0.00     0.252 C 
ATOM     20  N   UNL d   1      21.463 -19.493   0.044  0.00  0.00    -0.349 N 
ATOM     21  H   UNL d   1      22.196 -20.131   0.338  0.00  0.00     0.163 HD
ATOM     22  O   UNL d   1      21.015 -17.427  -0.909  0.00  0.00    -0.268 OA
BRANCH  20  23
ATOM     23  C   UNL d   1      20.060 -19.867   0.288  0.00  0.00     0.022 C 
ATOM     24  C   UNL d   1      19.905 -21.401   0.319  0.00  0.00     0.037 C 
ATOM     25  C   UNL d   1      19.159 -19.325  -0.833  0.00  0.00     0.037 C 
ATOM     26  C   UNL d   1      19.596 -19.325   1.652  0.00  0.00     0.037 C 
ENDBRANCH  20  23
ENDBRANCH   1  19
TORSDOF 5
ENDMDL
MODEL 2
REMARK VINA RESULT:    -7.296      3.168      8.503
REMARK INTER + INTRA:          -9.347
REMARK INTER:                  -8.787
REMARK INTRA:                  -0.560
REMARK CONF_INDEPENDENT:        1.492
REMARK UNBOUND:                -0.560
REMARK  5 active torsions:
REMARK  status: ('A' for Active; 'I' for Inactive)
REMARK    1  A    between atoms: C_2  and  N_5 
REMARK       I    between atoms: N_5  and  C_6 
REMARK    2  A    between atoms: C_6  and  C_8 
REMARK    3  A    between atoms: C_12  and  N_13 
REMARK       I    between atoms: N_13  and  C_14 
REMARK    4  A    between atoms: C_14  and  C_16 
REMARK    5  A    between atoms: C_20  and  O_21 
ROOT
ATOM      1  C   UNL d   1      26.526 -15.217  -0.526  0.00  0.00     0.034 A 
ATOM      2  C   UNL d   1      26.841 -15.002  -1.865  0.00  0.00     0.017 A 
ATOM      3  C   UNL d   1      26.171 -15.721  -2.854  0.00  0.00     0.003 A 
ATOM      4  C   UNL d   1      25.214 -16.688  -2.499  0.00  0.00     0.029 A 
ATOM      5  C   UNL d   1      24.876 -16.890  -1.154  0.00  0.00     0.035 A 
ATOM      6  C   UNL d   1      25.547 -16.142  -0.179  0.00  0.00     0.046 A 
ENDROOT
BRANCH   5   7
ATOM      7  N   UNL d   1      23.849 -17.812  -0.812  0.00  0.00    -0.323 N 
ATOM      8  C   UNL d   1      22.523 -17.457  -0.598  0.00  0.00     0.256 C 
ATOM      9  O   UNL d   1      22.043 -16.324  -0.655  0.00  0.00    -0.267 OA
ATOM     10  H   UNL d   1      24.094 -18.795  -0.798  0.00  0.00     0.169 HD
BRANCH   8  11
ATOM     11  C   UNL d   1      21.556 -18.513  -0.258  0.00  0.00     0.035 A 
ATOM     12  C   UNL d   1      20.647 -18.905  -1.256  0.00  0.00     0.017 A 
ATOM     13  C   UNL d   1      19.555 -19.707  -0.934  0.00  0.00     0.004 A 
ATOM     14  C   UNL d   1      19.403 -20.171   0.372  0.00  0.00     0.036 A 
ATOM     15  C   UNL d   1      20.318 -19.783   1.351  0.00  0.00     0.066 A 
ATOM     16  C   UNL d   1      21.392 -18.951   1.052  0.00  0.00     0.053 A 
BRANCH  15  17
ATOM     17  O   UNL d   1      20.174 -20.170   2.650  0.00  0.00    -0.361 OA
ATOM     18  H   UNL d   1      21.025 -20.511   2.973  0.00  0.00     0.217 HD
ENDBRANCH  15  17
ENDBRANCH   8  11
ENDBRANCH   5   7
BRANCH   1  19
ATOM     19  C   UNL d   1      27.130 -14.356   0.506  0.00  0.00     0.252 C 
ATOM     20  N   UNL d   1      28.240 -14.836   1.181  0.00  0.00    -0.349 N 
ATOM     21  H   UNL d   1      28.596 -15.758   0.952  0.00  0.00     0.163 HD
ATOM     22  O   UNL d   1      26.616 -13.254   0.693  0.00  0.00    -0.268 OA
BRANCH  20  23
ATOM     23  C   UNL d   1      28.957 -14.028   2.184  0.00  0.00     0.022 C 
ATOM     24  C   UNL d   1      28.957 -12.541   1.781  0.00  0.00     0.037 C 
ATOM     25  C   UNL d   1      30.419 -14.489   2.293  0.00  0.00     0.037 C 
ATOM     26  C   UNL d   1      28.259 -14.141   3.552  0.00  0.00     0.037 C 
ENDBRANCH  20  23
ENDBRANCH   1  19
TORSDOF 5
ENDMDL
MODEL 3
REMARK VINA RESULT:    -6.798      5.424      6.837
REMARK INTER + INTRA:          -8.986
REMARK INTER:                  -8.289
REMARK INTRA:                  -0.697
REMARK CONF_INDEPENDENT:        1.492
REMARK UNBOUND:                -0.697
REMARK  5 active torsions:
REMARK  status: ('A' for Active; 'I' for Inactive)
REMARK    1  A    between atoms: C_2  and  N_5 
REMARK       I    between atoms: N_5  and  C_6 
REMARK    2  A    between atoms: C_6  and  C_8 
REMARK    3  A    between atoms: C_12  and  N_13 
REMARK       I    between atoms: N_13  and  C_14 
REMARK    4  A    between atoms: C_14  and  C_16 
REMARK    5  A    between atoms: C_20  and  O_21 
ROOT
ATOM      1  C   UNL d   1      26.735 -16.341  -0.689  0.00  0.00     0.034 A 
ATOM      2  C   UNL d   1      27.869 -16.629  -1.445  0.00  0.00     0.017 A 
ATOM      3  C   UNL d   1      29.129 -16.314  -0.941  0.00  0.00     0.003 A 
ATOM      4  C   UNL d   1      29.254 -15.672   0.303  0.00  0.00     0.029 A 
ATOM      5  C   UNL d   1      28.117 -15.403   1.078  0.00  0.00     0.035 A 
ATOM      6  C   UNL d   1      26.863 -15.746   0.562  0.00  0.00     0.046 A 
ENDROOT
BRANCH   5   7
ATOM      7  N   UNL d   1      28.261 -14.827   2.371  0.00  0.00    -0.323 N 
ATOM      8  C   UNL d   1      27.511 -13.753   2.833  0.00  0.00     0.256 C 
ATOM      9  O   UNL d   1      26.640 -13.140   2.215  0.00  0.00    -0.267 OA
ATOM     10  H   UNL d   1      28.901 -15.282   3.012  0.00  0.00     0.169 HD
BRANCH   8  11
ATOM     11  C   UNL d   1      27.754 -13.259   4.198  0.00  0.00     0.035 A 
ATOM     12  C   UNL d   1      27.814 -11.867   4.382  0.00  0.00     0.017 A 
ATOM     13  C   UNL d   1      28.284 -11.338   5.581  0.00  0.00     0.004 A 
ATOM     14  C   UNL d   1      28.637 -12.197   6.621  0.00  0.00     0.036 A 
ATOM     15  C   UNL d   1      28.562 -13.577   6.429  0.00  0.00     0.066 A 
ATOM     16  C   UNL d   1      28.131 -14.120   5.224  0.00  0.00     0.053 A 
BRANCH  15  17
ATOM     17  O   UNL d   1      28.949 -14.451   7.402  0.00  0.00    -0.361 OA
ATOM     18  H   UNL d   1      28.623 -15.338   7.176  0.00  0.00     0.217 HD
ENDBRANCH  15  17
ENDBRANCH   8  11
ENDBRANCH   5   7
BRANCH   1  19
ATOM     19  C   UNL d   1      25.417 -16.804  -1.157  0.00  0.00     0.252 C 
ATOM     20  N   UNL d   1      24.568 -17.386  -0.230  0.00  0.00    -0.349 N 
ATOM     21  H   UNL d   1      24.879 -17.481   0.732  0.00  0.00     0.163 HD
ATOM     22  O   UNL d   1      25.146 -16.630  -2.344  0.00  0.00    -0.268 OA
BRANCH  20  23
ATOM     23  C   UNL d   1      23.205 -17.822  -0.580  0.00  0.00     0.022 C 
ATOM     24  C   UNL d   1      22.558 -18.574   0.600  0.00  0.00     0.037 C 
ATOM     25  C   UNL d   1      23.243 -18.776  -1.784  0.00  0.00     0.037 C 
ATOM     26  C   UNL d   1      22.323 -16.601  -0.895  0.00  0.00     0.037 C 
ENDBRANCH  20  23
ENDBRANCH   1  19
TORSDOF 5
ENDMDL
MODEL 4
REMARK VINA RESULT:    -6.789      4.640      7.943
REMARK INTER + INTRA:          -9.002
REMARK INTER:                  -8.281
REMARK INTRA:                  -0.722
REMARK CONF_INDEPENDENT:        1.492
REMARK UNBOUND:                -0.722
REMARK  5 active torsions:
REMARK  status: ('A' for Active; 'I' for Inactive)
REMARK    1  A    between atoms: C_2  and  N_5 
REMARK       I    between atoms: N_5  and  C_6 
REMARK    2  A    between atoms: C_6  and  C_8 
REMARK    3  A    between atoms: C_12  and  N_13 
REMARK       I    between atoms: N_13  and  C_14 
REMARK    4  A    between atoms: C_14  and  C_16 
REMARK    5  A    between atoms: C_20  and  O_21 
ROOT
ATOM      1  C   UNL d   1      26.052 -15.666  -2.120  0.00  0.00     0.034 A 
ATOM      2  C   UNL d   1      25.128 -16.705  -2.041  0.00  0.00     0.017 A 
ATOM      3  C   UNL d   1      25.036 -17.456  -0.871  0.00  0.00     0.003 A 
ATOM      4  C   UNL d   1      25.898 -17.196   0.207  0.00  0.00     0.029 A 
ATOM      5  C   UNL d   1      26.813 -16.135   0.142  0.00  0.00     0.035 A 
ATOM      6  C   UNL d   1      26.875 -15.381  -1.035  0.00  0.00     0.046 A 
ENDROOT
BRANCH   5   7
ATOM      7  N   UNL d   1      27.625 -15.829   1.269  0.00  0.00    -0.323 N 
ATOM      8  C   UNL d   1      27.559 -14.635   1.975  0.00  0.00     0.256 C 
ATOM      9  O   UNL d   1      26.822 -13.677   1.739  0.00  0.00    -0.267 OA
ATOM     10  H   UNL d   1      28.234 -16.562   1.614  0.00  0.00     0.169 HD
BRANCH   8  11
ATOM     11  C   UNL d   1      28.451 -14.449   3.131  0.00  0.00     0.035 A 
ATOM     12  C   UNL d   1      27.923 -14.715   4.406  0.00  0.00     0.017 A 
ATOM     13  C   UNL d   1      28.619 -14.325   5.548  0.00  0.00     0.004 A 
ATOM     14  C   UNL d   1      29.870 -13.725   5.420  0.00  0.00     0.036 A 
ATOM     15  C   UNL d   1      30.387 -13.475   4.148  0.00  0.00     0.066 A 
ATOM     16  C   UNL d   1      29.687 -13.824   2.998  0.00  0.00     0.053 A 
BRANCH  15  17
ATOM     17  O   UNL d   1      31.583 -12.841   3.980  0.00  0.00    -0.361 OA
ATOM     18  H   UNL d   1      32.266 -13.320   4.479  0.00  0.00     0.217 HD
ENDBRANCH  15  17
ENDBRANCH   8  11
ENDBRANCH   5   7
BRANCH   1  19
ATOM     19  C   UNL d   1      26.049 -14.782  -3.299  0.00  0.00     0.252 C 
ATOM     20  N   UNL d   1      27.054 -13.835  -3.400  0.00  0.00    -0.349 N 
ATOM     21  H   UNL d   1      27.751 -13.774  -2.665  0.00  0.00     0.163 HD
ATOM     22  O   UNL d   1      25.159 -14.953  -4.130  0.00  0.00    -0.268 OA
BRANCH  20  23
ATOM     23  C   UNL d   1      27.180 -12.948  -4.570  0.00  0.00     0.022 C 
ATOM     24  C   UNL d   1      28.352 -11.966  -4.381  0.00  0.00     0.037 C 
ATOM     25  C   UNL d   1      25.897 -12.121  -4.754  0.00  0.00     0.037 C 
ATOM     26  C   UNL d   1      27.465 -13.776  -5.836  0.00  0.00     0.037 C 
ENDBRANCH  20  23
ENDBRANCH   1  19
TORSDOF 5
ENDMDL
MODEL 5
REMARK VINA RESULT:    -6.759      2.424      8.684
REMARK INTER + INTRA:          -8.961
REMARK INTER:                  -8.250
REMARK INTRA:                  -0.711
REMARK CONF_INDEPENDENT:        1.492
REMARK UNBOUND:                -0.711
REMARK  5 active torsions:
REMARK  status: ('A' for Active; 'I' for Inactive)
REMARK    1  A    between atoms: C_2  and  N_5 
REMARK       I    between atoms: N_5  and  C_6 
REMARK    2  A    between atoms: C_6  and  C_8 
REMARK    3  A    between atoms: C_12  and  N_13 
REMARK       I    between atoms: N_13  and  C_14 
REMARK    4  A    between atoms: C_14  and  C_16 
REMARK    5  A    between atoms: C_20  and  O_21 
ROOT
ATOM      1  C   UNL d   1      26.901 -12.438  -4.696  0.00  0.00     0.034 A 
ATOM      2  C   UNL d   1      27.716 -12.970  -5.692  0.00  0.00     0.017 A 
ATOM      3  C   UNL d   1      27.775 -14.351  -5.868  0.00  0.00     0.003 A 
ATOM      4  C   UNL d   1      27.051 -15.204  -5.018  0.00  0.00     0.029 A 
ATOM      5  C   UNL d   1      26.210 -14.672  -4.030  0.00  0.00     0.035 A 
ATOM      6  C   UNL d   1      26.150 -13.282  -3.885  0.00  0.00     0.046 A 
ENDROOT
BRANCH   5   7
ATOM      7  N   UNL d   1      25.419 -15.542  -3.230  0.00  0.00    -0.323 N 
ATOM      8  C   UNL d   1      25.406 -15.526  -1.841  0.00  0.00     0.256 C 
ATOM      9  O   UNL d   1      26.065 -14.790  -1.104  0.00  0.00    -0.267 OA
ATOM     10  H   UNL d   1      24.774 -16.158  -3.712  0.00  0.00     0.169 HD
BRANCH   8  11
ATOM     11  C   UNL d   1      24.533 -16.476  -1.132  0.00  0.00     0.035 A 
ATOM     12  C   UNL d   1      25.143 -17.585  -0.522  0.00  0.00     0.017 A 
ATOM     13  C   UNL d   1      24.366 -18.644  -0.057  0.00  0.00     0.004 A 
ATOM     14  C   UNL d   1      22.977 -18.569  -0.144  0.00  0.00     0.036 A 
ATOM     15  C   UNL d   1      22.384 -17.457  -0.742  0.00  0.00     0.066 A 
ATOM     16  C   UNL d   1      23.148 -16.409  -1.246  0.00  0.00     0.053 A 
BRANCH  15  17
ATOM     17  O   UNL d   1      21.031 -17.370  -0.895  0.00  0.00    -0.361 OA
ATOM     18  H   UNL d   1      20.838 -16.980  -1.763  0.00  0.00     0.217 HD
ENDBRANCH  15  17
ENDBRANCH   8  11
ENDBRANCH   5   7
BRANCH   1  19
ATOM     19  C   UNL d   1      26.728 -10.977  -4.606  0.00  0.00     0.252 C 
ATOM     20  N   UNL d   1      25.559 -10.432  -5.110  0.00  0.00    -0.349 N 
ATOM     21  H   UNL d   1      24.868 -11.046  -5.527  0.00  0.00     0.163 HD
ATOM     22  O   UNL d   1      27.630 -10.333  -4.072  0.00  0.00    -0.268 OA
BRANCH  20  23
ATOM     23  C   UNL d   1      25.258  -8.993  -5.010  0.00  0.00     0.022 C 
ATOM     24  C   UNL d   1      23.910  -8.673  -5.684  0.00  0.00     0.037 C 
ATOM     25  C   UNL d   1      26.347  -8.170  -5.717  0.00  0.00     0.037 C 
ATOM     26  C   UNL d   1      25.151  -8.575  -3.532  0.00  0.00     0.037 C 
ENDBRANCH  20  23
ENDBRANCH   1  19
TORSDOF 5
ENDMDL
MODEL 6
REMARK VINA RESULT:    -6.696      2.651      4.783
REMARK INTER + INTRA:          -8.880
REMARK INTER:                  -8.188
REMARK INTRA:                  -0.693
REMARK CONF_INDEPENDENT:        1.492
REMARK UNBOUND:                -0.693
REMARK  5 active torsions:
REMARK  status: ('A' for Active; 'I' for Inactive)
REMARK    1  A    between atoms: C_2  and  N_5 
REMARK       I    between atoms: N_5  and  C_6 
REMARK    2  A    between atoms: C_6  and  C_8 
REMARK    3  A    between atoms: C_12  and  N_13 
REMARK       I    between atoms: N_13  and  C_14 
REMARK    4  A    between atoms: C_14  and  C_16 
REMARK    5  A    between atoms: C_20  and  O_21 
ROOT
ATOM      1  C   UNL d   1      25.714 -14.981  -2.920  0.00  0.00     0.034 A 
ATOM      2  C   UNL d   1      26.748 -15.572  -3.640  0.00  0.00     0.017 A 
ATOM      3  C   UNL d   1      27.373 -14.857  -4.660  0.00  0.00     0.003 A 
ATOM      4  C   UNL d   1      26.935 -13.563  -4.988  0.00  0.00     0.029 A 
ATOM      5  C   UNL d   1      25.911 -12.953  -4.249  0.00  0.00     0.035 A 
ATOM      6  C   UNL d   1      25.311 -13.683  -3.216  0.00  0.00     0.046 A 
ENDROOT
BRANCH   5   7
ATOM      7  N   UNL d   1      25.531 -11.613  -4.536  0.00  0.00    -0.323 N 
ATOM      8  C   UNL d   1      26.010 -10.504  -3.851  0.00  0.00     0.256 C 
ATOM      9  O   UNL d   1      26.803 -10.503  -2.909  0.00  0.00    -0.267 OA
ATOM     10  H   UNL d   1      24.930 -11.464  -5.339  0.00  0.00     0.169 HD
BRANCH   8  11
ATOM     11  C   UNL d   1      25.542  -9.169  -4.257  0.00  0.00     0.035 A 
ATOM     12  C   UNL d   1      25.931  -8.077  -3.462  0.00  0.00     0.017 A 
ATOM     13  C   UNL d   1      25.328  -6.833  -3.636  0.00  0.00     0.004 A 
ATOM     14  C   UNL d   1      24.380  -6.662  -4.643  0.00  0.00     0.036 A 
ATOM     15  C   UNL d   1      24.010  -7.752  -5.432  0.00  0.00     0.066 A 
ATOM     16  C   UNL d   1      24.575  -9.009  -5.245  0.00  0.00     0.053 A 
BRANCH  15  17
ATOM     17  O   UNL d   1      23.048  -7.640  -6.392  0.00  0.00    -0.361 OA
ATOM     18  H   UNL d   1      22.191  -7.894  -6.010  0.00  0.00     0.217 HD
ENDBRANCH  15  17
ENDBRANCH   8  11
ENDBRANCH   5   7
BRANCH   1  19
ATOM     19  C   UNL d   1      25.153 -15.681  -1.751  0.00  0.00     0.252 C 
ATOM     20  N   UNL d   1      24.416 -16.831  -1.978  0.00  0.00    -0.349 N 
ATOM     21  H   UNL d   1      24.281 -17.151  -2.931  0.00  0.00     0.163 HD
ATOM     22  O   UNL d   1      25.388 -15.205  -0.641  0.00  0.00    -0.268 OA
BRANCH  20  23
ATOM     23  C   UNL d   1      23.868 -17.641  -0.876  0.00  0.00     0.022 C 
ATOM     24  C   UNL d   1      23.257 -18.948  -1.416  0.00  0.00     0.037 C 
ATOM     25  C   UNL d   1      22.759 -16.868  -0.145  0.00  0.00     0.037 C 
ATOM     26  C   UNL d   1      24.988 -18.023   0.109  0.00  0.00     0.037 C 
ENDBRANCH  20  23
ENDBRANCH   1  19
TORSDOF 5
ENDMDL
MODEL 7
REMARK VINA RESULT:    -6.522      2.417      8.805
REMARK INTER + INTRA:          -8.699
REMARK INTER:                  -8.014
REMARK INTRA:                  -0.685
REMARK CONF_INDEPENDENT:        1.492
REMARK UNBOUND:                -0.685
REMARK  5 active torsions:
REMARK  status: ('A' for Active; 'I' for Inactive)
REMARK    1  A    between atoms: C_2  and  N_5 
REMARK       I    between atoms: N_5  and  C_6 
REMARK    2  A    between atoms: C_6  and  C_8 
REMARK    3  A    between atoms: C_12  and  N_13 
REMARK       I    between atoms: N_13  and  C_14 
REMARK    4  A    between atoms: C_14  and  C_16 
REMARK    5  A    between atoms: C_20  and  O_21 
ROOT
ATOM      1  C   UNL d   1      26.457 -12.584  -5.177  0.00  0.00     0.034 A 
ATOM      2  C   UNL d   1      27.617 -13.042  -5.797  0.00  0.00     0.017 A 
ATOM      3  C   UNL d   1      28.049 -14.347  -5.572  0.00  0.00     0.003 A 
ATOM      4  C   UNL d   1      27.342 -15.184  -4.691  0.00  0.00     0.029 A 
ATOM      5  C   UNL d   1      26.160 -14.736  -4.084  0.00  0.00     0.035 A 
ATOM      6  C   UNL d   1      25.734 -13.428  -4.341  0.00  0.00     0.046 A 
ENDROOT
BRANCH   5   7
ATOM      7  N   UNL d   1      25.409 -15.618  -3.259  0.00  0.00    -0.323 N 
ATOM      8  C   UNL d   1      25.269 -15.470  -1.885  0.00  0.00     0.256 C 
ATOM      9  O   UNL d   1      25.766 -14.588  -1.183  0.00  0.00    -0.267 OA
ATOM     10  H   UNL d   1      24.888 -16.355  -3.721  0.00  0.00     0.169 HD
BRANCH   8  11
ATOM     11  C   UNL d   1      24.454 -16.450  -1.149  0.00  0.00     0.035 A 
ATOM     12  C   UNL d   1      25.130 -17.499  -0.503  0.00  0.00     0.017 A 
ATOM     13  C   UNL d   1      24.420 -18.589  -0.006  0.00  0.00     0.004 A 
ATOM     14  C   UNL d   1      23.029 -18.605  -0.098  0.00  0.00     0.036 A 
ATOM     15  C   UNL d   1      22.370 -17.552  -0.733  0.00  0.00     0.066 A 
ATOM     16  C   UNL d   1      23.068 -16.474  -1.268  0.00  0.00     0.053 A 
BRANCH  15  17
ATOM     17  O   UNL d   1      21.015 -17.555  -0.891  0.00  0.00    -0.361 OA
ATOM     18  H   UNL d   1      20.789 -17.028  -1.675  0.00  0.00     0.217 HD
ENDBRANCH  15  17
ENDBRANCH   8  11
ENDBRANCH   5   7
BRANCH   1  19
ATOM     19  C   UNL d   1      25.924 -11.256  -5.529  0.00  0.00     0.252 C 
ATOM     20  N   UNL d   1      26.316 -10.176  -4.756  0.00  0.00    -0.349 N 
ATOM     21  H   UNL d   1      26.946 -10.331  -3.975  0.00  0.00     0.163 HD
ATOM     22  O   UNL d   1      25.173 -11.188  -6.501  0.00  0.00    -0.268 OA
BRANCH  20  23
ATOM     23  C   UNL d   1      25.894  -8.798  -5.062  0.00  0.00     0.022 C 
ATOM     24  C   UNL d   1      26.706  -7.785  -4.233  0.00  0.00     0.037 C 
ATOM     25  C   UNL d   1      24.408  -8.607  -4.718  0.00  0.00     0.037 C 
ATOM     26  C   UNL d   1      26.139  -8.487  -6.550  0.00  0.00     0.037 C 
ENDBRANCH  20  23
ENDBRANCH   1  19
TORSDOF 5
ENDMDL
