MODEL 1
REMARK VINA RESULT:    -8.267      0.000      0.000
REMARK INTER + INTRA:         -11.874
REMARK INTER:                 -10.057
REMARK INTRA:                  -1.818
REMARK CONF_INDEPENDENT:        1.790
REMARK UNBOUND:                -1.818
REMARK  6 active torsions:
REMARK  status: ('A' for Active; 'I' for Inactive)
REMARK    1  A    between atoms: C_6  and  O_7 
REMARK    2  A    between atoms: O_7  and  C_8 
REMARK    3  A    between atoms: C_8  and  C_9 
REMARK       I    between atoms: C_9  and  N_11 
REMARK    4  A    between atoms: N_11  and  N_12 
REMARK       I    between atoms: N_12  and  C_13 
REMARK    5  A    between atoms: C_13  and  C_15 
REMARK    6  A    between atoms: C_15  and  C_16 
ROOT
ATOM      1  N   UNL d   1      27.808 -14.712   2.403  0.00  0.00    -0.267 N 
ATOM      2  C   UNL d   1      27.403 -14.256   1.177  0.00  0.00     0.240 C 
ATOM      3  O   UNL d   1      27.038 -13.079   1.214  0.00  0.00    -0.272 OA
ATOM      4  H   UNL d   1      28.293 -15.578   2.616  0.00  0.00     0.190 HD
ENDROOT
BRANCH   1   5
ATOM      5  N   UNL d   1      27.689 -13.735   3.465  0.00  0.00    -0.266 N 
ATOM      6  C   UNL d   1      27.946 -14.107   4.764  0.00  0.00     0.260 C 
ATOM      7  O   UNL d   1      28.296 -15.263   5.008  0.00  0.00    -0.269 OA
ATOM      8  H   UNL d   1      27.418 -12.796   3.150  0.00  0.00     0.190 HD
BRANCH   6   9
ATOM      9  C   UNL d   1      27.761 -13.016   5.841  0.00  0.00     0.280 C 
BRANCH   9  10
ATOM     10  O   UNL d   1      28.987 -12.873   6.572  0.00  0.00    -0.342 OA
BRANCH  10  11
ATOM     11  C   UNL d   1      28.999 -13.178   7.906  0.00  0.00     0.069 A 
ATOM     12  C   UNL d   1      28.212 -12.362   8.729  0.00  0.00     0.037 A 
ATOM     13  C   UNL d   1      28.157 -12.579  10.110  0.00  0.00     0.003 A 
ATOM     14  C   UNL d   1      28.883 -13.623  10.679  0.00  0.00     0.007 A 
ATOM     15  C   UNL d   1      29.665 -14.452   9.870  0.00  0.00    -0.059 A 
ATOM     16  C   UNL d   1      30.442 -15.594  10.452  0.00  0.00     0.048 C 
ATOM     17  C   UNL d   1      29.720 -14.220   8.485  0.00  0.00     0.043 A 
ENDBRANCH  10  11
ENDBRANCH   9  10
ENDBRANCH   6   9
ENDBRANCH   1   5
BRANCH   2  18
ATOM     18  C   UNL d   1      27.437 -15.140  -0.078  0.00  0.00     0.145 C 
BRANCH  18  19
ATOM     19  C   UNL d   1      26.721 -16.507  -0.012  0.00  0.00    -0.021 A 
ATOM     20  C   UNL d   1      27.361 -17.710   0.292  0.00  0.00     0.097 A 
ATOM     21  N   UNL d   1      26.439 -18.730   0.291  0.00  0.00    -0.365 N 
ATOM     22  C   UNL d   1      25.200 -18.252  -0.059  0.00  0.00     0.044 A 
ATOM     23  H   UNL d   1      26.639 -19.702   0.491  0.00  0.00     0.165 HD
ATOM     24  C   UNL d   1      23.971 -18.928  -0.227  0.00  0.00     0.054 A 
ATOM     25  C   UNL d   1      25.333 -16.872  -0.247  0.00  0.00    -0.001 A 
ATOM     26  C   UNL d   1      22.849 -18.193  -0.629  0.00  0.00     0.036 A 
ATOM     27 CL   UNL d   1      21.331 -18.951  -0.891  0.00  0.00    -0.084 Cl
ATOM     28  C   UNL d   1      22.931 -16.841  -0.826  0.00  0.00     0.025 A 
ATOM     29  C   UNL d   1      24.141 -16.205  -0.610  0.00  0.00     0.016 A 
ENDBRANCH  18  19
ENDBRANCH   2  18
TORSDOF 6
ENDMDL
MODEL 2
REMARK VINA RESULT:    -8.071      6.490     10.242
REMARK INTER + INTRA:         -12.217
REMARK INTER:                  -9.861
REMARK INTRA:                  -2.356
REMARK CONF_INDEPENDENT:        1.790
REMARK UNBOUND:                -2.356
REMARK  6 active torsions:
REMARK  status: ('A' for Active; 'I' for Inactive)
REMARK    1  A    between atoms: C_6  and  O_7 
REMARK    2  A    between atoms: O_7  and  C_8 
REMARK    3  A    between atoms: C_8  and  C_9 
REMARK       I    between atoms: C_9  and  N_11 
REMARK    4  A    between atoms: N_11  and  N_12 
REMARK       I    between atoms: N_12  and  C_13 
REMARK    5  A    between atoms: C_13  and  C_15 
REMARK    6  A    between atoms: C_15  and  C_16 
ROOT
ATOM      1  N   UNL d   1      27.521 -15.323  -3.341  0.00  0.00    -0.267 N 
ATOM      2  C   UNL d   1      27.892 -15.089  -2.044  0.00  0.00     0.240 C 
ATOM      3  O   UNL d   1      29.094 -14.830  -1.943  0.00  0.00    -0.272 OA
ATOM      4  H   UNL d   1      26.581 -15.404  -3.714  0.00  0.00     0.190 HD
ENDROOT
BRANCH   1   5
ATOM      5  N   UNL d   1      28.612 -15.248  -4.290  0.00  0.00    -0.266 N 
ATOM      6  C   UNL d   1      28.339 -15.201  -5.638  0.00  0.00     0.260 C 
ATOM      7  O   UNL d   1      27.168 -15.201  -6.023  0.00  0.00    -0.269 OA
ATOM      8  H   UNL d   1      29.545 -15.227  -3.864  0.00  0.00     0.190 HD
BRANCH   6   9
ATOM      9  C   UNL d   1      29.558 -15.158  -6.585  0.00  0.00     0.280 C 
BRANCH   9  10
ATOM     10  O   UNL d   1      30.631 -15.905  -5.994  0.00  0.00    -0.342 OA
BRANCH  10  11
ATOM     11  C   UNL d   1      30.655 -17.264  -6.153  0.00  0.00     0.069 A 
ATOM     12  C   UNL d   1      30.410 -18.021  -5.001  0.00  0.00     0.037 A 
ATOM     13  C   UNL d   1      30.418 -19.419  -5.048  0.00  0.00     0.003 A 
ATOM     14  C   UNL d   1      30.663 -20.074  -6.253  0.00  0.00     0.007 A 
ATOM     15  C   UNL d   1      30.899 -19.332  -7.414  0.00  0.00    -0.059 A 
ATOM     16  C   UNL d   1      31.147 -20.008  -8.729  0.00  0.00     0.048 C 
ATOM     17  C   UNL d   1      30.897 -17.928  -7.355  0.00  0.00     0.043 A 
ENDBRANCH  10  11
ENDBRANCH   9  10
ENDBRANCH   6   9
ENDBRANCH   1   5
BRANCH   2  18
ATOM     18  C   UNL d   1      26.889 -15.135  -0.884  0.00  0.00     0.145 C 
BRANCH  18  19
ATOM     19  C   UNL d   1      26.230 -16.493  -0.558  0.00  0.00    -0.021 A 
ATOM     20  C   UNL d   1      26.937 -17.632  -0.170  0.00  0.00     0.097 A 
ATOM     21  N   UNL d   1      26.055 -18.659   0.067  0.00  0.00    -0.365 N 
ATOM     22  C   UNL d   1      24.771 -18.255  -0.204  0.00  0.00     0.044 A 
ATOM     23  H   UNL d   1      26.306 -19.591   0.372  0.00  0.00     0.165 HD
ATOM     24  C   UNL d   1      23.553 -18.970  -0.143  0.00  0.00     0.054 A 
ATOM     25  C   UNL d   1      24.837 -16.911  -0.587  0.00  0.00    -0.001 A 
ATOM     26  C   UNL d   1      22.371 -18.316  -0.512  0.00  0.00     0.036 A 
ATOM     27 CL   UNL d   1      20.859 -19.130  -0.501  0.00  0.00    -0.084 Cl
ATOM     28  C   UNL d   1      22.387 -17.002  -0.894  0.00  0.00     0.025 A 
ATOM     29  C   UNL d   1      23.592 -16.321  -0.900  0.00  0.00     0.016 A 
ENDBRANCH  18  19
ENDBRANCH   2  18
TORSDOF 6
ENDMDL
MODEL 3
REMARK VINA RESULT:    -7.426      7.323      9.730
REMARK INTER + INTRA:         -11.882
REMARK INTER:                  -9.215
REMARK INTRA:                  -2.666
REMARK CONF_INDEPENDENT:        1.790
REMARK UNBOUND:                -2.666
REMARK  6 active torsions:
REMARK  status: ('A' for Active; 'I' for Inactive)
REMARK    1  A    between atoms: C_6  and  O_7 
REMARK    2  A    between atoms: O_7  and  C_8 
REMARK    3  A    between atoms: C_8  and  C_9 
REMARK       I    between atoms: C_9  and  N_11 
REMARK    4  A    between atoms: N_11  and  N_12 
REMARK       I    between atoms: N_12  and  C_13 
REMARK    5  A    between atoms: C_13  and  C_15 
REMARK    6  A    between atoms: C_15  and  C_16 
ROOT
ATOM      1  N   UNL d   1      29.005 -16.242  -3.821  0.00  0.00    -0.267 N 
ATOM      2  C   UNL d   1      29.653 -17.027  -2.905  0.00  0.00     0.240 C 
ATOM      3  O   UNL d   1      29.057 -17.073  -1.826  0.00  0.00    -0.272 OA
ATOM      4  H   UNL d   1      29.194 -16.161  -4.815  0.00  0.00     0.190 HD
ENDROOT
BRANCH   1   5
ATOM      5  N   UNL d   1      27.798 -15.621  -3.318  0.00  0.00    -0.266 N 
ATOM      6  C   UNL d   1      26.797 -15.272  -4.193  0.00  0.00     0.260 C 
ATOM      7  O   UNL d   1      26.927 -15.511  -5.395  0.00  0.00    -0.269 OA
ATOM      8  H   UNL d   1      27.780 -15.491  -2.300  0.00  0.00     0.190 HD
BRANCH   6   9
ATOM      9  C   UNL d   1      25.558 -14.582  -3.581  0.00  0.00     0.280 C 
BRANCH   9  10
ATOM     10  O   UNL d   1      25.652 -14.642  -2.152  0.00  0.00    -0.342 OA
BRANCH  10  11
ATOM     11  C   UNL d   1      25.304 -15.802  -1.515  0.00  0.00     0.069 A 
ATOM     12  C   UNL d   1      26.320 -16.429  -0.783  0.00  0.00     0.037 A 
ATOM     13  C   UNL d   1      26.077 -17.625  -0.099  0.00  0.00     0.003 A 
ATOM     14  C   UNL d   1      24.809 -18.200  -0.135  0.00  0.00     0.007 A 
ATOM     15  C   UNL d   1      23.782 -17.582  -0.854  0.00  0.00    -0.059 A 
ATOM     16  C   UNL d   1      22.403 -18.168  -0.895  0.00  0.00     0.048 C 
ATOM     17  C   UNL d   1      24.039 -16.385  -1.544  0.00  0.00     0.043 A 
ENDBRANCH  10  11
ENDBRANCH   9  10
ENDBRANCH   6   9
ENDBRANCH   1   5
BRANCH   2  18
ATOM     18  C   UNL d   1      30.959 -17.764  -3.235  0.00  0.00     0.145 C 
BRANCH  18  19
ATOM     19  C   UNL d   1      30.892 -18.917  -4.261  0.00  0.00    -0.021 A 
ATOM     20  C   UNL d   1      30.780 -20.265  -3.916  0.00  0.00     0.097 A 
ATOM     21  N   UNL d   1      30.722 -21.025  -5.060  0.00  0.00    -0.365 N 
ATOM     22  C   UNL d   1      30.846 -20.226  -6.170  0.00  0.00     0.044 A 
ATOM     23  H   UNL d   1      30.629 -22.033  -5.091  0.00  0.00     0.165 HD
ATOM     24  C   UNL d   1      30.881 -20.563  -7.542  0.00  0.00     0.054 A 
ATOM     25  C   UNL d   1      30.945 -18.907  -5.715  0.00  0.00    -0.001 A 
ATOM     26  C   UNL d   1      31.054 -19.539  -8.481  0.00  0.00     0.036 A 
ATOM     27 CL   UNL d   1      31.145 -19.874 -10.163  0.00  0.00    -0.084 Cl
ATOM     28  C   UNL d   1      31.156 -18.233  -8.082  0.00  0.00     0.025 A 
ATOM     29  C   UNL d   1      31.075 -17.937  -6.733  0.00  0.00     0.016 A 
ENDBRANCH  18  19
ENDBRANCH   2  18
TORSDOF 6
ENDMDL
MODEL 4
REMARK VINA RESULT:    -7.372      6.986     10.562
REMARK INTER + INTRA:         -11.728
REMARK INTER:                  -9.162
REMARK INTRA:                  -2.567
REMARK CONF_INDEPENDENT:        1.790
REMARK UNBOUND:                -2.567
REMARK  6 active torsions:
REMARK  status: ('A' for Active; 'I' for Inactive)
REMARK    1  A    between atoms: C_6  and  O_7 
REMARK    2  A    between atoms: O_7  and  C_8 
REMARK    3  A    between atoms: C_8  and  C_9 
REMARK       I    between atoms: C_9  and  N_11 
REMARK    4  A    between atoms: N_11  and  N_12 
REMARK       I    between atoms: N_12  and  C_13 
REMARK    5  A    between atoms: C_13  and  C_15 
REMARK    6  A    between atoms: C_15  and  C_16 
ROOT
ATOM      1  N   UNL d   1      28.395 -15.838  -3.568  0.00  0.00    -0.267 N 
ATOM      2  C   UNL d   1      28.888 -16.325  -2.387  0.00  0.00     0.240 C 
ATOM      3  O   UNL d   1      30.083 -16.621  -2.467  0.00  0.00    -0.272 OA
ATOM      4  H   UNL d   1      27.501 -15.384  -3.729  0.00  0.00     0.190 HD
ENDROOT
BRANCH   1   5
ATOM      5  N   UNL d   1      29.363 -15.809  -4.644  0.00  0.00    -0.266 N 
ATOM      6  C   UNL d   1      28.957 -15.477  -5.916  0.00  0.00     0.260 C 
ATOM      7  O   UNL d   1      27.777 -15.188  -6.122  0.00  0.00    -0.269 OA
ATOM      8  H   UNL d   1      30.322 -16.040  -4.360  0.00  0.00     0.190 HD
BRANCH   6   9
ATOM      9  C   UNL d   1      30.043 -15.504  -7.013  0.00  0.00     0.280 C 
BRANCH   9  10
ATOM     10  O   UNL d   1      31.130 -16.327  -6.570  0.00  0.00    -0.342 OA
BRANCH  10  11
ATOM     11  C   UNL d   1      31.010 -17.687  -6.667  0.00  0.00     0.069 A 
ATOM     12  C   UNL d   1      31.156 -18.227  -7.951  0.00  0.00     0.037 A 
ATOM     13  C   UNL d   1      31.045 -19.605  -8.165  0.00  0.00     0.003 A 
ATOM     14  C   UNL d   1      30.795 -20.458  -7.092  0.00  0.00     0.007 A 
ATOM     15  C   UNL d   1      30.658 -19.935  -5.803  0.00  0.00    -0.059 A 
ATOM     16  C   UNL d   1      30.408 -20.830  -4.627  0.00  0.00     0.048 C 
ATOM     17  C   UNL d   1      30.763 -18.549  -5.600  0.00  0.00     0.043 A 
ENDBRANCH  10  11
ENDBRANCH   9  10
ENDBRANCH   6   9
ENDBRANCH   1   5
BRANCH   2  18
ATOM     18  C   UNL d   1      28.020 -16.452  -1.127  0.00  0.00     0.145 C 
BRANCH  18  19
ATOM     19  C   UNL d   1      26.499 -16.234  -1.278  0.00  0.00    -0.021 A 
ATOM     20  C   UNL d   1      25.923 -15.068  -1.785  0.00  0.00     0.097 A 
ATOM     21  N   UNL d   1      24.555 -15.208  -1.809  0.00  0.00    -0.365 N 
ATOM     22  C   UNL d   1      24.191 -16.421  -1.280  0.00  0.00     0.044 A 
ATOM     23  H   UNL d   1      23.899 -14.511  -2.142  0.00  0.00     0.165 HD
ATOM     24  C   UNL d   1      22.911 -16.982  -1.067  0.00  0.00     0.054 A 
ATOM     25  C   UNL d   1      25.372 -17.093  -0.946  0.00  0.00    -0.001 A 
ATOM     26  C   UNL d   1      22.821 -18.244  -0.469  0.00  0.00     0.036 A 
ATOM     27 CL   UNL d   1      21.301 -18.972  -0.142  0.00  0.00    -0.084 Cl
ATOM     28  C   UNL d   1      23.950 -18.938  -0.124  0.00  0.00     0.025 A 
ATOM     29  C   UNL d   1      25.187 -18.377  -0.388  0.00  0.00     0.016 A 
ENDBRANCH  18  19
ENDBRANCH   2  18
TORSDOF 6
ENDMDL
MODEL 5
REMARK VINA RESULT:    -7.258      5.799      9.207
REMARK INTER + INTRA:         -11.654
REMARK INTER:                  -9.048
REMARK INTRA:                  -2.606
REMARK CONF_INDEPENDENT:        1.790
REMARK UNBOUND:                -2.606
REMARK  6 active torsions:
REMARK  status: ('A' for Active; 'I' for Inactive)
REMARK    1  A    between atoms: C_6  and  O_7 
REMARK    2  A    between atoms: O_7  and  C_8 
REMARK    3  A    between atoms: C_8  and  C_9 
REMARK       I    between atoms: C_9  and  N_11 
REMARK    4  A    between atoms: N_11  and  N_12 
REMARK       I    between atoms: N_12  and  C_13 
REMARK    5  A    between atoms: C_13  and  C_15 
REMARK    6  A    between atoms: C_15  and  C_16 
ROOT
ATOM      1  N   UNL d   1      26.505 -14.673  -2.100  0.00  0.00    -0.267 N 
ATOM      2  C   UNL d   1      26.860 -14.304  -0.830  0.00  0.00     0.240 C 
ATOM      3  O   UNL d   1      27.002 -13.083  -0.722  0.00  0.00    -0.272 OA
ATOM      4  H   UNL d   1      26.180 -15.581  -2.416  0.00  0.00     0.190 HD
ENDROOT
BRANCH   1   5
ATOM      5  N   UNL d   1      26.408 -13.568  -3.031  0.00  0.00    -0.266 N 
ATOM      6  C   UNL d   1      25.551 -13.655  -4.103  0.00  0.00     0.260 C 
ATOM      7  O   UNL d   1      24.857 -14.663  -4.248  0.00  0.00    -0.269 OA
ATOM      8  H   UNL d   1      27.009 -12.767  -2.804  0.00  0.00     0.190 HD
BRANCH   6   9
ATOM      9  C   UNL d   1      25.534 -12.450  -5.069  0.00  0.00     0.280 C 
BRANCH   9  10
ATOM     10  O   UNL d   1      26.438 -11.451  -4.580  0.00  0.00    -0.342 OA
BRANCH  10  11
ATOM     11  C   UNL d   1      25.985 -10.169  -4.425  0.00  0.00     0.069 A 
ATOM     12  C   UNL d   1      26.345  -9.531  -3.231  0.00  0.00     0.037 A 
ATOM     13  C   UNL d   1      25.929  -8.222  -2.965  0.00  0.00     0.003 A 
ATOM     14  C   UNL d   1      25.154  -7.535  -3.897  0.00  0.00     0.007 A 
ATOM     15  C   UNL d   1      24.795  -8.155  -5.098  0.00  0.00    -0.059 A 
ATOM     16  C   UNL d   1      23.979  -7.434  -6.128  0.00  0.00     0.048 C 
ATOM     17  C   UNL d   1      25.212  -9.473  -5.352  0.00  0.00     0.043 A 
ENDBRANCH  10  11
ENDBRANCH   9  10
ENDBRANCH   6   9
ENDBRANCH   1   5
BRANCH   2  18
ATOM     18  C   UNL d   1      27.029 -15.324   0.303  0.00  0.00     0.145 C 
BRANCH  18  19
ATOM     19  C   UNL d   1      26.327 -16.691   0.149  0.00  0.00    -0.021 A 
ATOM     20  C   UNL d   1      26.976 -17.921   0.267  0.00  0.00     0.097 A 
ATOM     21  N   UNL d   1      26.065 -18.937   0.098  0.00  0.00    -0.365 N 
ATOM     22  C   UNL d   1      24.824 -18.421  -0.183  0.00  0.00     0.044 A 
ATOM     23  H   UNL d   1      26.273 -19.927   0.147  0.00  0.00     0.165 HD
ATOM     24  C   UNL d   1      23.603 -19.074  -0.465  0.00  0.00     0.054 A 
ATOM     25  C   UNL d   1      24.944 -17.027  -0.153  0.00  0.00    -0.001 A 
ATOM     26  C   UNL d   1      22.476 -18.295  -0.757  0.00  0.00     0.036 A 
ATOM     27 CL   UNL d   1      20.968 -19.016  -1.148  0.00  0.00    -0.084 Cl
ATOM     28  C   UNL d   1      22.546 -16.928  -0.740  0.00  0.00     0.025 A 
ATOM     29  C   UNL d   1      23.748 -16.323  -0.417  0.00  0.00     0.016 A 
ENDBRANCH  18  19
ENDBRANCH   2  18
TORSDOF 6
ENDMDL
MODEL 6
REMARK VINA RESULT:    -7.230      3.693      9.300
REMARK INTER + INTRA:         -11.570
REMARK INTER:                  -9.020
REMARK INTRA:                  -2.550
REMARK CONF_INDEPENDENT:        1.790
REMARK UNBOUND:                -2.550
REMARK  6 active torsions:
REMARK  status: ('A' for Active; 'I' for Inactive)
REMARK    1  A    between atoms: C_6  and  O_7 
REMARK    2  A    between atoms: O_7  and  C_8 
REMARK    3  A    between atoms: C_8  and  C_9 
REMARK       I    between atoms: C_9  and  N_11 
REMARK    4  A    between atoms: N_11  and  N_12 
REMARK       I    between atoms: N_12  and  C_13 
REMARK    5  A    between atoms: C_13  and  C_15 
REMARK    6  A    between atoms: C_15  and  C_16 
ROOT
ATOM      1  N   UNL d   1      26.782 -13.212   0.416  0.00  0.00    -0.267 N 
ATOM      2  C   UNL d   1      27.221 -13.711   1.613  0.00  0.00     0.240 C 
ATOM      3  O   UNL d   1      27.447 -14.922   1.559  0.00  0.00    -0.272 OA
ATOM      4  H   UNL d   1      26.675 -12.238   0.149  0.00  0.00     0.190 HD
ENDROOT
BRANCH   1   5
ATOM      5  N   UNL d   1      26.650 -14.208  -0.626  0.00  0.00    -0.266 N 
ATOM      6  C   UNL d   1      26.227 -13.830  -1.879  0.00  0.00     0.260 C 
ATOM      7  O   UNL d   1      25.985 -12.643  -2.108  0.00  0.00    -0.269 OA
ATOM      8  H   UNL d   1      26.901 -15.161  -0.337  0.00  0.00     0.190 HD
BRANCH   6   9
ATOM      9  C   UNL d   1      26.077 -14.958  -2.923  0.00  0.00     0.280 C 
BRANCH   9  10
ATOM     10  O   UNL d   1      26.561 -16.183  -2.356  0.00  0.00    -0.342 OA
BRANCH  10  11
ATOM     11  C   UNL d   1      25.755 -16.875  -1.495  0.00  0.00     0.069 A 
ATOM     12  C   UNL d   1      26.392 -17.462  -0.394  0.00  0.00     0.037 A 
ATOM     13  C   UNL d   1      25.664 -18.200   0.546  0.00  0.00     0.003 A 
ATOM     14  C   UNL d   1      24.287 -18.350   0.396  0.00  0.00     0.007 A 
ATOM     15  C   UNL d   1      23.635 -17.763  -0.692  0.00  0.00    -0.059 A 
ATOM     16  C   UNL d   1      22.152 -17.892  -0.868  0.00  0.00     0.048 C 
ATOM     17  C   UNL d   1      24.376 -17.030  -1.634  0.00  0.00     0.043 A 
ENDBRANCH  10  11
ENDBRANCH   9  10
ENDBRANCH   6   9
ENDBRANCH   1   5
BRANCH   2  18
ATOM     18  C   UNL d   1      27.415 -12.822   2.850  0.00  0.00     0.145 C 
BRANCH  18  19
ATOM     19  C   UNL d   1      27.897 -13.499   4.151  0.00  0.00    -0.021 A 
ATOM     20  C   UNL d   1      28.155 -14.866   4.272  0.00  0.00     0.097 A 
ATOM     21  N   UNL d   1      28.589 -15.138   5.548  0.00  0.00    -0.365 N 
ATOM     22  C   UNL d   1      28.580 -13.994   6.308  0.00  0.00     0.044 A 
ATOM     23  H   UNL d   1      28.855 -16.051   5.896  0.00  0.00     0.165 HD
ATOM     24  C   UNL d   1      28.905 -13.795   7.669  0.00  0.00     0.054 A 
ATOM     25  C   UNL d   1      28.164 -12.952   5.472  0.00  0.00    -0.001 A 
ATOM     26  C   UNL d   1      28.773 -12.511   8.210  0.00  0.00     0.036 A 
ATOM     27 CL   UNL d   1      29.111 -12.199   9.865  0.00  0.00    -0.084 Cl
ATOM     28  C   UNL d   1      28.369 -11.460   7.432  0.00  0.00     0.025 A 
ATOM     29  C   UNL d   1      28.101 -11.684   6.092  0.00  0.00     0.016 A 
ENDBRANCH  18  19
ENDBRANCH   2  18
TORSDOF 6
ENDMDL
MODEL 7
REMARK VINA RESULT:    -7.218      1.996      2.968
REMARK INTER + INTRA:         -11.465
REMARK INTER:                  -9.008
REMARK INTRA:                  -2.457
REMARK CONF_INDEPENDENT:        1.790
REMARK UNBOUND:                -2.457
REMARK  6 active torsions:
REMARK  status: ('A' for Active; 'I' for Inactive)
REMARK    1  A    between atoms: C_6  and  O_7 
REMARK    2  A    between atoms: O_7  and  C_8 
REMARK    3  A    between atoms: C_8  and  C_9 
REMARK       I    between atoms: C_9  and  N_11 
REMARK    4  A    between atoms: N_11  and  N_12 
REMARK       I    between atoms: N_12  and  C_13 
REMARK    5  A    between atoms: C_13  and  C_15 
REMARK    6  A    between atoms: C_15  and  C_16 
ROOT
ATOM      1  N   UNL d   1      28.123 -14.843   2.578  0.00  0.00    -0.267 N 
ATOM      2  C   UNL d   1      27.405 -14.409   1.496  0.00  0.00     0.240 C 
ATOM      3  O   UNL d   1      26.786 -13.368   1.734  0.00  0.00    -0.272 OA
ATOM      4  H   UNL d   1      28.828 -15.573   2.605  0.00  0.00     0.190 HD
ENDROOT
BRANCH   1   5
ATOM      5  N   UNL d   1      27.973 -14.016   3.757  0.00  0.00    -0.266 N 
ATOM      6  C   UNL d   1      28.476 -14.450   4.961  0.00  0.00     0.260 C 
ATOM      7  O   UNL d   1      29.068 -15.529   5.020  0.00  0.00    -0.269 OA
ATOM      8  H   UNL d   1      27.488 -13.126   3.592  0.00  0.00     0.190 HD
BRANCH   6   9
ATOM      9  C   UNL d   1      28.243 -13.526   6.176  0.00  0.00     0.280 C 
BRANCH   9  10
ATOM     10  O   UNL d   1      27.477 -12.390   5.756  0.00  0.00    -0.342 OA
BRANCH  10  11
ATOM     11  C   UNL d   1      28.047 -11.148   5.823  0.00  0.00     0.069 A 
ATOM     12  C   UNL d   1      27.779 -10.290   4.748  0.00  0.00     0.037 A 
ATOM     13  C   UNL d   1      28.318  -9.000   4.710  0.00  0.00     0.003 A 
ATOM     14  C   UNL d   1      29.123  -8.551   5.755  0.00  0.00     0.007 A 
ATOM     15  C   UNL d   1      29.391  -9.391   6.839  0.00  0.00    -0.059 A 
ATOM     16  C   UNL d   1      30.238  -8.929   7.986  0.00  0.00     0.048 C 
ATOM     17  C   UNL d   1      28.852 -10.689   6.864  0.00  0.00     0.043 A 
ENDBRANCH  10  11
ENDBRANCH   9  10
ENDBRANCH   6   9
ENDBRANCH   1   5
BRANCH   2  18
ATOM     18  C   UNL d   1      27.416 -15.152   0.153  0.00  0.00     0.145 C 
BRANCH  18  19
ATOM     19  C   UNL d   1      26.719 -16.529   0.089  0.00  0.00    -0.021 A 
ATOM     20  C   UNL d   1      27.382 -17.748   0.240  0.00  0.00     0.097 A 
ATOM     21  N   UNL d   1      26.473 -18.775   0.154  0.00  0.00    -0.365 N 
ATOM     22  C   UNL d   1      25.218 -18.281  -0.105  0.00  0.00     0.044 A 
ATOM     23  H   UNL d   1      26.690 -19.761   0.241  0.00  0.00     0.165 HD
ATOM     24  C   UNL d   1      23.992 -18.953  -0.309  0.00  0.00     0.054 A 
ATOM     25  C   UNL d   1      25.329 -16.886  -0.144  0.00  0.00    -0.001 A 
ATOM     26  C   UNL d   1      22.850 -18.195  -0.595  0.00  0.00     0.036 A 
ATOM     27 CL   UNL d   1      21.333 -18.943  -0.895  0.00  0.00    -0.084 Cl
ATOM     28  C   UNL d   1      22.910 -16.829  -0.645  0.00  0.00     0.025 A 
ATOM     29  C   UNL d   1      24.119 -16.202  -0.396  0.00  0.00     0.016 A 
ENDBRANCH  18  19
ENDBRANCH   2  18
TORSDOF 6
ENDMDL
MODEL 8
REMARK VINA RESULT:    -7.190      5.799      9.378
REMARK INTER + INTRA:         -11.613
REMARK INTER:                  -8.980
REMARK INTRA:                  -2.633
REMARK CONF_INDEPENDENT:        1.790
REMARK UNBOUND:                -2.633
REMARK  6 active torsions:
REMARK  status: ('A' for Active; 'I' for Inactive)
REMARK    1  A    between atoms: C_6  and  O_7 
REMARK    2  A    between atoms: O_7  and  C_8 
REMARK    3  A    between atoms: C_8  and  C_9 
REMARK       I    between atoms: C_9  and  N_11 
REMARK    4  A    between atoms: N_11  and  N_12 
REMARK       I    between atoms: N_12  and  C_13 
REMARK    5  A    between atoms: C_13  and  C_15 
REMARK    6  A    between atoms: C_15  and  C_16 
ROOT
ATOM      1  N   UNL d   1      26.290 -14.650  -2.001  0.00  0.00    -0.267 N 
ATOM      2  C   UNL d   1      27.030 -14.378  -0.882  0.00  0.00     0.240 C 
ATOM      3  O   UNL d   1      27.592 -13.282  -0.950  0.00  0.00    -0.272 OA
ATOM      4  H   UNL d   1      25.617 -15.398  -2.136  0.00  0.00     0.190 HD
ENDROOT
BRANCH   1   5
ATOM      5  N   UNL d   1      26.356 -13.620  -3.018  0.00  0.00    -0.266 N 
ATOM      6  C   UNL d   1      25.367 -13.540  -3.970  0.00  0.00     0.260 C 
ATOM      7  O   UNL d   1      24.423 -14.332  -3.937  0.00  0.00    -0.269 OA
ATOM      8  H   UNL d   1      27.168 -12.997  -2.939  0.00  0.00     0.190 HD
BRANCH   6   9
ATOM      9  C   UNL d   1      25.530 -12.438  -5.039  0.00  0.00     0.280 C 
BRANCH   9  10
ATOM     10  O   UNL d   1      26.911 -12.056  -5.105  0.00  0.00    -0.342 OA
BRANCH  10  11
ATOM     11  C   UNL d   1      27.797 -12.890  -5.731  0.00  0.00     0.069 A 
ATOM     12  C   UNL d   1      28.282 -12.453  -6.970  0.00  0.00     0.037 A 
ATOM     13  C   UNL d   1      29.188 -13.230  -7.699  0.00  0.00     0.003 A 
ATOM     14  C   UNL d   1      29.623 -14.452  -7.190  0.00  0.00     0.007 A 
ATOM     15  C   UNL d   1      29.156 -14.897  -5.950  0.00  0.00    -0.059 A 
ATOM     16  C   UNL d   1      29.622 -16.198  -5.369  0.00  0.00     0.048 C 
ATOM     17  C   UNL d   1      28.241 -14.112  -5.229  0.00  0.00     0.043 A 
ENDBRANCH  10  11
ENDBRANCH   9  10
ENDBRANCH   6   9
ENDBRANCH   1   5
BRANCH   2  18
ATOM     18  C   UNL d   1      27.105 -15.347   0.306  0.00  0.00     0.145 C 
BRANCH  18  19
ATOM     19  C   UNL d   1      26.387 -16.707   0.169  0.00  0.00    -0.021 A 
ATOM     20  C   UNL d   1      27.019 -17.943   0.320  0.00  0.00     0.097 A 
ATOM     21  N   UNL d   1      26.097 -18.950   0.160  0.00  0.00    -0.365 N 
ATOM     22  C   UNL d   1      24.867 -18.424  -0.149  0.00  0.00     0.044 A 
ATOM     23  H   UNL d   1      26.291 -19.941   0.230  0.00  0.00     0.165 HD
ATOM     24  C   UNL d   1      23.641 -19.066  -0.435  0.00  0.00     0.054 A 
ATOM     25  C   UNL d   1      25.004 -17.032  -0.145  0.00  0.00    -0.001 A 
ATOM     26  C   UNL d   1      22.529 -18.280  -0.758  0.00  0.00     0.036 A 
ATOM     27 CL   UNL d   1      21.016 -18.989  -1.155  0.00  0.00    -0.084 Cl
ATOM     28  C   UNL d   1      22.616 -16.914  -0.767  0.00  0.00     0.025 A 
ATOM     29  C   UNL d   1      23.821 -16.318  -0.439  0.00  0.00     0.016 A 
ENDBRANCH  18  19
ENDBRANCH   2  18
TORSDOF 6
ENDMDL
MODEL 9
REMARK VINA RESULT:    -7.104      6.395      9.411
REMARK INTER + INTRA:         -11.497
REMARK INTER:                  -8.894
REMARK INTRA:                  -2.603
REMARK CONF_INDEPENDENT:        1.790
REMARK UNBOUND:                -2.603
REMARK  6 active torsions:
REMARK  status: ('A' for Active; 'I' for Inactive)
REMARK    1  A    between atoms: C_6  and  O_7 
REMARK    2  A    between atoms: O_7  and  C_8 
REMARK    3  A    between atoms: C_8  and  C_9 
REMARK       I    between atoms: C_9  and  N_11 
REMARK    4  A    between atoms: N_11  and  N_12 
REMARK       I    between atoms: N_12  and  C_13 
REMARK    5  A    between atoms: C_13  and  C_15 
REMARK    6  A    between atoms: C_15  and  C_16 
ROOT
ATOM      1  N   UNL d   1      26.989 -15.202  -2.856  0.00  0.00    -0.267 N 
ATOM      2  C   UNL d   1      26.884 -14.397  -1.754  0.00  0.00     0.240 C 
ATOM      3  O   UNL d   1      27.321 -13.262  -1.962  0.00  0.00    -0.272 OA
ATOM      4  H   UNL d   1      26.570 -16.116  -3.001  0.00  0.00     0.190 HD
ENDROOT
BRANCH   1   5
ATOM      5  N   UNL d   1      27.611 -14.564  -3.997  0.00  0.00    -0.266 N 
ATOM      6  C   UNL d   1      27.218 -14.911  -5.269  0.00  0.00     0.260 C 
ATOM      7  O   UNL d   1      26.325 -15.746  -5.424  0.00  0.00    -0.269 OA
ATOM      8  H   UNL d   1      28.323 -13.865  -3.756  0.00  0.00     0.190 HD
BRANCH   6   9
ATOM      9  C   UNL d   1      27.956 -14.211  -6.431  0.00  0.00     0.280 C 
BRANCH   9  10
ATOM     10  O   UNL d   1      28.432 -12.937  -5.978  0.00  0.00    -0.342 OA
BRANCH  10  11
ATOM     11  C   UNL d   1      27.525 -11.939  -5.745  0.00  0.00     0.069 A 
ATOM     12  C   UNL d   1      26.847 -11.450  -6.869  0.00  0.00     0.037 A 
ATOM     13  C   UNL d   1      25.904 -10.424  -6.747  0.00  0.00     0.003 A 
ATOM     14  C   UNL d   1      25.623  -9.883  -5.494  0.00  0.00     0.007 A 
ATOM     15  C   UNL d   1      26.284 -10.367  -4.361  0.00  0.00    -0.059 A 
ATOM     16  C   UNL d   1      25.988  -9.818  -2.998  0.00  0.00     0.048 C 
ATOM     17  C   UNL d   1      27.235 -11.392  -4.496  0.00  0.00     0.043 A 
ENDBRANCH  10  11
ENDBRANCH   9  10
ENDBRANCH   6   9
ENDBRANCH   1   5
BRANCH   2  18
ATOM     18  C   UNL d   1      26.266 -14.886  -0.437  0.00  0.00     0.145 C 
BRANCH  18  19
ATOM     19  C   UNL d   1      25.727 -16.332  -0.391  0.00  0.00    -0.021 A 
ATOM     20  C   UNL d   1      26.531 -17.460  -0.214  0.00  0.00     0.097 A 
ATOM     21  N   UNL d   1      25.741 -18.585  -0.196  0.00  0.00    -0.365 N 
ATOM     22  C   UNL d   1      24.427 -18.248  -0.410  0.00  0.00     0.044 A 
ATOM     23  H   UNL d   1      26.073 -19.534  -0.070  0.00  0.00     0.165 HD
ATOM     24  C   UNL d   1      23.277 -19.062  -0.511  0.00  0.00     0.054 A 
ATOM     25  C   UNL d   1      24.376 -16.855  -0.527  0.00  0.00    -0.001 A 
ATOM     26  C   UNL d   1      22.043 -18.454  -0.771  0.00  0.00     0.036 A 
ATOM     27 CL   UNL d   1      20.608 -19.381  -0.947  0.00  0.00    -0.084 Cl
ATOM     28  C   UNL d   1      21.945 -17.094  -0.895  0.00  0.00     0.025 A 
ATOM     29  C   UNL d   1      23.086 -16.325  -0.746  0.00  0.00     0.016 A 
ENDBRANCH  18  19
ENDBRANCH   2  18
TORSDOF 6
ENDMDL
