MODEL 1
REMARK VINA RESULT:    -8.527      0.000      0.000
REMARK INTER + INTRA:         -11.322
REMARK INTER:                 -10.019
REMARK INTRA:                  -1.304
REMARK CONF_INDEPENDENT:        1.492
REMARK UNBOUND:                -1.304
REMARK  5 active torsions:
REMARK  status: ('A' for Active; 'I' for Inactive)
REMARK    1  A    between atoms: N_7  and  C_8 
REMARK    2  A    between atoms: C_8  and  C_9 
REMARK    3  A    between atoms: C_10  and  O_11 
REMARK    4  A    between atoms: C_17  and  C_18 
REMARK    5  A    between atoms: C_27  and  N_28 
ROOT
ATOM      1  C   UNL d   1      27.274 -13.618   1.298  0.00  0.00     0.036 C 
ATOM      2  C   UNL d   1      27.097 -12.448   0.541  0.00  0.00     0.076 C 
ATOM      3  C   UNL d   1      27.264 -11.183   1.083  0.00  0.00     0.038 C 
ATOM      4  C   UNL d   1      27.313 -11.039   2.459  0.00  0.00     0.021 C 
ATOM      5  C   UNL d   1      27.512 -12.159   3.270  0.00  0.00     0.050 A 
ATOM      6  C   UNL d   1      27.790 -11.996   4.719  0.00  0.00     0.202 A 
ATOM      7  O   UNL d   1      27.691 -10.865   5.230  0.00  0.00    -0.286 OA
ATOM      8  C   UNL d   1      28.210 -13.197   5.471  0.00  0.00     0.101 A 
ATOM      9  C   UNL d   1      28.178 -14.382   4.799  0.00  0.00     0.159 A 
ATOM     10  O   UNL d   1      27.797 -14.537   3.468  0.00  0.00    -0.292 OA
ATOM     11  C   UNL d   1      27.534 -13.435   2.690  0.00  0.00     0.102 A 
ENDROOT
BRANCH   1  12
ATOM     12  C   UNL d   1      27.142 -15.002   0.679  0.00  0.00     0.279 C 
BRANCH  12  13
ATOM     13  N   UNL d   1      28.429 -15.870   0.561  0.00  0.00    -0.063 N 
ATOM     14  C   UNL d   1      29.652 -15.049   0.149  0.00  0.00     0.235 C 
ATOM     15  C   UNL d   1      30.914 -15.850  -0.054  0.00  0.00     0.028 C 
ATOM     16  C   UNL d   1      30.646 -16.908  -1.091  0.00  0.00     0.004 C 
ATOM     17  C   UNL d   1      29.582 -17.825  -0.521  0.00  0.00     0.033 C 
ATOM     18  C   UNL d   1      28.241 -17.091  -0.364  0.00  0.00     0.184 C 
ATOM     19  C   UNL d   1      27.211 -18.090   0.162  0.00  0.00     0.040 C 
ATOM     20  H   UNL d   1      28.609 -16.210   1.515  0.00  0.00     0.280 HD
ENDBRANCH  12  13
ENDBRANCH   1  12
BRANCH   2  21
ATOM     21  O   UNL d   1      26.684 -12.417  -0.760  0.00  0.00    -0.360 OA
ATOM     22  H   UNL d   1      27.324 -11.936  -1.307  0.00  0.00     0.217 HD
ENDBRANCH   2  21
BRANCH   9  23
ATOM     23  N   UNL d   1      28.576 -15.565   5.387  0.00  0.00    -0.379 N 
ATOM     24  H   UNL d   1      29.122 -16.177   4.760  0.00  0.00     0.158 HD
ATOM     25  H   UNL d   1      28.900 -15.554   6.343  0.00  0.00     0.158 HD
ENDBRANCH   9  23
BRANCH   8  26
ATOM     26  C   UNL d   1      28.541 -13.263   6.884  0.00  0.00     0.113 C 
ATOM     27  N   UNL d   1      29.410 -14.143   7.372  0.00  0.00    -0.243 NA
ATOM     28  C   UNL d   1      29.303 -14.063   8.721  0.00  0.00     0.061 C 
ATOM     29  C   UNL d   1      28.533 -14.844   9.595  0.00  0.00     0.029 C 
ATOM     30  C   UNL d   1      29.659 -12.795   9.181  0.00  0.00     0.103 C 
ATOM     31  C   UNL d   1      28.414 -14.447  10.932  0.00  0.00     0.002 C 
ATOM     32  C   UNL d   1      29.255 -13.463  11.441  0.00  0.00    -0.002 C 
ATOM     33  C   UNL d   1      29.974 -12.644  10.557  0.00  0.00     0.003 C 
ATOM     34  S   UNL d   1      28.159 -12.042   8.145  0.00  0.00    -0.086 SA
ENDBRANCH   8  26
TORSDOF 5
ENDMDL
MODEL 2
REMARK VINA RESULT:    -8.210      5.687     10.061
REMARK INTER + INTRA:         -11.342
REMARK INTER:                  -9.702
REMARK INTRA:                  -1.640
REMARK CONF_INDEPENDENT:        1.492
REMARK UNBOUND:                -1.640
REMARK  5 active torsions:
REMARK  status: ('A' for Active; 'I' for Inactive)
REMARK    1  A    between atoms: N_7  and  C_8 
REMARK    2  A    between atoms: C_8  and  C_9 
REMARK    3  A    between atoms: C_10  and  O_11 
REMARK    4  A    between atoms: C_17  and  C_18 
REMARK    5  A    between atoms: C_27  and  N_28 
ROOT
ATOM      1  C   UNL d   1      26.078 -17.191  -0.544  0.00  0.00     0.036 C 
ATOM      2  C   UNL d   1      24.806 -17.693  -0.218  0.00  0.00     0.076 C 
ATOM      3  C   UNL d   1      23.656 -17.274  -0.869  0.00  0.00     0.038 C 
ATOM      4  C   UNL d   1      23.700 -16.129  -1.646  0.00  0.00     0.021 C 
ATOM      5  C   UNL d   1      24.932 -15.592  -2.027  0.00  0.00     0.050 A 
ATOM      6  C   UNL d   1      24.996 -14.506  -3.037  0.00  0.00     0.202 A 
ATOM      7  O   UNL d   1      23.938 -13.977  -3.424  0.00  0.00    -0.286 OA
ATOM      8  C   UNL d   1      26.329 -14.139  -3.558  0.00  0.00     0.101 A 
ATOM      9  C   UNL d   1      27.402 -14.737  -2.968  0.00  0.00     0.159 A 
ATOM     10  O   UNL d   1      27.332 -15.668  -1.934  0.00  0.00    -0.292 OA
ATOM     11  C   UNL d   1      26.113 -16.145  -1.513  0.00  0.00     0.102 A 
ENDROOT
BRANCH   1  12
ATOM     12  C   UNL d   1      27.340 -17.699   0.138  0.00  0.00     0.279 C 
BRANCH  12  13
ATOM     13  N   UNL d   1      28.419 -16.653   0.540  0.00  0.00    -0.063 N 
ATOM     14  C   UNL d   1      27.808 -15.331   1.006  0.00  0.00     0.235 C 
ATOM     15  C   UNL d   1      28.807 -14.251   1.339  0.00  0.00     0.028 C 
ATOM     16  C   UNL d   1      29.667 -14.008   0.128  0.00  0.00     0.004 C 
ATOM     17  C   UNL d   1      30.421 -15.294  -0.144  0.00  0.00     0.033 C 
ATOM     18  C   UNL d   1      29.466 -16.420  -0.570  0.00  0.00     0.184 C 
ATOM     19  C   UNL d   1      30.303 -17.662  -0.876  0.00  0.00     0.040 C 
ATOM     20  H   UNL d   1      28.896 -17.061   1.355  0.00  0.00     0.280 HD
ENDBRANCH  12  13
ENDBRANCH   1  12
BRANCH   2  21
ATOM     21  O   UNL d   1      24.553 -18.575   0.793  0.00  0.00    -0.360 OA
ATOM     22  H   UNL d   1      23.757 -19.093   0.598  0.00  0.00     0.217 HD
ENDBRANCH   2  21
BRANCH   9  23
ATOM     23  N   UNL d   1      28.695 -14.496  -3.389  0.00  0.00    -0.379 N 
ATOM     24  H   UNL d   1      28.752 -14.074  -4.329  0.00  0.00     0.158 HD
ATOM     25  H   UNL d   1      29.367 -14.134  -2.729  0.00  0.00     0.158 HD
ENDBRANCH   9  23
BRANCH   8  26
ATOM     26  C   UNL d   1      26.621 -13.121  -4.552  0.00  0.00     0.113 C 
ATOM     27  N   UNL d   1      27.198 -13.406  -5.715  0.00  0.00    -0.243 NA
ATOM     28  C   UNL d   1      27.511 -12.212  -6.278  0.00  0.00     0.061 C 
ATOM     29  C   UNL d   1      28.720 -11.503  -6.234  0.00  0.00     0.029 C 
ATOM     30  C   UNL d   1      26.364 -11.459  -6.531  0.00  0.00     0.103 C 
ATOM     31  C   UNL d   1      28.751 -10.188  -6.713  0.00  0.00     0.002 C 
ATOM     32  C   UNL d   1      27.686  -9.695  -7.459  0.00  0.00    -0.002 C 
ATOM     33  C   UNL d   1      26.460 -10.378  -7.446  0.00  0.00     0.003 C 
ATOM     34  S   UNL d   1      26.000 -11.436  -4.592  0.00  0.00    -0.086 SA
ENDBRANCH   8  26
TORSDOF 5
ENDMDL
MODEL 3
REMARK VINA RESULT:    -8.182      5.974     10.633
REMARK INTER + INTRA:         -11.364
REMARK INTER:                  -9.673
REMARK INTRA:                  -1.690
REMARK CONF_INDEPENDENT:        1.492
REMARK UNBOUND:                -1.690
REMARK  5 active torsions:
REMARK  status: ('A' for Active; 'I' for Inactive)
REMARK    1  A    between atoms: N_7  and  C_8 
REMARK    2  A    between atoms: C_8  and  C_9 
REMARK    3  A    between atoms: C_10  and  O_11 
REMARK    4  A    between atoms: C_17  and  C_18 
REMARK    5  A    between atoms: C_27  and  N_28 
ROOT
ATOM      1  C   UNL d   1      26.596 -17.105  -0.837  0.00  0.00     0.036 C 
ATOM      2  C   UNL d   1      25.242 -17.284  -0.504  0.00  0.00     0.076 C 
ATOM      3  C   UNL d   1      24.214 -16.819  -1.309  0.00  0.00     0.038 C 
ATOM      4  C   UNL d   1      24.500 -15.901  -2.306  0.00  0.00     0.021 C 
ATOM      5  C   UNL d   1      25.823 -15.693  -2.703  0.00  0.00     0.050 A 
ATOM      6  C   UNL d   1      26.125 -14.888  -3.913  0.00  0.00     0.202 A 
ATOM      7  O   UNL d   1      25.200 -14.275  -4.478  0.00  0.00    -0.286 OA
ATOM      8  C   UNL d   1      27.520 -14.892  -4.403  0.00  0.00     0.101 A 
ATOM      9  C   UNL d   1      28.440 -15.530  -3.625  0.00  0.00     0.159 A 
ATOM     10  O   UNL d   1      28.160 -16.180  -2.425  0.00  0.00    -0.292 OA
ATOM     11  C   UNL d   1      26.861 -16.323  -2.001  0.00  0.00     0.102 A 
ENDROOT
BRANCH   1  12
ATOM     12  C   UNL d   1      27.715 -17.669   0.025  0.00  0.00     0.279 C 
BRANCH  12  13
ATOM     13  N   UNL d   1      28.857 -16.703   0.457  0.00  0.00    -0.063 N 
ATOM     14  C   UNL d   1      28.351 -15.285   0.728  0.00  0.00     0.235 C 
ATOM     15  C   UNL d   1      29.424 -14.285   1.079  0.00  0.00     0.028 C 
ATOM     16  C   UNL d   1      30.431 -14.254  -0.039  0.00  0.00     0.004 C 
ATOM     17  C   UNL d   1      31.061 -15.631  -0.104  0.00  0.00     0.033 C 
ATOM     18  C   UNL d   1      30.036 -16.691  -0.538  0.00  0.00     0.184 C 
ATOM     19  C   UNL d   1      30.756 -18.036  -0.632  0.00  0.00     0.040 C 
ATOM     20  H   UNL d   1      29.193 -17.073   1.355  0.00  0.00     0.280 HD
ENDBRANCH  12  13
ENDBRANCH   1  12
BRANCH   2  21
ATOM     21  O   UNL d   1      24.794 -17.860   0.650  0.00  0.00    -0.360 OA
ATOM     22  H   UNL d   1      23.872 -18.143   0.551  0.00  0.00     0.217 HD
ENDBRANCH   2  21
BRANCH   9  23
ATOM     23  N   UNL d   1      29.766 -15.625  -3.994  0.00  0.00    -0.379 N 
ATOM     24  H   UNL d   1      29.922 -15.518  -5.009  0.00  0.00     0.158 HD
ATOM     25  H   UNL d   1      30.470 -15.189  -3.417  0.00  0.00     0.158 HD
ENDBRANCH   9  23
BRANCH   8  26
ATOM     26  C   UNL d   1      28.031 -14.190  -5.567  0.00  0.00     0.113 C 
ATOM     27  N   UNL d   1      28.556 -14.826  -6.610  0.00  0.00    -0.243 NA
ATOM     28  C   UNL d   1      29.117 -13.867  -7.387  0.00  0.00     0.061 C 
ATOM     29  C   UNL d   1      30.446 -13.419  -7.418  0.00  0.00     0.029 C 
ATOM     30  C   UNL d   1      28.155 -12.973  -7.858  0.00  0.00     0.103 C 
ATOM     31  C   UNL d   1      30.755 -12.269  -8.155  0.00  0.00     0.002 C 
ATOM     32  C   UNL d   1      29.827 -11.747  -9.050  0.00  0.00    -0.002 C 
ATOM     33  C   UNL d   1      28.486 -12.155  -8.969  0.00  0.00     0.003 C 
ATOM     34  S   UNL d   1      27.772 -12.464  -5.991  0.00  0.00    -0.086 SA
ENDBRANCH   8  26
TORSDOF 5
ENDMDL
MODEL 4
REMARK VINA RESULT:    -8.022      5.640      9.599
REMARK INTER + INTRA:         -11.160
REMARK INTER:                  -9.513
REMARK INTRA:                  -1.647
REMARK CONF_INDEPENDENT:        1.492
REMARK UNBOUND:                -1.647
REMARK  5 active torsions:
REMARK  status: ('A' for Active; 'I' for Inactive)
REMARK    1  A    between atoms: N_7  and  C_8 
REMARK    2  A    between atoms: C_8  and  C_9 
REMARK    3  A    between atoms: C_10  and  O_11 
REMARK    4  A    between atoms: C_17  and  C_18 
REMARK    5  A    between atoms: C_27  and  N_28 
ROOT
ATOM      1  C   UNL d   1      26.649 -16.098   0.072  0.00  0.00     0.036 C 
ATOM      2  C   UNL d   1      25.962 -17.308  -0.127  0.00  0.00     0.076 C 
ATOM      3  C   UNL d   1      25.161 -17.531  -1.236  0.00  0.00     0.038 C 
ATOM      4  C   UNL d   1      24.779 -16.455  -2.020  0.00  0.00     0.021 C 
ATOM      5  C   UNL d   1      25.438 -15.230  -1.891  0.00  0.00     0.050 A 
ATOM      6  C   UNL d   1      25.196 -14.141  -2.871  0.00  0.00     0.202 A 
ATOM      7  O   UNL d   1      24.290 -14.277  -3.714  0.00  0.00    -0.286 OA
ATOM      8  C   UNL d   1      26.084 -12.961  -2.811  0.00  0.00     0.101 A 
ATOM      9  C   UNL d   1      26.966 -12.912  -1.773  0.00  0.00     0.159 A 
ATOM     10  O   UNL d   1      27.099 -13.888  -0.788  0.00  0.00    -0.292 OA
ATOM     11  C   UNL d   1      26.396 -15.066  -0.881  0.00  0.00     0.102 A 
ENDROOT
BRANCH   1  12
ATOM     12  C   UNL d   1      27.570 -15.885   1.264  0.00  0.00     0.279 C 
BRANCH  12  13
ATOM     13  N   UNL d   1      29.042 -15.468   0.979  0.00  0.00    -0.063 N 
ATOM     14  C   UNL d   1      29.274 -13.969   1.175  0.00  0.00     0.235 C 
ATOM     15  C   UNL d   1      30.666 -13.493   0.841  0.00  0.00     0.028 C 
ATOM     16  C   UNL d   1      30.968 -13.865  -0.586  0.00  0.00     0.004 C 
ATOM     17  C   UNL d   1      30.947 -15.379  -0.661  0.00  0.00     0.033 C 
ATOM     18  C   UNL d   1      29.534 -15.929  -0.410  0.00  0.00     0.184 C 
ATOM     19  C   UNL d   1      29.583 -17.450  -0.555  0.00  0.00     0.040 C 
ATOM     20  H   UNL d   1      29.599 -15.950   1.696  0.00  0.00     0.280 HD
ENDBRANCH  12  13
ENDBRANCH   1  12
BRANCH   2  21
ATOM     21  O   UNL d   1      25.947 -18.349   0.756  0.00  0.00    -0.360 OA
ATOM     22  H   UNL d   1      26.852 -18.628   0.964  0.00  0.00     0.217 HD
ENDBRANCH   2  21
BRANCH   9  23
ATOM     23  N   UNL d   1      27.865 -11.875  -1.629  0.00  0.00    -0.379 N 
ATOM     24  H   UNL d   1      28.174 -11.467  -2.525  0.00  0.00     0.158 HD
ATOM     25  H   UNL d   1      27.723 -11.200  -0.892  0.00  0.00     0.158 HD
ENDBRANCH   9  23
BRANCH   8  26
ATOM     26  C   UNL d   1      26.034 -11.795  -3.674  0.00  0.00     0.113 C 
ATOM     27  N   UNL d   1      26.340 -10.575  -3.243  0.00  0.00    -0.243 NA
ATOM     28  C   UNL d   1      25.975  -9.726  -4.235  0.00  0.00     0.061 C 
ATOM     29  C   UNL d   1      24.780  -9.008  -4.389  0.00  0.00     0.029 C 
ATOM     30  C   UNL d   1      26.699  -9.972  -5.401  0.00  0.00     0.103 C 
ATOM     31  C   UNL d   1      24.535  -8.353  -5.602  0.00  0.00     0.002 C 
ATOM     32  C   UNL d   1      25.564  -8.192  -6.524  0.00  0.00    -0.002 C 
ATOM     33  C   UNL d   1      26.731  -8.962  -6.398  0.00  0.00     0.003 C 
ATOM     34  S   UNL d   1      25.905 -11.777  -5.466  0.00  0.00    -0.086 SA
ENDBRANCH   8  26
TORSDOF 5
ENDMDL
MODEL 5
REMARK VINA RESULT:    -7.942      1.533      2.319
REMARK INTER + INTRA:         -11.253
REMARK INTER:                  -9.434
REMARK INTRA:                  -1.819
REMARK CONF_INDEPENDENT:        1.492
REMARK UNBOUND:                -1.819
REMARK  5 active torsions:
REMARK  status: ('A' for Active; 'I' for Inactive)
REMARK    1  A    between atoms: N_7  and  C_8 
REMARK    2  A    between atoms: C_8  and  C_9 
REMARK    3  A    between atoms: C_10  and  O_11 
REMARK    4  A    between atoms: C_17  and  C_18 
REMARK    5  A    between atoms: C_27  and  N_28 
ROOT
ATOM      1  C   UNL d   1      27.332 -13.644   1.262  0.00  0.00     0.036 C 
ATOM      2  C   UNL d   1      27.160 -12.476   0.499  0.00  0.00     0.076 C 
ATOM      3  C   UNL d   1      27.322 -11.209   1.037  0.00  0.00     0.038 C 
ATOM      4  C   UNL d   1      27.360 -11.060   2.414  0.00  0.00     0.021 C 
ATOM      5  C   UNL d   1      27.554 -12.177   3.230  0.00  0.00     0.050 A 
ATOM      6  C   UNL d   1      27.820 -12.008   4.681  0.00  0.00     0.202 A 
ATOM      7  O   UNL d   1      27.716 -10.875   5.187  0.00  0.00    -0.286 OA
ATOM      8  C   UNL d   1      28.236 -13.205   5.441  0.00  0.00     0.101 A 
ATOM      9  C   UNL d   1      28.210 -14.393   4.773  0.00  0.00     0.159 A 
ATOM     10  O   UNL d   1      27.840 -14.553   3.439  0.00  0.00    -0.292 OA
ATOM     11  C   UNL d   1      27.582 -13.455   2.655  0.00  0.00     0.102 A 
ENDROOT
BRANCH   1  12
ATOM     12  C   UNL d   1      27.207 -15.029   0.648  0.00  0.00     0.279 C 
BRANCH  12  13
ATOM     13  N   UNL d   1      26.205 -15.214  -0.529  0.00  0.00    -0.063 N 
ATOM     14  C   UNL d   1      25.005 -16.080  -0.144  0.00  0.00     0.235 C 
ATOM     15  C   UNL d   1      24.036 -16.357  -1.267  0.00  0.00     0.028 C 
ATOM     16  C   UNL d   1      24.787 -17.011  -2.395  0.00  0.00     0.004 C 
ATOM     17  C   UNL d   1      25.813 -16.008  -2.883  0.00  0.00     0.033 C 
ATOM     18  C   UNL d   1      26.883 -15.741  -1.812  0.00  0.00     0.184 C 
ATOM     19  C   UNL d   1      27.906 -14.767  -2.394  0.00  0.00     0.040 C 
ATOM     20  H   UNL d   1      25.840 -14.272  -0.719  0.00  0.00     0.280 HD
ENDBRANCH  12  13
ENDBRANCH   1  12
BRANCH   2  21
ATOM     21  O   UNL d   1      26.758 -12.451  -0.805  0.00  0.00    -0.360 OA
ATOM     22  H   UNL d   1      26.596 -11.539  -1.092  0.00  0.00     0.217 HD
ENDBRANCH   2  21
BRANCH   9  23
ATOM     23  N   UNL d   1      28.605 -15.573   5.369  0.00  0.00    -0.379 N 
ATOM     24  H   UNL d   1      29.222 -16.150   4.777  0.00  0.00     0.158 HD
ATOM     25  H   UNL d   1      28.850 -15.571   6.348  0.00  0.00     0.158 HD
ENDBRANCH   9  23
BRANCH   8  26
ATOM     26  C   UNL d   1      28.556 -13.265   6.856  0.00  0.00     0.113 C 
ATOM     27  N   UNL d   1      29.426 -14.138   7.353  0.00  0.00    -0.243 NA
ATOM     28  C   UNL d   1      29.308 -14.056   8.702  0.00  0.00     0.061 C 
ATOM     29  C   UNL d   1      28.535 -14.839   9.571  0.00  0.00     0.029 C 
ATOM     30  C   UNL d   1      29.652 -12.784   9.161  0.00  0.00     0.103 C 
ATOM     31  C   UNL d   1      28.404 -14.439  10.907  0.00  0.00     0.002 C 
ATOM     32  C   UNL d   1      29.234 -13.449  11.420  0.00  0.00    -0.002 C 
ATOM     33  C   UNL d   1      29.954 -12.627  10.539  0.00  0.00     0.003 C 
ATOM     34  S   UNL d   1      28.155 -12.043   8.110  0.00  0.00    -0.086 SA
ENDBRANCH   8  26
TORSDOF 5
ENDMDL
MODEL 6
REMARK VINA RESULT:    -7.864      5.150     10.053
REMARK INTER + INTRA:         -11.146
REMARK INTER:                  -9.356
REMARK INTRA:                  -1.791
REMARK CONF_INDEPENDENT:        1.492
REMARK UNBOUND:                -1.791
REMARK  5 active torsions:
REMARK  status: ('A' for Active; 'I' for Inactive)
REMARK    1  A    between atoms: N_7  and  C_8 
REMARK    2  A    between atoms: C_8  and  C_9 
REMARK    3  A    between atoms: C_10  and  O_11 
REMARK    4  A    between atoms: C_17  and  C_18 
REMARK    5  A    between atoms: C_27  and  N_28 
ROOT
ATOM      1  C   UNL d   1      27.973 -14.499   0.132  0.00  0.00     0.036 C 
ATOM      2  C   UNL d   1      27.487 -15.817   0.143  0.00  0.00     0.076 C 
ATOM      3  C   UNL d   1      26.593 -16.285  -0.808  0.00  0.00     0.038 C 
ATOM      4  C   UNL d   1      25.925 -15.375  -1.610  0.00  0.00     0.021 C 
ATOM      5  C   UNL d   1      26.371 -14.053  -1.687  0.00  0.00     0.050 A 
ATOM      6  C   UNL d   1      25.810 -13.130  -2.705  0.00  0.00     0.202 A 
ATOM      7  O   UNL d   1      24.835 -13.500  -3.384  0.00  0.00    -0.286 OA
ATOM      8  C   UNL d   1      26.478 -11.823  -2.880  0.00  0.00     0.101 A 
ATOM      9  C   UNL d   1      27.472 -11.521  -1.998  0.00  0.00     0.159 A 
ATOM     10  O   UNL d   1      27.907 -12.351  -0.967  0.00  0.00    -0.292 OA
ATOM     11  C   UNL d   1      27.415 -13.629  -0.852  0.00  0.00     0.102 A 
ENDROOT
BRANCH   1  12
ATOM     12  C   UNL d   1      28.997 -14.013   1.147  0.00  0.00     0.279 C 
BRANCH  12  13
ATOM     13  N   UNL d   1      28.861 -14.516   2.614  0.00  0.00    -0.063 N 
ATOM     14  C   UNL d   1      27.559 -14.056   3.271  0.00  0.00     0.235 C 
ATOM     15  C   UNL d   1      27.405 -14.450   4.719  0.00  0.00     0.028 C 
ATOM     16  C   UNL d   1      28.577 -13.905   5.489  0.00  0.00     0.004 C 
ATOM     17  C   UNL d   1      29.819 -14.576   4.938  0.00  0.00     0.033 C 
ATOM     18  C   UNL d   1      30.083 -14.152   3.484  0.00  0.00     0.184 C 
ATOM     19  C   UNL d   1      31.374 -14.825   3.019  0.00  0.00     0.040 C 
ATOM     20  H   UNL d   1      28.809 -15.540   2.540  0.00  0.00     0.280 HD
ENDBRANCH  12  13
ENDBRANCH   1  12
BRANCH   2  21
ATOM     21  O   UNL d   1      27.776 -16.746   1.101  0.00  0.00    -0.360 OA
ATOM     22  H   UNL d   1      28.708 -17.009   1.047  0.00  0.00     0.217 HD
ENDBRANCH   2  21
BRANCH   9  23
ATOM     23  N   UNL d   1      28.187 -10.343  -2.080  0.00  0.00    -0.379 N 
ATOM     24  H   UNL d   1      28.916 -10.352  -2.810  0.00  0.00     0.158 HD
ATOM     25  H   UNL d   1      27.698  -9.465  -1.990  0.00  0.00     0.158 HD
ENDBRANCH   9  23
BRANCH   8  26
ATOM     26  C   UNL d   1      26.107 -10.780  -3.819  0.00  0.00     0.113 C 
ATOM     27  N   UNL d   1      26.120  -9.491  -3.494  0.00  0.00    -0.243 NA
ATOM     28  C   UNL d   1      25.517  -8.842  -4.521  0.00  0.00     0.061 C 
ATOM     29  C   UNL d   1      24.177  -8.450  -4.654  0.00  0.00     0.029 C 
ATOM     30  C   UNL d   1      26.232  -9.001  -5.708  0.00  0.00     0.103 C 
ATOM     31  C   UNL d   1      23.729  -7.978  -5.894  0.00  0.00     0.002 C 
ATOM     32  C   UNL d   1      24.648  -7.649  -6.885  0.00  0.00    -0.002 C 
ATOM     33  C   UNL d   1      25.973  -8.100  -6.774  0.00  0.00     0.003 C 
ATOM     34  S   UNL d   1      25.905 -10.944  -5.597  0.00  0.00    -0.086 SA
ENDBRANCH   8  26
TORSDOF 5
ENDMDL
MODEL 7
REMARK VINA RESULT:    -7.802      7.211      9.256
REMARK INTER + INTRA:         -11.418
REMARK INTER:                  -9.294
REMARK INTRA:                  -2.124
REMARK CONF_INDEPENDENT:        1.492
REMARK UNBOUND:                -2.124
REMARK  5 active torsions:
REMARK  status: ('A' for Active; 'I' for Inactive)
REMARK    1  A    between atoms: N_7  and  C_8 
REMARK    2  A    between atoms: C_8  and  C_9 
REMARK    3  A    between atoms: C_10  and  O_11 
REMARK    4  A    between atoms: C_17  and  C_18 
REMARK    5  A    between atoms: C_27  and  N_28 
ROOT
ATOM      1  C   UNL d   1      28.706 -15.104  -1.638  0.00  0.00     0.036 C 
ATOM      2  C   UNL d   1      29.928 -15.745  -1.373  0.00  0.00     0.076 C 
ATOM      3  C   UNL d   1      29.996 -17.062  -0.947  0.00  0.00     0.038 C 
ATOM      4  C   UNL d   1      28.848 -17.681  -0.480  0.00  0.00     0.021 C 
ATOM      5  C   UNL d   1      27.598 -17.110  -0.731  0.00  0.00     0.050 A 
ATOM      6  C   UNL d   1      26.355 -17.867  -0.438  0.00  0.00     0.202 A 
ATOM      7  O   UNL d   1      26.436 -18.948   0.173  0.00  0.00    -0.286 OA
ATOM      8  C   UNL d   1      25.081 -17.302  -0.931  0.00  0.00     0.101 A 
ATOM      9  C   UNL d   1      25.140 -16.064  -1.497  0.00  0.00     0.159 A 
ATOM     10  O   UNL d   1      26.301 -15.310  -1.656  0.00  0.00    -0.292 OA
ATOM     11  C   UNL d   1      27.526 -15.850  -1.343  0.00  0.00     0.102 A 
ENDROOT
BRANCH   1  12
ATOM     12  C   UNL d   1      28.645 -13.676  -2.160  0.00  0.00     0.279 C 
BRANCH  12  13
ATOM     13  N   UNL d   1      27.292 -13.171  -2.739  0.00  0.00    -0.063 N 
ATOM     14  C   UNL d   1      26.918 -13.871  -4.047  0.00  0.00     0.235 C 
ATOM     15  C   UNL d   1      25.651 -13.370  -4.695  0.00  0.00     0.028 C 
ATOM     16  C   UNL d   1      25.793 -11.891  -4.939  0.00  0.00     0.004 C 
ATOM     17  C   UNL d   1      25.932 -11.231  -3.582  0.00  0.00     0.033 C 
ATOM     18  C   UNL d   1      27.247 -11.636  -2.898  0.00  0.00     0.184 C 
ATOM     19  C   UNL d   1      27.339 -10.892  -1.566  0.00  0.00     0.040 C 
ATOM     20  H   UNL d   1      26.586 -13.446  -2.044  0.00  0.00     0.280 HD
ENDBRANCH  12  13
ENDBRANCH   1  12
BRANCH   2  21
ATOM     21  O   UNL d   1      31.152 -15.144  -1.437  0.00  0.00    -0.360 OA
ATOM     22  H   UNL d   1      31.835 -15.728  -1.072  0.00  0.00     0.217 HD
ENDBRANCH   2  21
BRANCH   9  23
ATOM     23  N   UNL d   1      24.021 -15.447  -2.019  0.00  0.00    -0.379 N 
ATOM     24  H   UNL d   1      23.158 -15.635  -1.486  0.00  0.00     0.158 HD
ATOM     25  H   UNL d   1      24.098 -14.502  -2.367  0.00  0.00     0.158 HD
ENDBRANCH   9  23
BRANCH   8  26
ATOM     26  C   UNL d   1      23.758 -17.877  -0.768  0.00  0.00     0.113 C 
ATOM     27  N   UNL d   1      22.771 -17.232  -0.154  0.00  0.00    -0.243 NA
ATOM     28  C   UNL d   1      21.775 -18.139   0.004  0.00  0.00     0.061 C 
ATOM     29  C   UNL d   1      21.484 -18.950   1.111  0.00  0.00     0.029 C 
ATOM     30  C   UNL d   1      21.303 -18.590  -1.229  0.00  0.00     0.103 C 
ATOM     31  C   UNL d   1      20.532 -19.967   0.974  0.00  0.00     0.002 C 
ATOM     32  C   UNL d   1      19.703 -19.996  -0.142  0.00  0.00    -0.002 C 
ATOM     33  C   UNL d   1      20.037 -19.230  -1.270  0.00  0.00     0.003 C 
ATOM     34  S   UNL d   1      23.096 -19.324  -1.602  0.00  0.00    -0.086 SA
ENDBRANCH   8  26
TORSDOF 5
ENDMDL
MODEL 8
REMARK VINA RESULT:    -7.711      6.394      8.350
REMARK INTER + INTRA:         -11.256
REMARK INTER:                  -9.203
REMARK INTRA:                  -2.053
REMARK CONF_INDEPENDENT:        1.492
REMARK UNBOUND:                -2.053
REMARK  5 active torsions:
REMARK  status: ('A' for Active; 'I' for Inactive)
REMARK    1  A    between atoms: N_7  and  C_8 
REMARK    2  A    between atoms: C_8  and  C_9 
REMARK    3  A    between atoms: C_10  and  O_11 
REMARK    4  A    between atoms: C_17  and  C_18 
REMARK    5  A    between atoms: C_27  and  N_28 
ROOT
ATOM      1  C   UNL d   1      31.851 -16.586  -0.829  0.00  0.00     0.036 C 
ATOM      2  C   UNL d   1      32.473 -15.387  -1.219  0.00  0.00     0.076 C 
ATOM      3  C   UNL d   1      31.750 -14.255  -1.559  0.00  0.00     0.038 C 
ATOM      4  C   UNL d   1      30.394 -14.371  -1.815  0.00  0.00     0.021 C 
ATOM      5  C   UNL d   1      29.709 -15.526  -1.431  0.00  0.00     0.050 A 
ATOM      6  C   UNL d   1      28.226 -15.575  -1.493  0.00  0.00     0.202 A 
ATOM      7  O   UNL d   1      27.613 -14.636  -2.034  0.00  0.00    -0.286 OA
ATOM      8  C   UNL d   1      27.556 -16.733  -0.867  0.00  0.00     0.101 A 
ATOM      9  C   UNL d   1      28.363 -17.728  -0.401  0.00  0.00     0.159 A 
ATOM     10  O   UNL d   1      29.755 -17.724  -0.459  0.00  0.00    -0.292 OA
ATOM     11  C   UNL d   1      30.426 -16.609  -0.903  0.00  0.00     0.102 A 
ENDROOT
BRANCH   1  12
ATOM     12  C   UNL d   1      32.655 -17.805  -0.404  0.00  0.00     0.279 C 
BRANCH  12  13
ATOM     13  N   UNL d   1      32.139 -18.627   0.814  0.00  0.00    -0.063 N 
ATOM     14  C   UNL d   1      32.743 -18.154   2.136  0.00  0.00     0.235 C 
ATOM     15  C   UNL d   1      32.337 -18.962   3.344  0.00  0.00     0.028 C 
ATOM     16  C   UNL d   1      32.714 -20.399   3.105  0.00  0.00     0.004 C 
ATOM     17  C   UNL d   1      31.905 -20.875   1.915  0.00  0.00     0.033 C 
ATOM     18  C   UNL d   1      32.327 -20.148   0.628  0.00  0.00     0.184 C 
ATOM     19  C   UNL d   1      31.509 -20.718  -0.530  0.00  0.00     0.040 C 
ATOM     20  H   UNL d   1      31.131 -18.428   0.861  0.00  0.00     0.280 HD
ENDBRANCH  12  13
ENDBRANCH   1  12
BRANCH   2  21
ATOM     21  O   UNL d   1      33.820 -15.222  -1.369  0.00  0.00    -0.360 OA
ATOM     22  H   UNL d   1      34.087 -14.337  -1.077  0.00  0.00     0.217 HD
ENDBRANCH   2  21
BRANCH   9  23
ATOM     23  N   UNL d   1      27.853 -18.845   0.230  0.00  0.00    -0.379 N 
ATOM     24  H   UNL d   1      26.887 -19.074  -0.051  0.00  0.00     0.158 HD
ATOM     25  H   UNL d   1      28.449 -19.649   0.364  0.00  0.00     0.158 HD
ENDBRANCH   9  23
BRANCH   8  26
ATOM     26  C   UNL d   1      26.126 -16.976  -0.801  0.00  0.00     0.113 C 
ATOM     27  N   UNL d   1      25.531 -17.438   0.294  0.00  0.00    -0.243 NA
ATOM     28  C   UNL d   1      24.262 -17.745  -0.073  0.00  0.00     0.061 C 
ATOM     29  C   UNL d   1      23.732 -18.980  -0.476  0.00  0.00     0.029 C 
ATOM     30  C   UNL d   1      23.572 -16.610  -0.500  0.00  0.00     0.103 C 
ATOM     31  C   UNL d   1      22.439 -19.018  -1.012  0.00  0.00     0.002 C 
ATOM     32  C   UNL d   1      21.605 -17.912  -0.895  0.00  0.00    -0.002 C 
ATOM     33  C   UNL d   1      22.155 -16.666  -0.553  0.00  0.00     0.003 C 
ATOM     34  S   UNL d   1      24.878 -16.417  -1.967  0.00  0.00    -0.086 SA
ENDBRANCH   8  26
TORSDOF 5
ENDMDL
MODEL 9
REMARK VINA RESULT:    -7.446      7.338      8.530
REMARK INTER + INTRA:         -11.162
REMARK INTER:                  -8.938
REMARK INTRA:                  -2.225
REMARK CONF_INDEPENDENT:        1.492
REMARK UNBOUND:                -2.225
REMARK  5 active torsions:
REMARK  status: ('A' for Active; 'I' for Inactive)
REMARK    1  A    between atoms: N_7  and  C_8 
REMARK    2  A    between atoms: C_8  and  C_9 
REMARK    3  A    between atoms: C_10  and  O_11 
REMARK    4  A    between atoms: C_17  and  C_18 
REMARK    5  A    between atoms: C_27  and  N_28 
ROOT
ATOM      1  C   UNL d   1      28.457 -13.926  -3.108  0.00  0.00     0.036 C 
ATOM      2  C   UNL d   1      28.278 -12.702  -3.776  0.00  0.00     0.076 C 
ATOM      3  C   UNL d   1      27.027 -12.134  -3.959  0.00  0.00     0.038 C 
ATOM      4  C   UNL d   1      25.898 -12.909  -3.754  0.00  0.00     0.021 C 
ATOM      5  C   UNL d   1      26.001 -14.126  -3.074  0.00  0.00     0.050 A 
ATOM      6  C   UNL d   1      24.779 -14.854  -2.651  0.00  0.00     0.202 A 
ATOM      7  O   UNL d   1      23.668 -14.450  -3.042  0.00  0.00    -0.286 OA
ATOM      8  C   UNL d   1      24.954 -16.011  -1.748  0.00  0.00     0.101 A 
ATOM      9  C   UNL d   1      26.235 -16.393  -1.485  0.00  0.00     0.159 A 
ATOM     10  O   UNL d   1      27.376 -15.770  -1.988  0.00  0.00    -0.292 OA
ATOM     11  C   UNL d   1      27.267 -14.610  -2.717  0.00  0.00     0.102 A 
ENDROOT
BRANCH   1  12
ATOM     12  C   UNL d   1      29.839 -14.512  -2.864  0.00  0.00     0.279 C 
BRANCH  12  13
ATOM     13  N   UNL d   1      29.933 -16.020  -2.487  0.00  0.00    -0.063 N 
ATOM     14  C   UNL d   1      30.554 -16.240  -1.107  0.00  0.00     0.235 C 
ATOM     15  C   UNL d   1      30.739 -17.685  -0.718  0.00  0.00     0.028 C 
ATOM     16  C   UNL d   1      31.589 -18.356  -1.764  0.00  0.00     0.004 C 
ATOM     17  C   UNL d   1      30.811 -18.304  -3.064  0.00  0.00     0.033 C 
ATOM     18  C   UNL d   1      30.655 -16.858  -3.563  0.00  0.00     0.184 C 
ATOM     19  C   UNL d   1      29.912 -16.894  -4.897  0.00  0.00     0.040 C 
ATOM     20  H   UNL d   1      28.958 -16.340  -2.427  0.00  0.00     0.280 HD
ENDBRANCH  12  13
ENDBRANCH   1  12
BRANCH   2  21
ATOM     21  O   UNL d   1      29.278 -11.984  -4.366  0.00  0.00    -0.360 OA
ATOM     22  H   UNL d   1      29.045 -11.043  -4.398  0.00  0.00     0.217 HD
ENDBRANCH   2  21
BRANCH   9  23
ATOM     23  N   UNL d   1      26.524 -17.439  -0.632  0.00  0.00    -0.379 N 
ATOM     24  H   UNL d   1      26.637 -17.152   0.352  0.00  0.00     0.158 HD
ATOM     25  H   UNL d   1      26.048 -18.321  -0.757  0.00  0.00     0.158 HD
ENDBRANCH   9  23
BRANCH   8  26
ATOM     26  C   UNL d   1      23.903 -16.853  -1.205  0.00  0.00     0.113 C 
ATOM     27  N   UNL d   1      23.971 -18.181  -1.226  0.00  0.00    -0.243 NA
ATOM     28  C   UNL d   1      22.747 -18.623  -0.847  0.00  0.00     0.061 C 
ATOM     29  C   UNL d   1      21.657 -19.001  -1.645  0.00  0.00     0.029 C 
ATOM     30  C   UNL d   1      22.446 -18.221   0.455  0.00  0.00     0.103 C 
ATOM     31  C   UNL d   1      20.417 -19.225  -1.034  0.00  0.00     0.002 C 
ATOM     32  C   UNL d   1      20.334 -19.337   0.349  0.00  0.00    -0.002 C 
ATOM     33  C   UNL d   1      21.405 -18.897   1.142  0.00  0.00     0.003 C 
ATOM     34  S   UNL d   1      22.544 -16.344  -0.145  0.00  0.00    -0.086 SA
ENDBRANCH   8  26
TORSDOF 5
ENDMDL
