MODEL 1
REMARK VINA RESULT:    -8.511      0.000      0.000
REMARK INTER + INTRA:         -10.710
REMARK INTER:                  -9.406
REMARK INTRA:                  -1.304
REMARK CONF_INDEPENDENT:        0.895
REMARK UNBOUND:                -1.304
REMARK  3 active torsions:
REMARK  status: ('A' for Active; 'I' for Inactive)
REMARK       I    between atoms: C_2  and  N_3 
REMARK    1  A    between atoms: C_2  and  C_11 
REMARK    2  A    between atoms: N_3  and  N_4 
REMARK       I    between atoms: N_4  and  C_5 
REMARK    3  A    between atoms: C_5  and  C_7 
ROOT
ATOM      1  O   UNL d   1      24.462 -18.199   0.977  0.00  0.00    -0.266 OA
ATOM      2  C   UNL d   1      24.015 -17.824  -0.107  0.00  0.00     0.271 C 
ATOM      3  N   UNL d   1      22.820 -18.280  -0.632  0.00  0.00    -0.263 N 
ATOM      4  H   UNL d   1      22.425 -17.947  -1.512  0.00  0.00     0.190 HD
ENDROOT
BRANCH   2   5
ATOM      5  C   UNL d   1      24.801 -16.857  -0.935  0.00  0.00     0.055 A 
ATOM      6  C   UNL d   1      24.096 -15.957  -1.758  0.00  0.00     0.020 A 
ATOM      7  C   UNL d   1      24.780 -15.052  -2.585  0.00  0.00     0.025 A 
ATOM      8  C   UNL d   1      26.172 -15.054  -2.608  0.00  0.00     0.035 A 
ATOM      9 CL   UNL d   1      27.016 -13.954  -3.627  0.00  0.00    -0.084 Cl
ATOM     10  C   UNL d   1      26.884 -15.950  -1.816  0.00  0.00     0.048 A 
ATOM     11  C   UNL d   1      26.203 -16.850  -0.981  0.00  0.00     0.051 A 
ATOM     12 CL   UNL d   1      27.175 -17.957  -0.078  0.00  0.00    -0.083 Cl
ENDBRANCH   2   5
BRANCH   3  13
ATOM     13  N   UNL d   1      21.981 -19.127   0.130  0.00  0.00    -0.267 N 
ATOM     14  C   UNL d   1      20.837 -19.636  -0.480  0.00  0.00     0.240 C 
ATOM     15  O   UNL d   1      20.572 -19.328  -1.650  0.00  0.00    -0.271 OA
ATOM     16  H   UNL d   1      22.263 -19.322   1.088  0.00  0.00     0.190 HD
BRANCH  14  17
ATOM     17  C   UNL d   1      19.953 -20.598   0.390  0.00  0.00     0.079 C 
ATOM     18  C   UNL d   1      19.694 -20.154   1.866  0.00  0.00     0.014 C 
ATOM     19  C   UNL d   1      18.245 -20.652   1.721  0.00  0.00     0.002 C 
ATOM     20  C   UNL d   1      18.408 -20.468   0.201  0.00  0.00     0.014 C 
ENDBRANCH  14  17
ENDBRANCH   3  13
TORSDOF 3
ENDMDL
MODEL 2
REMARK VINA RESULT:    -8.243      1.536      2.353
REMARK INTER + INTRA:          -9.626
REMARK INTER:                  -9.138
REMARK INTRA:                  -0.488
REMARK CONF_INDEPENDENT:        0.895
REMARK UNBOUND:                -0.488
REMARK  3 active torsions:
REMARK  status: ('A' for Active; 'I' for Inactive)
REMARK       I    between atoms: C_2  and  N_3 
REMARK    1  A    between atoms: C_2  and  C_11 
REMARK    2  A    between atoms: N_3  and  N_4 
REMARK       I    between atoms: N_4  and  C_5 
REMARK    3  A    between atoms: C_5  and  C_7 
ROOT
ATOM      1  O   UNL d   1      22.743 -16.616  -0.744  0.00  0.00    -0.266 OA
ATOM      2  C   UNL d   1      23.572 -17.442  -0.359  0.00  0.00     0.271 C 
ATOM      3  N   UNL d   1      23.236 -18.562   0.379  0.00  0.00    -0.263 N 
ATOM      4  H   UNL d   1      23.912 -19.269   0.670  0.00  0.00     0.190 HD
ENDROOT
BRANCH   2   5
ATOM      5  C   UNL d   1      25.021 -17.226  -0.657  0.00  0.00     0.055 A 
ATOM      6  C   UNL d   1      25.967 -18.004   0.040  0.00  0.00     0.020 A 
ATOM      7  C   UNL d   1      27.343 -17.820  -0.170  0.00  0.00     0.025 A 
ATOM      8  C   UNL d   1      27.782 -16.846  -1.062  0.00  0.00     0.035 A 
ATOM      9 CL   UNL d   1      29.468 -16.610  -1.317  0.00  0.00    -0.084 Cl
ATOM     10  C   UNL d   1      26.861 -16.055  -1.744  0.00  0.00     0.048 A 
ATOM     11  C   UNL d   1      25.484 -16.243  -1.544  0.00  0.00     0.051 A 
ATOM     12 CL   UNL d   1      24.424 -15.176  -2.395  0.00  0.00    -0.083 Cl
ENDBRANCH   2   5
BRANCH   3  13
ATOM     13  N   UNL d   1      21.880 -18.877   0.625  0.00  0.00    -0.267 N 
ATOM     14  C   UNL d   1      21.094 -19.275  -0.454  0.00  0.00     0.240 C 
ATOM     15  O   UNL d   1      21.584 -19.324  -1.590  0.00  0.00    -0.271 OA
ATOM     16  H   UNL d   1      21.551 -18.801   1.585  0.00  0.00     0.190 HD
BRANCH  14  17
ATOM     17  C   UNL d   1      19.604 -19.648  -0.131  0.00  0.00     0.079 C 
ATOM     18  C   UNL d   1      19.329 -21.144   0.232  0.00  0.00     0.014 C 
ATOM     19  C   UNL d   1      18.345 -20.659   1.312  0.00  0.00     0.002 C 
ATOM     20  C   UNL d   1      19.115 -19.326   1.316  0.00  0.00     0.014 C 
ENDBRANCH  14  17
ENDBRANCH   3  13
TORSDOF 3
ENDMDL
MODEL 3
REMARK VINA RESULT:    -7.373      1.951      2.475
REMARK INTER + INTRA:          -9.598
REMARK INTER:                  -8.268
REMARK INTRA:                  -1.331
REMARK CONF_INDEPENDENT:        0.895
REMARK UNBOUND:                -1.331
REMARK  3 active torsions:
REMARK  status: ('A' for Active; 'I' for Inactive)
REMARK       I    between atoms: C_2  and  N_3 
REMARK    1  A    between atoms: C_2  and  C_11 
REMARK    2  A    between atoms: N_3  and  N_4 
REMARK       I    between atoms: N_4  and  C_5 
REMARK    3  A    between atoms: C_5  and  C_7 
ROOT
ATOM      1  O   UNL d   1      25.787 -18.851  -0.040  0.00  0.00    -0.266 OA
ATOM      2  C   UNL d   1      25.267 -17.739  -0.142  0.00  0.00     0.271 C 
ATOM      3  N   UNL d   1      23.901 -17.552  -0.250  0.00  0.00    -0.263 N 
ATOM      4  H   UNL d   1      23.459 -16.633  -0.299  0.00  0.00     0.190 HD
ENDROOT
BRANCH   2   5
ATOM      5  C   UNL d   1      26.132 -16.521  -0.193  0.00  0.00     0.055 A 
ATOM      6  C   UNL d   1      27.103 -16.351   0.814  0.00  0.00     0.020 A 
ATOM      7  C   UNL d   1      27.919 -15.209   0.841  0.00  0.00     0.025 A 
ATOM      8  C   UNL d   1      27.758 -14.222  -0.129  0.00  0.00     0.035 A 
ATOM      9 CL   UNL d   1      28.749 -12.816  -0.097  0.00  0.00    -0.084 Cl
ATOM     10  C   UNL d   1      26.791 -14.366  -1.120  0.00  0.00     0.048 A 
ATOM     11  C   UNL d   1      25.979 -15.511  -1.154  0.00  0.00     0.051 A 
ATOM     12 CL   UNL d   1      24.773 -15.570  -2.390  0.00  0.00    -0.083 Cl
ENDBRANCH   2   5
BRANCH   3  13
ATOM     13  N   UNL d   1      23.016 -18.647  -0.123  0.00  0.00    -0.267 N 
ATOM     14  C   UNL d   1      21.685 -18.459  -0.490  0.00  0.00     0.240 C 
ATOM     15  O   UNL d   1      21.306 -17.352  -0.895  0.00  0.00    -0.271 OA
ATOM     16  H   UNL d   1      23.403 -19.520   0.229  0.00  0.00     0.190 HD
BRANCH  14  17
ATOM     17  C   UNL d   1      20.745 -19.710  -0.364  0.00  0.00     0.079 C 
ATOM     18  C   UNL d   1      20.235 -20.051   1.074  0.00  0.00     0.014 C 
ATOM     19  C   UNL d   1      18.862 -20.386   0.465  0.00  0.00     0.002 C 
ATOM     20  C   UNL d   1      19.242 -19.476  -0.718  0.00  0.00     0.014 C 
ENDBRANCH  14  17
ENDBRANCH   3  13
TORSDOF 3
ENDMDL
MODEL 4
REMARK VINA RESULT:    -6.761      3.841      8.020
REMARK INTER + INTRA:          -9.034
REMARK INTER:                  -7.656
REMARK INTRA:                  -1.378
REMARK CONF_INDEPENDENT:        0.895
REMARK UNBOUND:                -1.378
REMARK  3 active torsions:
REMARK  status: ('A' for Active; 'I' for Inactive)
REMARK       I    between atoms: C_2  and  N_3 
REMARK    1  A    between atoms: C_2  and  C_11 
REMARK    2  A    between atoms: N_3  and  N_4 
REMARK       I    between atoms: N_4  and  C_5 
REMARK    3  A    between atoms: C_5  and  C_7 
ROOT
ATOM      1  O   UNL d   1      26.341 -15.358  -0.614  0.00  0.00    -0.266 OA
ATOM      2  C   UNL d   1      25.649 -15.942  -1.448  0.00  0.00     0.271 C 
ATOM      3  N   UNL d   1      25.820 -15.792  -2.811  0.00  0.00    -0.263 N 
ATOM      4  H   UNL d   1      25.275 -16.301  -3.509  0.00  0.00     0.190 HD
ENDROOT
BRANCH   2   5
ATOM      5  C   UNL d   1      24.537 -16.832  -0.991  0.00  0.00     0.055 A 
ATOM      6  C   UNL d   1      23.213 -16.440  -1.270  0.00  0.00     0.020 A 
ATOM      7  C   UNL d   1      22.127 -17.215  -0.833  0.00  0.00     0.025 A 
ATOM      8  C   UNL d   1      22.357 -18.375  -0.099  0.00  0.00     0.035 A 
ATOM      9 CL   UNL d   1      21.030 -19.325   0.448  0.00  0.00    -0.084 Cl
ATOM     10  C   UNL d   1      23.659 -18.766   0.202  0.00  0.00     0.048 A 
ATOM     11  C   UNL d   1      24.748 -17.999  -0.241  0.00  0.00     0.051 A 
ATOM     12 CL   UNL d   1      26.320 -18.538   0.230  0.00  0.00    -0.083 Cl
ENDBRANCH   2   5
BRANCH   3  13
ATOM     13  N   UNL d   1      26.903 -15.037  -3.318  0.00  0.00    -0.267 N 
ATOM     14  C   UNL d   1      27.064 -14.969  -4.700  0.00  0.00     0.240 C 
ATOM     15  O   UNL d   1      26.282 -15.575  -5.444  0.00  0.00    -0.271 OA
ATOM     16  H   UNL d   1      27.509 -14.578  -2.641  0.00  0.00     0.190 HD
BRANCH  14  17
ATOM     17  C   UNL d   1      28.259 -14.093  -5.220  0.00  0.00     0.079 C 
ATOM     18  C   UNL d   1      29.236 -14.783  -6.226  0.00  0.00     0.014 C 
ATOM     19  C   UNL d   1      29.292 -13.462  -7.016  0.00  0.00     0.002 C 
ATOM     20  C   UNL d   1      27.931 -13.110  -6.389  0.00  0.00     0.014 C 
ENDBRANCH  14  17
ENDBRANCH   3  13
TORSDOF 3
ENDMDL
MODEL 5
REMARK VINA RESULT:    -6.618      3.593      5.469
REMARK INTER + INTRA:          -8.930
REMARK INTER:                  -7.513
REMARK INTRA:                  -1.417
REMARK CONF_INDEPENDENT:        0.895
REMARK UNBOUND:                -1.417
REMARK  3 active torsions:
REMARK  status: ('A' for Active; 'I' for Inactive)
REMARK       I    between atoms: C_2  and  N_3 
REMARK    1  A    between atoms: C_2  and  C_11 
REMARK    2  A    between atoms: N_3  and  N_4 
REMARK       I    between atoms: N_4  and  C_5 
REMARK    3  A    between atoms: C_5  and  C_7 
ROOT
ATOM      1  O   UNL d   1      24.405 -14.272  -4.252  0.00  0.00    -0.266 OA
ATOM      2  C   UNL d   1      25.542 -14.699  -4.048  0.00  0.00     0.271 C 
ATOM      3  N   UNL d   1      25.848 -15.571  -3.020  0.00  0.00    -0.263 N 
ATOM      4  H   UNL d   1      26.780 -15.958  -2.866  0.00  0.00     0.190 HD
ENDROOT
BRANCH   2   5
ATOM      5  C   UNL d   1      26.670 -14.236  -4.913  0.00  0.00     0.055 A 
ATOM      6  C   UNL d   1      27.579 -15.200  -5.395  0.00  0.00     0.020 A 
ATOM      7  C   UNL d   1      28.679 -14.821  -6.180  0.00  0.00     0.025 A 
ATOM      8  C   UNL d   1      28.888 -13.477  -6.474  0.00  0.00     0.035 A 
ATOM      9 CL   UNL d   1      30.240 -13.005  -7.429  0.00  0.00    -0.084 Cl
ATOM     10  C   UNL d   1      28.011 -12.510  -5.990  0.00  0.00     0.048 A 
ATOM     11  C   UNL d   1      26.905 -12.886  -5.212  0.00  0.00     0.051 A 
ATOM     12 CL   UNL d   1      25.907 -11.608  -4.615  0.00  0.00    -0.083 Cl
ENDBRANCH   2   5
BRANCH   3  13
ATOM     13  N   UNL d   1      24.822 -16.119  -2.216  0.00  0.00    -0.267 N 
ATOM     14  C   UNL d   1      25.173 -17.077  -1.269  0.00  0.00     0.240 C 
ATOM     15  O   UNL d   1      26.353 -17.440  -1.165  0.00  0.00    -0.271 OA
ATOM     16  H   UNL d   1      23.876 -15.777  -2.372  0.00  0.00     0.190 HD
BRANCH  14  17
ATOM     17  C   UNL d   1      24.009 -17.634  -0.375  0.00  0.00     0.079 C 
ATOM     18  C   UNL d   1      22.625 -16.921  -0.520  0.00  0.00     0.014 C 
ATOM     19  C   UNL d   1      21.949 -18.301  -0.430  0.00  0.00     0.002 C 
ATOM     20  C   UNL d   1      23.280 -18.907  -0.912  0.00  0.00     0.014 C 
ENDBRANCH  14  17
ENDBRANCH   3  13
TORSDOF 3
ENDMDL
MODEL 6
REMARK VINA RESULT:    -6.197      5.045      8.757
REMARK INTER + INTRA:          -8.561
REMARK INTER:                  -7.092
REMARK INTRA:                  -1.469
REMARK CONF_INDEPENDENT:        0.895
REMARK UNBOUND:                -1.469
REMARK  3 active torsions:
REMARK  status: ('A' for Active; 'I' for Inactive)
REMARK       I    between atoms: C_2  and  N_3 
REMARK    1  A    between atoms: C_2  and  C_11 
REMARK    2  A    between atoms: N_3  and  N_4 
REMARK       I    between atoms: N_4  and  C_5 
REMARK    3  A    between atoms: C_5  and  C_7 
ROOT
ATOM      1  O   UNL d   1      24.776 -14.264  -4.645  0.00  0.00    -0.266 OA
ATOM      2  C   UNL d   1      25.341 -13.994  -3.585  0.00  0.00     0.271 C 
ATOM      3  N   UNL d   1      25.802 -12.728  -3.276  0.00  0.00    -0.263 N 
ATOM      4  H   UNL d   1      26.238 -12.487  -2.385  0.00  0.00     0.190 HD
ENDROOT
BRANCH   2   5
ATOM      5  C   UNL d   1      25.586 -15.076  -2.583  0.00  0.00     0.055 A 
ATOM      6  C   UNL d   1      24.485 -15.577  -1.860  0.00  0.00     0.020 A 
ATOM      7  C   UNL d   1      24.659 -16.567  -0.880  0.00  0.00     0.025 A 
ATOM      8  C   UNL d   1      25.935 -17.048  -0.603  0.00  0.00     0.035 A 
ATOM      9 CL   UNL d   1      26.156 -18.255   0.605  0.00  0.00    -0.084 Cl
ATOM     10  C   UNL d   1      27.037 -16.550  -1.294  0.00  0.00     0.048 A 
ATOM     11  C   UNL d   1      26.865 -15.567  -2.281  0.00  0.00     0.051 A 
ATOM     12 CL   UNL d   1      28.298 -14.975  -3.043  0.00  0.00    -0.083 Cl
ENDBRANCH   2   5
BRANCH   3  13
ATOM     13  N   UNL d   1      25.530 -11.637  -4.134  0.00  0.00    -0.267 N 
ATOM     14  C   UNL d   1      26.046 -10.390  -3.792  0.00  0.00     0.240 C 
ATOM     15  O   UNL d   1      26.705 -10.258  -2.751  0.00  0.00    -0.271 OA
ATOM     16  H   UNL d   1      24.971 -11.826  -4.963  0.00  0.00     0.190 HD
BRANCH  14  17
ATOM     17  C   UNL d   1      25.748  -9.215  -4.789  0.00  0.00     0.079 C 
ATOM     18  C   UNL d   1      25.156  -9.620  -6.178  0.00  0.00     0.014 C 
ATOM     19  C   UNL d   1      24.229  -8.393  -6.096  0.00  0.00     0.002 C 
ATOM     20  C   UNL d   1      24.405  -8.450  -4.567  0.00  0.00     0.014 C 
ENDBRANCH  14  17
ENDBRANCH   3  13
TORSDOF 3
ENDMDL
MODEL 7
REMARK VINA RESULT:    -6.036      3.388      5.144
REMARK INTER + INTRA:          -8.436
REMARK INTER:                  -6.931
REMARK INTRA:                  -1.505
REMARK CONF_INDEPENDENT:        0.895
REMARK UNBOUND:                -1.505
REMARK  3 active torsions:
REMARK  status: ('A' for Active; 'I' for Inactive)
REMARK       I    between atoms: C_2  and  N_3 
REMARK    1  A    between atoms: C_2  and  C_11 
REMARK    2  A    between atoms: N_3  and  N_4 
REMARK       I    between atoms: N_4  and  C_5 
REMARK    3  A    between atoms: C_5  and  C_7 
ROOT
ATOM      1  O   UNL d   1      23.580 -14.075  -3.883  0.00  0.00    -0.266 OA
ATOM      2  C   UNL d   1      24.757 -14.096  -3.521  0.00  0.00     0.271 C 
ATOM      3  N   UNL d   1      25.230 -14.945  -2.538  0.00  0.00    -0.263 N 
ATOM      4  H   UNL d   1      26.210 -14.995  -2.258  0.00  0.00     0.190 HD
ENDROOT
BRANCH   2   5
ATOM      5  C   UNL d   1      25.733 -13.141  -4.130  0.00  0.00     0.055 A 
ATOM      6  C   UNL d   1      25.544 -11.762  -3.906  0.00  0.00     0.020 A 
ATOM      7  C   UNL d   1      26.405 -10.816  -4.483  0.00  0.00     0.025 A 
ATOM      8  C   UNL d   1      27.449 -11.239  -5.301  0.00  0.00     0.035 A 
ATOM      9 CL   UNL d   1      28.503 -10.083  -6.018  0.00  0.00    -0.084 Cl
ATOM     10  C   UNL d   1      27.638 -12.596  -5.548  0.00  0.00     0.048 A 
ATOM     11  C   UNL d   1      26.784 -13.546  -4.966  0.00  0.00     0.051 A 
ATOM     12 CL   UNL d   1      27.068 -15.200  -5.377  0.00  0.00    -0.083 Cl
ENDBRANCH   2   5
BRANCH   3  13
ATOM     13  N   UNL d   1      24.388 -15.934  -1.980  0.00  0.00    -0.267 N 
ATOM     14  C   UNL d   1      24.951 -16.852  -1.097  0.00  0.00     0.240 C 
ATOM     15  O   UNL d   1      26.161 -16.798  -0.839  0.00  0.00    -0.271 OA
ATOM     16  H   UNL d   1      23.407 -15.918  -2.252  0.00  0.00     0.190 HD
BRANCH  14  17
ATOM     17  C   UNL d   1      23.973 -17.911  -0.475  0.00  0.00     0.079 C 
ATOM     18  C   UNL d   1      22.531 -17.409  -0.142  0.00  0.00     0.014 C 
ATOM     19  C   UNL d   1      21.987 -18.754  -0.657  0.00  0.00     0.002 C 
ATOM     20  C   UNL d   1      23.280 -18.881  -1.483  0.00  0.00     0.014 C 
ENDBRANCH  14  17
ENDBRANCH   3  13
TORSDOF 3
ENDMDL
MODEL 8
REMARK VINA RESULT:    -5.898      4.611      8.843
REMARK INTER + INTRA:          -8.197
REMARK INTER:                  -6.793
REMARK INTRA:                  -1.404
REMARK CONF_INDEPENDENT:        0.895
REMARK UNBOUND:                -1.404
REMARK  3 active torsions:
REMARK  status: ('A' for Active; 'I' for Inactive)
REMARK       I    between atoms: C_2  and  N_3 
REMARK    1  A    between atoms: C_2  and  C_11 
REMARK    2  A    between atoms: N_3  and  N_4 
REMARK       I    between atoms: N_4  and  C_5 
REMARK    3  A    between atoms: C_5  and  C_7 
ROOT
ATOM      1  O   UNL d   1      28.295 -15.716  -1.124  0.00  0.00    -0.266 OA
ATOM      2  C   UNL d   1      27.377 -15.950  -1.912  0.00  0.00     0.271 C 
ATOM      3  N   UNL d   1      27.466 -15.707  -3.270  0.00  0.00    -0.263 N 
ATOM      4  H   UNL d   1      26.725 -15.933  -3.934  0.00  0.00     0.190 HD
ENDROOT
BRANCH   2   5
ATOM      5  C   UNL d   1      26.081 -16.487  -1.395  0.00  0.00     0.055 A 
ATOM      6  C   UNL d   1      26.112 -17.643  -0.590  0.00  0.00     0.020 A 
ATOM      7  C   UNL d   1      24.925 -18.216  -0.107  0.00  0.00     0.025 A 
ATOM      8  C   UNL d   1      23.699 -17.647  -0.440  0.00  0.00     0.035 A 
ATOM      9 CL   UNL d   1      22.239 -18.349   0.141  0.00  0.00    -0.084 Cl
ATOM     10  C   UNL d   1      23.649 -16.516  -1.251  0.00  0.00     0.048 A 
ATOM     11  C   UNL d   1      24.835 -15.936  -1.728  0.00  0.00     0.051 A 
ATOM     12 CL   UNL d   1      24.665 -14.569  -2.770  0.00  0.00    -0.083 Cl
ENDBRANCH   2   5
BRANCH   3  13
ATOM     13  N   UNL d   1      28.687 -15.283  -3.843  0.00  0.00    -0.267 N 
ATOM     14  C   UNL d   1      28.729 -15.078  -5.220  0.00  0.00     0.240 C 
ATOM     15  O   UNL d   1      27.719 -15.286  -5.906  0.00  0.00    -0.271 OA
ATOM     16  H   UNL d   1      29.475 -15.145  -3.212  0.00  0.00     0.190 HD
BRANCH  14  17
ATOM     17  C   UNL d   1      30.094 -14.575  -5.809  0.00  0.00     0.079 C 
ATOM     18  C   UNL d   1      30.992 -15.655  -6.495  0.00  0.00     0.014 C 
ATOM     19  C   UNL d   1      31.339 -14.620  -7.580  0.00  0.00     0.002 C 
ATOM     20  C   UNL d   1      30.027 -13.901  -7.216  0.00  0.00     0.014 C 
ENDBRANCH  14  17
ENDBRANCH   3  13
TORSDOF 3
ENDMDL
