MODEL 1
REMARK VINA RESULT:   -10.584      0.000      0.000
REMARK INTER + INTRA:         -14.145
REMARK INTER:                 -12.672
REMARK INTRA:                  -1.473
REMARK CONF_INDEPENDENT:        2.088
REMARK UNBOUND:                -1.473
REMARK  7 active torsions:
REMARK  status: ('A' for Active; 'I' for Inactive)
REMARK    1  A    between atoms: O_2  and  C_3 
REMARK    2  A    between atoms: C_6  and  N_7 
REMARK       I    between atoms: N_7  and  C_8 
REMARK       I    between atoms: C_8  and  N_19 
REMARK       I    between atoms: N_9  and  C_10 
REMARK    3  A    between atoms: C_10  and  C_12 
REMARK    4  A    between atoms: N_19  and  C_20 
REMARK    5  A    between atoms: C_20  and  C_21 
REMARK    6  A    between atoms: C_21  and  C_22 
REMARK    7  A    between atoms: C_32  and  O_33 
ROOT
ATOM      1  N   UNL d   1      25.143 -16.257  -3.061  0.00  0.00    -0.190 N 
ATOM      2  C   UNL d   1      25.079 -16.705  -1.721  0.00  0.00     0.704 C 
ATOM      3  N   UNL d   1      25.689 -16.285  -0.646  0.00  0.00    -0.023 NA
ATOM      4  C   UNL d   1      26.917 -15.692  -0.794  0.00  0.00     0.293 C 
ATOM      5  O   UNL d   1      27.779 -16.154  -1.510  0.00  0.00    -0.265 OA
ATOM      6  N   UNL d   1      24.213 -17.784  -1.464  0.00  0.00    -0.224 N 
ATOM      7  H   UNL d   1      24.810 -16.896  -3.770  0.00  0.00     0.184 HD
ATOM      8  H   UNL d   1      23.918 -18.390  -2.221  0.00  0.00     0.177 HD
ENDROOT
BRANCH   1   9
ATOM      9  C   UNL d   1      25.895 -15.158  -3.616  0.00  0.00     0.052 C 
ATOM     10  C   UNL d   1      25.528 -13.820  -3.562  0.00  0.00     0.033 C 
ATOM     11  C   UNL d   1      26.166 -12.840  -4.405  0.00  0.00     0.042 C 
ATOM     12  C   UNL d   1      27.114 -13.164  -5.398  0.00  0.00     0.101 C 
ATOM     13  C   UNL d   1      27.474 -14.487  -5.422  0.00  0.00     0.103 C 
ATOM     14  C   UNL d   1      27.055 -15.331  -4.350  0.00  0.00     0.069 C 
BRANCH  12  15
ATOM     15  O   UNL d   1      27.794 -12.118  -5.969  0.00  0.00    -0.353 OA
ATOM     16  C   UNL d   1      28.631 -12.263  -7.115  0.00  0.00     0.210 C 
ENDBRANCH  12  15
BRANCH  13  17
ATOM     17  O   UNL d   1      28.079 -15.203  -6.401  0.00  0.00    -0.353 OA
ATOM     18  C   UNL d   1      29.456 -15.399  -6.481  0.00  0.00     0.210 C 
ENDBRANCH  13  17
ENDBRANCH   1   9
BRANCH   6  19
ATOM     19  C   UNL d   1      24.182 -18.366  -0.094  0.00  0.00     0.142 C 
BRANCH  19  20
ATOM     20  C   UNL d   1      22.832 -18.293   0.604  0.00  0.00     0.057 C 
BRANCH  20  21
ATOM     21  C   UNL d   1      21.628 -18.838  -0.135  0.00  0.00    -0.048 A 
ATOM     22  C   UNL d   1      20.601 -19.349   0.547  0.00  0.00    -0.006 A 
ATOM     23  C   UNL d   1      20.407 -19.490   1.945  0.00  0.00     0.014 A 
ATOM     24  C   UNL d   1      19.631 -19.849  -0.433  0.00  0.00     0.038 A 
ATOM     25  C   UNL d   1      19.364 -20.207   2.371  0.00  0.00     0.001 A 
ATOM     26  C   UNL d   1      18.361 -20.702   1.441  0.00  0.00     0.002 A 
ATOM     27  C   UNL d   1      18.441 -20.552   0.101  0.00  0.00     0.030 A 
ATOM     28  N   UNL d   1      20.005 -19.588  -1.629  0.00  0.00    -0.385 N 
ATOM     29  C   UNL d   1      21.367 -18.948  -1.617  0.00  0.00     0.155 A 
ATOM     30  H   UNL d   1      19.422 -19.798  -2.440  0.00  0.00     0.160 HD
ENDBRANCH  20  21
ENDBRANCH  19  20
ENDBRANCH   6  19
BRANCH   4  31
ATOM     31  C   UNL d   1      27.312 -14.673   0.243  0.00  0.00     0.034 C 
ATOM     32  C   UNL d   1      27.621 -14.824   1.619  0.00  0.00     0.017 C 
ATOM     33  C   UNL d   1      27.404 -13.756   2.504  0.00  0.00     0.007 C 
ATOM     34  C   UNL d   1      27.079 -12.505   1.995  0.00  0.00    -0.062 C 
ATOM     35  C   UNL d   1      27.048 -11.302   2.877  0.00  0.00     0.048 C 
ATOM     36  C   UNL d   1      26.881 -12.351   0.621  0.00  0.00     0.007 C 
ATOM     37  C   UNL d   1      26.976 -13.426  -0.239  0.00  0.00     0.017 C 
ENDBRANCH   4  31
TORSDOF 7
ENDMDL
MODEL 2
REMARK VINA RESULT:    -9.857      4.374      8.075
REMARK INTER + INTRA:         -13.970
REMARK INTER:                 -11.945
REMARK INTRA:                  -2.025
REMARK CONF_INDEPENDENT:        2.088
REMARK UNBOUND:                -2.025
REMARK  7 active torsions:
REMARK  status: ('A' for Active; 'I' for Inactive)
REMARK    1  A    between atoms: O_2  and  C_3 
REMARK    2  A    between atoms: C_6  and  N_7 
REMARK       I    between atoms: N_7  and  C_8 
REMARK       I    between atoms: C_8  and  N_19 
REMARK       I    between atoms: N_9  and  C_10 
REMARK    3  A    between atoms: C_10  and  C_12 
REMARK    4  A    between atoms: N_19  and  C_20 
REMARK    5  A    between atoms: C_20  and  C_21 
REMARK    6  A    between atoms: C_21  and  C_22 
REMARK    7  A    between atoms: C_32  and  O_33 
ROOT
ATOM      1  N   UNL d   1      29.481 -14.604   3.325  0.00  0.00    -0.190 N 
ATOM      2  C   UNL d   1      29.009 -14.240   2.042  0.00  0.00     0.704 C 
ATOM      3  N   UNL d   1      28.300 -13.218   1.648  0.00  0.00    -0.023 NA
ATOM      4  C   UNL d   1      27.440 -12.646   2.549  0.00  0.00     0.293 C 
ATOM      5  O   UNL d   1      26.712 -13.304   3.260  0.00  0.00    -0.265 OA
ATOM      6  N   UNL d   1      29.350 -15.101   0.983  0.00  0.00    -0.224 N 
ATOM      7  H   UNL d   1      29.765 -15.566   3.448  0.00  0.00     0.184 HD
ATOM      8  H   UNL d   1      29.624 -16.059   1.175  0.00  0.00     0.177 HD
ENDROOT
BRANCH   1   9
ATOM      9  C   UNL d   1      29.334 -13.906   4.578  0.00  0.00     0.052 C 
ATOM     10  C   UNL d   1      28.949 -14.479   5.782  0.00  0.00     0.033 C 
ATOM     11  C   UNL d   1      28.526 -13.663   6.893  0.00  0.00     0.042 C 
ATOM     12  C   UNL d   1      28.375 -12.262   6.817  0.00  0.00     0.101 C 
ATOM     13  C   UNL d   1      28.776 -11.716   5.626  0.00  0.00     0.103 C 
ATOM     14  C   UNL d   1      29.490 -12.536   4.701  0.00  0.00     0.069 C 
BRANCH  12  15
ATOM     15  O   UNL d   1      28.179 -11.597   8.002  0.00  0.00    -0.353 OA
ATOM     16  C   UNL d   1      28.550 -12.134   9.270  0.00  0.00     0.210 C 
ENDBRANCH  12  15
BRANCH  13  17
ATOM     17  O   UNL d   1      28.488 -10.506   5.086  0.00  0.00    -0.353 OA
ATOM     18  C   UNL d   1      29.062  -9.310   5.511  0.00  0.00     0.210 C 
ENDBRANCH  13  17
ENDBRANCH   1   9
BRANCH   6  19
ATOM     19  C   UNL d   1      28.794 -14.827  -0.370  0.00  0.00     0.142 C 
BRANCH  19  20
ATOM     20  C   UNL d   1      27.299 -15.073  -0.511  0.00  0.00     0.057 C 
BRANCH  20  21
ATOM     21  C   UNL d   1      26.793 -16.481  -0.274  0.00  0.00    -0.048 A 
ATOM     22  C   UNL d   1      25.509 -16.773  -0.489  0.00  0.00    -0.006 A 
ATOM     23  C   UNL d   1      24.442 -15.952  -0.934  0.00  0.00     0.014 A 
ATOM     24  C   UNL d   1      25.313 -18.178  -0.113  0.00  0.00     0.038 A 
ATOM     25  C   UNL d   1      23.202 -16.445  -0.892  0.00  0.00     0.001 A 
ATOM     26  C   UNL d   1      22.957 -17.838  -0.551  0.00  0.00     0.002 A 
ATOM     27  C   UNL d   1      23.927 -18.701  -0.179  0.00  0.00     0.030 A 
ATOM     28  N   UNL d   1      26.417 -18.724   0.232  0.00  0.00    -0.385 N 
ATOM     29  C   UNL d   1      27.521 -17.701   0.231  0.00  0.00     0.155 A 
ATOM     30  H   UNL d   1      26.486 -19.717   0.459  0.00  0.00     0.160 HD
ENDBRANCH  20  21
ENDBRANCH  19  20
ENDBRANCH   6  19
BRANCH   4  31
ATOM     31  C   UNL d   1      27.137 -11.181   2.369  0.00  0.00     0.034 C 
ATOM     32  C   UNL d   1      26.298 -10.310   3.111  0.00  0.00     0.017 C 
ATOM     33  C   UNL d   1      25.718  -9.198   2.484  0.00  0.00     0.007 C 
ATOM     34  C   UNL d   1      26.127  -8.847   1.203  0.00  0.00    -0.062 C 
ATOM     35  C   UNL d   1      25.696  -7.560   0.584  0.00  0.00     0.048 C 
ATOM     36  C   UNL d   1      27.037  -9.662   0.524  0.00  0.00     0.007 C 
ATOM     37  C   UNL d   1      27.518 -10.823   1.094  0.00  0.00     0.017 C 
ENDBRANCH   4  31
TORSDOF 7
ENDMDL
MODEL 3
REMARK VINA RESULT:    -9.515      4.155      8.331
REMARK INTER + INTRA:         -13.780
REMARK INTER:                 -11.603
REMARK INTRA:                  -2.177
REMARK CONF_INDEPENDENT:        2.088
REMARK UNBOUND:                -2.177
REMARK  7 active torsions:
REMARK  status: ('A' for Active; 'I' for Inactive)
REMARK    1  A    between atoms: O_2  and  C_3 
REMARK    2  A    between atoms: C_6  and  N_7 
REMARK       I    between atoms: N_7  and  C_8 
REMARK       I    between atoms: C_8  and  N_19 
REMARK       I    between atoms: N_9  and  C_10 
REMARK    3  A    between atoms: C_10  and  C_12 
REMARK    4  A    between atoms: N_19  and  C_20 
REMARK    5  A    between atoms: C_20  and  C_21 
REMARK    6  A    between atoms: C_21  and  C_22 
REMARK    7  A    between atoms: C_32  and  O_33 
ROOT
ATOM      1  N   UNL d   1      29.835 -14.670   3.685  0.00  0.00    -0.190 N 
ATOM      2  C   UNL d   1      29.248 -14.376   2.433  0.00  0.00     0.704 C 
ATOM      3  N   UNL d   1      28.398 -13.451   2.080  0.00  0.00    -0.023 NA
ATOM      4  C   UNL d   1      27.528 -12.981   3.030  0.00  0.00     0.293 C 
ATOM      5  O   UNL d   1      26.928 -13.718   3.782  0.00  0.00    -0.265 OA
ATOM      6  N   UNL d   1      29.630 -15.198   1.355  0.00  0.00    -0.224 N 
ATOM      7  H   UNL d   1      30.241 -15.590   3.792  0.00  0.00     0.184 HD
ATOM      8  H   UNL d   1      30.029 -16.113   1.531  0.00  0.00     0.177 HD
ENDROOT
BRANCH   1   9
ATOM      9  C   UNL d   1      29.677 -13.985   4.945  0.00  0.00     0.052 C 
ATOM     10  C   UNL d   1      28.868 -14.399   5.993  0.00  0.00     0.033 C 
ATOM     11  C   UNL d   1      28.530 -13.502   7.071  0.00  0.00     0.042 C 
ATOM     12  C   UNL d   1      28.898 -12.141   7.096  0.00  0.00     0.101 C 
ATOM     13  C   UNL d   1      29.710 -11.758   6.060  0.00  0.00     0.103 C 
ATOM     14  C   UNL d   1      30.272 -12.767   5.220  0.00  0.00     0.069 C 
BRANCH  12  15
ATOM     15  O   UNL d   1      28.699 -11.468   8.276  0.00  0.00    -0.353 OA
ATOM     16  C   UNL d   1      29.014 -12.019   9.552  0.00  0.00     0.210 C 
ENDBRANCH  12  15
BRANCH  13  17
ATOM     17  O   UNL d   1      29.985 -10.518   5.587  0.00  0.00    -0.353 OA
ATOM     18  C   UNL d   1      29.813  -9.349   6.326  0.00  0.00     0.210 C 
ENDBRANCH  13  17
ENDBRANCH   1   9
BRANCH   6  19
ATOM     19  C   UNL d   1      28.966 -15.003   0.037  0.00  0.00     0.142 C 
BRANCH  19  20
ATOM     20  C   UNL d   1      28.157 -16.195  -0.455  0.00  0.00     0.057 C 
BRANCH  20  21
ATOM     21  C   UNL d   1      26.772 -15.925  -1.005  0.00  0.00    -0.048 A 
ATOM     22  C   UNL d   1      25.752 -16.713  -0.659  0.00  0.00    -0.006 A 
ATOM     23  C   UNL d   1      25.714 -17.845   0.193  0.00  0.00     0.014 A 
ATOM     24  C   UNL d   1      24.572 -16.246  -1.395  0.00  0.00     0.038 A 
ATOM     25  C   UNL d   1      24.596 -18.575   0.230  0.00  0.00     0.001 A 
ATOM     26  C   UNL d   1      23.392 -18.140  -0.461  0.00  0.00     0.002 A 
ATOM     27  C   UNL d   1      23.329 -17.039  -1.240  0.00  0.00     0.030 A 
ATOM     28  N   UNL d   1      24.837 -15.198  -2.080  0.00  0.00    -0.385 N 
ATOM     29  C   UNL d   1      26.301 -14.868  -1.972  0.00  0.00     0.155 A 
ATOM     30  H   UNL d   1      24.120 -14.691  -2.600  0.00  0.00     0.160 HD
ENDBRANCH  20  21
ENDBRANCH  19  20
ENDBRANCH   6  19
BRANCH   4  31
ATOM     31  C   UNL d   1      27.038 -11.566   2.867  0.00  0.00     0.034 C 
ATOM     32  C   UNL d   1      26.614 -10.859   1.713  0.00  0.00     0.017 C 
ATOM     33  C   UNL d   1      26.747  -9.463   1.661  0.00  0.00     0.007 C 
ATOM     34  C   UNL d   1      27.104  -8.769   2.810  0.00  0.00    -0.062 C 
ATOM     35  C   UNL d   1      27.052  -7.279   2.855  0.00  0.00     0.048 C 
ATOM     36  C   UNL d   1      27.419  -9.479   3.972  0.00  0.00     0.007 C 
ATOM     37  C   UNL d   1      27.405 -10.859   3.992  0.00  0.00     0.017 C 
ENDBRANCH   4  31
TORSDOF 7
ENDMDL
MODEL 4
REMARK VINA RESULT:    -9.499      2.043      4.192
REMARK INTER + INTRA:         -13.622
REMARK INTER:                 -11.587
REMARK INTRA:                  -2.035
REMARK CONF_INDEPENDENT:        2.088
REMARK UNBOUND:                -2.035
REMARK  7 active torsions:
REMARK  status: ('A' for Active; 'I' for Inactive)
REMARK    1  A    between atoms: O_2  and  C_3 
REMARK    2  A    between atoms: C_6  and  N_7 
REMARK       I    between atoms: N_7  and  C_8 
REMARK       I    between atoms: C_8  and  N_19 
REMARK       I    between atoms: N_9  and  C_10 
REMARK    3  A    between atoms: C_10  and  C_12 
REMARK    4  A    between atoms: N_19  and  C_20 
REMARK    5  A    between atoms: C_20  and  C_21 
REMARK    6  A    between atoms: C_21  and  C_22 
REMARK    7  A    between atoms: C_32  and  O_33 
ROOT
ATOM      1  N   UNL d   1      27.089 -17.347   0.587  0.00  0.00    -0.190 N 
ATOM      2  C   UNL d   1      25.908 -17.488  -0.177  0.00  0.00     0.704 C 
ATOM      3  N   UNL d   1      25.462 -16.811  -1.200  0.00  0.00    -0.023 NA
ATOM      4  C   UNL d   1      25.839 -15.497  -1.314  0.00  0.00     0.293 C 
ATOM      5  O   UNL d   1      25.823 -14.733  -0.374  0.00  0.00    -0.265 OA
ATOM      6  N   UNL d   1      25.042 -18.533   0.197  0.00  0.00    -0.224 N 
ATOM      7  H   UNL d   1      27.098 -17.791   1.495  0.00  0.00     0.184 HD
ATOM      8  H   UNL d   1      25.101 -18.933   1.127  0.00  0.00     0.177 HD
ENDROOT
BRANCH   1   9
ATOM      9  C   UNL d   1      28.175 -16.413   0.417  0.00  0.00     0.052 C 
ATOM     10  C   UNL d   1      28.307 -15.200   1.078  0.00  0.00     0.033 C 
ATOM     11  C   UNL d   1      29.240 -14.200   0.619  0.00  0.00     0.042 C 
ATOM     12  C   UNL d   1      29.999 -14.328  -0.563  0.00  0.00     0.101 C 
ATOM     13  C   UNL d   1      29.866 -15.539  -1.190  0.00  0.00     0.103 C 
ATOM     14  C   UNL d   1      29.188 -16.594  -0.507  0.00  0.00     0.069 C 
BRANCH  12  15
ATOM     15  O   UNL d   1      30.998 -13.407  -0.758  0.00  0.00    -0.353 OA
ATOM     16  C   UNL d   1      32.382 -13.749  -0.776  0.00  0.00     0.210 C 
ENDBRANCH  12  15
BRANCH  13  17
ATOM     17  O   UNL d   1      30.165 -15.894  -2.464  0.00  0.00    -0.353 OA
ATOM     18  C   UNL d   1      29.211 -16.080  -3.462  0.00  0.00     0.210 C 
ENDBRANCH  13  17
ENDBRANCH   1   9
BRANCH   6  19
ATOM     19  C   UNL d   1      23.735 -18.664  -0.502  0.00  0.00     0.142 C 
BRANCH  19  20
ATOM     20  C   UNL d   1      22.512 -18.496   0.388  0.00  0.00     0.057 C 
BRANCH  20  21
ATOM     21  C   UNL d   1      21.187 -19.009  -0.133  0.00  0.00    -0.048 A 
ATOM     22  C   UNL d   1      20.297 -19.537   0.711  0.00  0.00    -0.006 A 
ATOM     23  C   UNL d   1      20.362 -19.725   2.115  0.00  0.00     0.014 A 
ATOM     24  C   UNL d   1      19.158 -19.999  -0.089  0.00  0.00     0.038 A 
ATOM     25  C   UNL d   1      19.408 -20.450   2.704  0.00  0.00     0.001 A 
ATOM     26  C   UNL d   1      18.245 -20.908   1.959  0.00  0.00     0.002 A 
ATOM     27  C   UNL d   1      18.078 -20.714   0.633  0.00  0.00     0.030 A 
ATOM     28  N   UNL d   1      19.307 -19.700  -1.324  0.00  0.00    -0.385 N 
ATOM     29  C   UNL d   1      20.655 -19.068  -1.543  0.00  0.00     0.155 A 
ATOM     30  H   UNL d   1      18.582 -19.880  -2.020  0.00  0.00     0.160 HD
ENDBRANCH  20  21
ENDBRANCH  19  20
ENDBRANCH   6  19
BRANCH   4  31
ATOM     31  C   UNL d   1      25.903 -14.924  -2.706  0.00  0.00     0.034 C 
ATOM     32  C   UNL d   1      25.905 -15.564  -3.973  0.00  0.00     0.017 C 
ATOM     33  C   UNL d   1      26.525 -14.942  -5.067  0.00  0.00     0.007 C 
ATOM     34  C   UNL d   1      26.953 -13.626  -4.950  0.00  0.00    -0.062 C 
ATOM     35  C   UNL d   1      27.422 -12.862  -6.143  0.00  0.00     0.048 C 
ATOM     36  C   UNL d   1      26.847 -12.974  -3.719  0.00  0.00     0.007 C 
ATOM     37  C   UNL d   1      26.347 -13.623  -2.609  0.00  0.00     0.017 C 
ENDBRANCH   4  31
TORSDOF 7
ENDMDL
MODEL 5
REMARK VINA RESULT:    -9.385      3.970      8.180
REMARK INTER + INTRA:         -13.530
REMARK INTER:                 -11.473
REMARK INTRA:                  -2.057
REMARK CONF_INDEPENDENT:        2.088
REMARK UNBOUND:                -2.057
REMARK  7 active torsions:
REMARK  status: ('A' for Active; 'I' for Inactive)
REMARK    1  A    between atoms: O_2  and  C_3 
REMARK    2  A    between atoms: C_6  and  N_7 
REMARK       I    between atoms: N_7  and  C_8 
REMARK       I    between atoms: C_8  and  N_19 
REMARK       I    between atoms: N_9  and  C_10 
REMARK    3  A    between atoms: C_10  and  C_12 
REMARK    4  A    between atoms: N_19  and  C_20 
REMARK    5  A    between atoms: C_20  and  C_21 
REMARK    6  A    between atoms: C_21  and  C_22 
REMARK    7  A    between atoms: C_32  and  O_33 
ROOT
ATOM      1  N   UNL d   1      29.493 -14.550   3.159  0.00  0.00    -0.190 N 
ATOM      2  C   UNL d   1      29.236 -14.466   1.771  0.00  0.00     0.704 C 
ATOM      3  N   UNL d   1      28.501 -13.635   1.083  0.00  0.00    -0.023 NA
ATOM      4  C   UNL d   1      27.424 -13.061   1.708  0.00  0.00     0.293 C 
ATOM      5  O   UNL d   1      26.655 -13.700   2.394  0.00  0.00    -0.265 OA
ATOM      6  N   UNL d   1      29.871 -15.424   0.958  0.00  0.00    -0.224 N 
ATOM      7  H   UNL d   1      29.858 -15.429   3.500  0.00  0.00     0.184 HD
ATOM      8  H   UNL d   1      30.213 -16.289   1.364  0.00  0.00     0.177 HD
ENDROOT
BRANCH   1   9
ATOM      9  C   UNL d   1      29.029 -13.692   4.222  0.00  0.00     0.052 C 
ATOM     10  C   UNL d   1      29.066 -12.305   4.213  0.00  0.00     0.033 C 
ATOM     11  C   UNL d   1      28.880 -11.549   5.427  0.00  0.00     0.042 C 
ATOM     12  C   UNL d   1      28.752 -12.140   6.701  0.00  0.00     0.101 C 
ATOM     13  C   UNL d   1      28.701 -13.510   6.684  0.00  0.00     0.103 C 
ATOM     14  C   UNL d   1      28.557 -14.175   5.429  0.00  0.00     0.069 C 
BRANCH  12  15
ATOM     15  O   UNL d   1      28.364 -11.317   7.729  0.00  0.00    -0.353 OA
ATOM     16  C   UNL d   1      29.278 -10.522   8.481  0.00  0.00     0.210 C 
ENDBRANCH  12  15
BRANCH  13  17
ATOM     17  O   UNL d   1      28.905 -14.398   7.688  0.00  0.00    -0.353 OA
ATOM     18  C   UNL d   1      29.234 -14.033   8.992  0.00  0.00     0.210 C 
ENDBRANCH  13  17
ENDBRANCH   1   9
BRANCH   6  19
ATOM     19  C   UNL d   1      29.555 -15.452  -0.496  0.00  0.00     0.142 C 
BRANCH  19  20
ATOM     20  C   UNL d   1      28.524 -16.492  -0.908  0.00  0.00     0.057 C 
BRANCH  20  21
ATOM     21  C   UNL d   1      27.139 -16.003  -1.275  0.00  0.00    -0.048 A 
ATOM     22  C   UNL d   1      26.063 -16.593  -0.750  0.00  0.00    -0.006 A 
ATOM     23  C   UNL d   1      25.961 -17.676   0.159  0.00  0.00     0.014 A 
ATOM     24  C   UNL d   1      24.883 -15.949  -1.338  0.00  0.00     0.038 A 
ATOM     25  C   UNL d   1      24.754 -18.200   0.390  0.00  0.00     0.001 A 
ATOM     26  C   UNL d   1      23.552 -17.584  -0.150  0.00  0.00     0.002 A 
ATOM     27  C   UNL d   1      23.561 -16.511  -0.970  0.00  0.00     0.030 A 
ATOM     28  N   UNL d   1      25.217 -14.983  -2.107  0.00  0.00    -0.385 N 
ATOM     29  C   UNL d   1      26.715 -14.909  -2.222  0.00  0.00     0.155 A 
ATOM     30  H   UNL d   1      24.526 -14.375  -2.549  0.00  0.00     0.160 HD
ENDBRANCH  20  21
ENDBRANCH  19  20
ENDBRANCH   6  19
BRANCH   4  31
ATOM     31  C   UNL d   1      26.992 -11.705   1.217  0.00  0.00     0.034 C 
ATOM     32  C   UNL d   1      27.437 -10.935   0.110  0.00  0.00     0.017 C 
ATOM     33  C   UNL d   1      27.343  -9.536   0.152  0.00  0.00     0.007 C 
ATOM     34  C   UNL d   1      26.638  -8.930   1.183  0.00  0.00    -0.062 C 
ATOM     35  C   UNL d   1      26.335  -7.469   1.152  0.00  0.00     0.048 C 
ATOM     36  C   UNL d   1      26.114  -9.715   2.213  0.00  0.00     0.007 C 
ATOM     37  C   UNL d   1      26.308 -11.082   2.238  0.00  0.00     0.017 C 
ENDBRANCH   4  31
TORSDOF 7
ENDMDL
MODEL 6
REMARK VINA RESULT:    -8.708      2.554      8.323
REMARK INTER + INTRA:         -13.183
REMARK INTER:                 -10.796
REMARK INTRA:                  -2.387
REMARK CONF_INDEPENDENT:        2.088
REMARK UNBOUND:                -2.387
REMARK  7 active torsions:
REMARK  status: ('A' for Active; 'I' for Inactive)
REMARK    1  A    between atoms: O_2  and  C_3 
REMARK    2  A    between atoms: C_6  and  N_7 
REMARK       I    between atoms: N_7  and  C_8 
REMARK       I    between atoms: C_8  and  N_19 
REMARK       I    between atoms: N_9  and  C_10 
REMARK    3  A    between atoms: C_10  and  C_12 
REMARK    4  A    between atoms: N_19  and  C_20 
REMARK    5  A    between atoms: C_20  and  C_21 
REMARK    6  A    between atoms: C_21  and  C_22 
REMARK    7  A    between atoms: C_32  and  O_33 
ROOT
ATOM      1  N   UNL d   1      26.904 -13.266  -1.061  0.00  0.00    -0.190 N 
ATOM      2  C   UNL d   1      26.126 -13.927  -2.040  0.00  0.00     0.704 C 
ATOM      3  N   UNL d   1      25.413 -15.018  -1.976  0.00  0.00    -0.023 NA
ATOM      4  C   UNL d   1      25.785 -15.977  -1.069  0.00  0.00     0.293 C 
ATOM      5  O   UNL d   1      26.938 -16.323  -0.927  0.00  0.00    -0.265 OA
ATOM      6  N   UNL d   1      26.087 -13.331  -3.314  0.00  0.00    -0.224 N 
ATOM      7  H   UNL d   1      27.590 -12.604  -1.397  0.00  0.00     0.184 HD
ATOM      8  H   UNL d   1      26.810 -12.676  -3.591  0.00  0.00     0.177 HD
ENDROOT
BRANCH   1   9
ATOM      9  C   UNL d   1      27.096 -13.606   0.328  0.00  0.00     0.052 C 
ATOM     10  C   UNL d   1      26.280 -13.207   1.377  0.00  0.00     0.033 C 
ATOM     11  C   UNL d   1      26.718 -13.325   2.746  0.00  0.00     0.042 C 
ATOM     12  C   UNL d   1      28.012 -13.747   3.116  0.00  0.00     0.101 C 
ATOM     13  C   UNL d   1      28.795 -14.151   2.066  0.00  0.00     0.103 C 
ATOM     14  C   UNL d   1      28.189 -14.321   0.784  0.00  0.00     0.069 C 
BRANCH  12  15
ATOM     15  O   UNL d   1      28.217 -14.019   4.446  0.00  0.00    -0.353 OA
ATOM     16  C   UNL d   1      29.362 -14.716   4.933  0.00  0.00     0.210 C 
ENDBRANCH  12  15
BRANCH  13  17
ATOM     17  O   UNL d   1      30.141 -14.301   1.994  0.00  0.00    -0.353 OA
ATOM     18  C   UNL d   1      30.777 -15.199   1.140  0.00  0.00     0.210 C 
ENDBRANCH  13  17
ENDBRANCH   1   9
BRANCH   6  19
ATOM     19  C   UNL d   1      25.372 -14.036  -4.413  0.00  0.00     0.142 C 
BRANCH  19  20
ATOM     20  C   UNL d   1      26.126 -15.214  -5.015  0.00  0.00     0.057 C 
BRANCH  20  21
ATOM     21  C   UNL d   1      27.575 -14.999  -5.398  0.00  0.00    -0.048 A 
ATOM     22  C   UNL d   1      28.547 -15.359  -4.558  0.00  0.00    -0.006 A 
ATOM     23  C   UNL d   1      28.477 -15.951  -3.272  0.00  0.00     0.014 A 
ATOM     24  C   UNL d   1      29.821 -14.969  -5.173  0.00  0.00     0.038 A 
ATOM     25  C   UNL d   1      29.600 -16.044  -2.554  0.00  0.00     0.001 A 
ATOM     26  C   UNL d   1      30.890 -15.695  -3.128  0.00  0.00     0.002 A 
ATOM     27  C   UNL d   1      31.047 -15.186  -4.369  0.00  0.00     0.030 A 
ATOM     28  N   UNL d   1      29.641 -14.478  -6.341  0.00  0.00    -0.385 N 
ATOM     29  C   UNL d   1      28.169 -14.376  -6.637  0.00  0.00     0.155 A 
ATOM     30  H   UNL d   1      30.419 -14.217  -6.948  0.00  0.00     0.160 HD
ENDBRANCH  20  21
ENDBRANCH  19  20
ENDBRANCH   6  19
BRANCH   4  31
ATOM     31  C   UNL d   1      24.696 -16.867  -0.530  0.00  0.00     0.034 C 
ATOM     32  C   UNL d   1      24.740 -18.205  -0.059  0.00  0.00     0.017 C 
ATOM     33  C   UNL d   1      23.596 -19.013  -0.146  0.00  0.00     0.007 C 
ATOM     34  C   UNL d   1      22.382 -18.440  -0.504  0.00  0.00    -0.062 C 
ATOM     35  C   UNL d   1      21.109 -19.212  -0.404  0.00  0.00     0.048 C 
ATOM     36  C   UNL d   1      22.338 -17.091  -0.865  0.00  0.00     0.007 C 
ATOM     37  C   UNL d   1      23.484 -16.323  -0.896  0.00  0.00     0.017 C 
ENDBRANCH   4  31
TORSDOF 7
ENDMDL
MODEL 7
REMARK VINA RESULT:    -8.309      3.003      8.123
REMARK INTER + INTRA:         -13.204
REMARK INTER:                 -10.397
REMARK INTRA:                  -2.808
REMARK CONF_INDEPENDENT:        2.088
REMARK UNBOUND:                -2.808
REMARK  7 active torsions:
REMARK  status: ('A' for Active; 'I' for Inactive)
REMARK    1  A    between atoms: O_2  and  C_3 
REMARK    2  A    between atoms: C_6  and  N_7 
REMARK       I    between atoms: N_7  and  C_8 
REMARK       I    between atoms: C_8  and  N_19 
REMARK       I    between atoms: N_9  and  C_10 
REMARK    3  A    between atoms: C_10  and  C_12 
REMARK    4  A    between atoms: N_19  and  C_20 
REMARK    5  A    between atoms: C_20  and  C_21 
REMARK    6  A    between atoms: C_21  and  C_22 
REMARK    7  A    between atoms: C_32  and  O_33 
ROOT
ATOM      1  N   UNL d   1      29.326 -14.445  -1.042  0.00  0.00    -0.190 N 
ATOM      2  C   UNL d   1      28.980 -15.248  -2.154  0.00  0.00     0.704 C 
ATOM      3  N   UNL d   1      27.985 -16.070  -2.342  0.00  0.00    -0.023 NA
ATOM      4  C   UNL d   1      27.443 -16.685  -1.243  0.00  0.00     0.293 C 
ATOM      5  O   UNL d   1      28.126 -17.179  -0.372  0.00  0.00    -0.265 OA
ATOM      6  N   UNL d   1      29.830 -15.165  -3.273  0.00  0.00    -0.224 N 
ATOM      7  H   UNL d   1      30.277 -14.106  -1.005  0.00  0.00     0.184 HD
ATOM      8  H   UNL d   1      30.777 -14.817  -3.167  0.00  0.00     0.177 HD
ENDROOT
BRANCH   1   9
ATOM      9  C   UNL d   1      28.631 -14.284   0.212  0.00  0.00     0.052 C 
ATOM     10  C   UNL d   1      27.363 -13.743   0.369  0.00  0.00     0.033 C 
ATOM     11  C   UNL d   1      26.885 -13.334   1.666  0.00  0.00     0.042 C 
ATOM     12  C   UNL d   1      27.679 -13.353   2.832  0.00  0.00     0.101 C 
ATOM     13  C   UNL d   1      28.921 -13.906   2.657  0.00  0.00     0.103 C 
ATOM     14  C   UNL d   1      29.203 -14.589   1.435  0.00  0.00     0.069 C 
BRANCH  12  15
ATOM     15  O   UNL d   1      27.033 -13.146   4.025  0.00  0.00    -0.353 OA
ATOM     16  C   UNL d   1      27.071 -14.075   5.105  0.00  0.00     0.210 C 
ENDBRANCH  12  15
BRANCH  13  17
ATOM     17  O   UNL d   1      30.032 -13.803   3.427  0.00  0.00    -0.353 OA
ATOM     18  C   UNL d   1      30.256 -14.565   4.573  0.00  0.00     0.210 C 
ENDBRANCH  13  17
ENDBRANCH   1   9
BRANCH   6  19
ATOM     19  C   UNL d   1      29.577 -16.064  -4.432  0.00  0.00     0.142 C 
BRANCH  19  20
ATOM     20  C   UNL d   1      28.708 -15.466  -5.529  0.00  0.00     0.057 C 
BRANCH  20  21
ATOM     21  C   UNL d   1      27.356 -14.913  -5.132  0.00  0.00    -0.048 A 
ATOM     22  C   UNL d   1      27.267 -13.702  -4.577  0.00  0.00    -0.006 A 
ATOM     23  C   UNL d   1      28.278 -12.759  -4.264  0.00  0.00     0.014 A 
ATOM     24  C   UNL d   1      25.855 -13.476  -4.247  0.00  0.00     0.038 A 
ATOM     25  C   UNL d   1      27.945 -11.688  -3.539  0.00  0.00     0.001 A 
ATOM     26  C   UNL d   1      26.557 -11.406  -3.208  0.00  0.00     0.002 A 
ATOM     27  C   UNL d   1      25.528 -12.222  -3.527  0.00  0.00     0.030 A 
ATOM     28  N   UNL d   1      25.125 -14.448  -4.645  0.00  0.00    -0.385 N 
ATOM     29  C   UNL d   1      25.986 -15.538  -5.224  0.00  0.00     0.155 A 
ATOM     30  H   UNL d   1      24.108 -14.434  -4.564  0.00  0.00     0.160 HD
ENDBRANCH  20  21
ENDBRANCH  19  20
ENDBRANCH   6  19
BRANCH   4  31
ATOM     31  C   UNL d   1      25.990 -17.075  -1.326  0.00  0.00     0.034 C 
ATOM     32  C   UNL d   1      24.860 -16.351  -1.785  0.00  0.00     0.017 C 
ATOM     33  C   UNL d   1      23.588 -16.642  -1.270  0.00  0.00     0.007 C 
ATOM     34  C   UNL d   1      23.417 -17.763  -0.468  0.00  0.00    -0.062 C 
ATOM     35  C   UNL d   1      22.054 -18.226  -0.075  0.00  0.00     0.048 C 
ATOM     36  C   UNL d   1      24.530 -18.528  -0.110  0.00  0.00     0.007 C 
ATOM     37  C   UNL d   1      25.800 -18.175  -0.517  0.00  0.00     0.017 C 
ENDBRANCH   4  31
TORSDOF 7
ENDMDL
MODEL 8
REMARK VINA RESULT:    -8.162      3.316      8.494
REMARK INTER + INTRA:         -13.610
REMARK INTER:                 -10.250
REMARK INTRA:                  -3.359
REMARK CONF_INDEPENDENT:        2.088
REMARK UNBOUND:                -3.359
REMARK  7 active torsions:
REMARK  status: ('A' for Active; 'I' for Inactive)
REMARK    1  A    between atoms: O_2  and  C_3 
REMARK    2  A    between atoms: C_6  and  N_7 
REMARK       I    between atoms: N_7  and  C_8 
REMARK       I    between atoms: C_8  and  N_19 
REMARK       I    between atoms: N_9  and  C_10 
REMARK    3  A    between atoms: C_10  and  C_12 
REMARK    4  A    between atoms: N_19  and  C_20 
REMARK    5  A    between atoms: C_20  and  C_21 
REMARK    6  A    between atoms: C_21  and  C_22 
REMARK    7  A    between atoms: C_32  and  O_33 
ROOT
ATOM      1  N   UNL d   1      27.948 -16.374   0.615  0.00  0.00    -0.190 N 
ATOM      2  C   UNL d   1      28.932 -15.682  -0.128  0.00  0.00     0.704 C 
ATOM      3  N   UNL d   1      28.922 -15.226  -1.351  0.00  0.00    -0.023 NA
ATOM      4  C   UNL d   1      28.130 -15.867  -2.269  0.00  0.00     0.293 C 
ATOM      5  O   UNL d   1      28.090 -17.075  -2.361  0.00  0.00    -0.265 OA
ATOM      6  N   UNL d   1      30.143 -15.414   0.538  0.00  0.00    -0.224 N 
ATOM      7  H   UNL d   1      28.264 -16.873   1.434  0.00  0.00     0.184 HD
ATOM      8  H   UNL d   1      30.404 -15.955   1.355  0.00  0.00     0.177 HD
ENDROOT
BRANCH   1   9
ATOM      9  C   UNL d   1      26.610 -16.744   0.223  0.00  0.00     0.052 C 
ATOM     10  C   UNL d   1      25.965 -17.924   0.567  0.00  0.00     0.033 C 
ATOM     11  C   UNL d   1      24.770 -18.346  -0.120  0.00  0.00     0.042 C 
ATOM     12  C   UNL d   1      24.230 -17.668  -1.233  0.00  0.00     0.101 C 
ATOM     13  C   UNL d   1      24.872 -16.497  -1.544  0.00  0.00     0.103 C 
ATOM     14  C   UNL d   1      25.832 -15.976  -0.625  0.00  0.00     0.069 C 
BRANCH  12  15
ATOM     15  O   UNL d   1      22.979 -18.054  -1.645  0.00  0.00    -0.353 OA
ATOM     16  C   UNL d   1      21.991 -18.575  -0.759  0.00  0.00     0.210 C 
ENDBRANCH  12  15
BRANCH  13  17
ATOM     17  O   UNL d   1      24.850 -15.775  -2.691  0.00  0.00    -0.353 OA
ATOM     18  C   UNL d   1      24.405 -14.457  -2.770  0.00  0.00     0.210 C 
ENDBRANCH  13  17
ENDBRANCH   1   9
BRANCH   6  19
ATOM     19  C   UNL d   1      31.255 -14.782  -0.225  0.00  0.00     0.142 C 
BRANCH  19  20
ATOM     20  C   UNL d   1      31.819 -15.631  -1.355  0.00  0.00     0.057 C 
BRANCH  20  21
ATOM     21  C   UNL d   1      31.467 -15.237  -2.774  0.00  0.00    -0.048 A 
ATOM     22  C   UNL d   1      31.059 -16.165  -3.643  0.00  0.00    -0.006 A 
ATOM     23  C   UNL d   1      30.879 -17.562  -3.477  0.00  0.00     0.014 A 
ATOM     24  C   UNL d   1      30.861 -15.497  -4.933  0.00  0.00     0.038 A 
ATOM     25  C   UNL d   1      30.636 -18.303  -4.561  0.00  0.00     0.001 A 
ATOM     26  C   UNL d   1      30.405 -17.686  -5.858  0.00  0.00     0.002 A 
ATOM     27  C   UNL d   1      30.496 -16.358  -6.084  0.00  0.00     0.030 A 
ATOM     28  N   UNL d   1      31.057 -14.236  -4.838  0.00  0.00    -0.385 N 
ATOM     29  C   UNL d   1      31.527 -13.891  -3.451  0.00  0.00     0.155 A 
ATOM     30  H   UNL d   1      30.896 -13.599  -5.619  0.00  0.00     0.160 HD
ENDBRANCH  20  21
ENDBRANCH  19  20
ENDBRANCH   6  19
BRANCH   4  31
ATOM     31  C   UNL d   1      27.607 -15.041  -3.414  0.00  0.00     0.034 C 
ATOM     32  C   UNL d   1      27.329 -15.394  -4.760  0.00  0.00     0.017 C 
ATOM     33  C   UNL d   1      27.405 -14.419  -5.767  0.00  0.00     0.007 C 
ATOM     34  C   UNL d   1      27.556 -13.084  -5.414  0.00  0.00    -0.062 C 
ATOM     35  C   UNL d   1      27.430 -12.001  -6.432  0.00  0.00     0.048 C 
ATOM     36  C   UNL d   1      27.724 -12.743  -4.069  0.00  0.00     0.007 C 
ATOM     37  C   UNL d   1      27.769 -13.712  -3.087  0.00  0.00     0.017 C 
ENDBRANCH   4  31
TORSDOF 7
ENDMDL
