MODEL 1
REMARK VINA RESULT:    -8.476      0.000      0.000
REMARK INTER + INTRA:         -10.252
REMARK INTER:                  -9.371
REMARK INTRA:                  -0.881
REMARK CONF_INDEPENDENT:        0.895
REMARK UNBOUND:                -0.881
REMARK  3 active torsions:
REMARK  status: ('A' for Active; 'I' for Inactive)
REMARK    1  A    between atoms: C_5  and  N_6 
REMARK       I    between atoms: N_6  and  C_7 
REMARK    2  A    between atoms: C_7  and  C_9 
REMARK    3  A    between atoms: C_14  and  O_15 
ROOT
ATOM      1  N   UNL d   1      22.929 -18.443   0.401  0.00  0.00    -0.322 N 
ATOM      2  C   UNL d   1      21.941 -18.863  -0.474  0.00  0.00     0.259 C 
ATOM      3  O   UNL d   1      21.990 -18.895  -1.705  0.00  0.00    -0.267 OA
ATOM      4  H   UNL d   1      22.686 -18.474   1.383  0.00  0.00     0.169 HD
ENDROOT
BRANCH   1   5
ATOM      5  C   UNL d   1      24.199 -17.923   0.037  0.00  0.00     0.041 A 
ATOM      6  C   UNL d   1      25.365 -18.574   0.457  0.00  0.00     0.030 A 
ATOM      7  C   UNL d   1      26.636 -18.119   0.129  0.00  0.00     0.009 A 
ATOM      8  C   UNL d   1      26.791 -16.982  -0.646  0.00  0.00    -0.061 A 
ATOM      9  C   UNL d   1      28.176 -16.515  -0.976  0.00  0.00     0.048 C 
ATOM     10  C   UNL d   1      25.641 -16.307  -1.086  0.00  0.00     0.015 A 
ATOM     11  C   UNL d   1      24.336 -16.761  -0.752  0.00  0.00    -0.035 A 
ATOM     12  C   UNL d   1      23.171 -15.958  -1.271  0.00  0.00     0.050 C 
ENDBRANCH   1   5
BRANCH   2  13
ATOM     13  C   UNL d   1      20.686 -19.373   0.111  0.00  0.00     0.065 A 
ATOM     14  C   UNL d   1      20.647 -19.503   1.508  0.00  0.00     0.020 A 
ATOM     15  C   UNL d   1      19.545 -20.080   2.131  0.00  0.00     0.001 A 
ATOM     16  C   UNL d   1      18.489 -20.554   1.354  0.00  0.00     0.003 A 
ATOM     17  C   UNL d   1      18.527 -20.438  -0.041  0.00  0.00     0.037 A 
ATOM     18  C   UNL d   1      19.619 -19.831  -0.663  0.00  0.00     0.081 A 
BRANCH  18  19
ATOM     19  O   UNL d   1      19.660 -19.700  -2.023  0.00  0.00    -0.360 OA
ATOM     20  H   UNL d   1      20.336 -19.047  -2.268  0.00  0.00     0.217 HD
ENDBRANCH  18  19
ENDBRANCH   2  13
TORSDOF 3
ENDMDL
MODEL 2
REMARK VINA RESULT:    -6.398      1.341      2.426
REMARK INTER + INTRA:          -8.045
REMARK INTER:                  -7.293
REMARK INTRA:                  -0.752
REMARK CONF_INDEPENDENT:        0.895
REMARK UNBOUND:                -0.752
REMARK  3 active torsions:
REMARK  status: ('A' for Active; 'I' for Inactive)
REMARK    1  A    between atoms: C_5  and  N_6 
REMARK       I    between atoms: N_6  and  C_7 
REMARK    2  A    between atoms: C_7  and  C_9 
REMARK    3  A    between atoms: C_14  and  O_15 
ROOT
ATOM      1  N   UNL d   1      22.574 -18.477   0.046  0.00  0.00    -0.322 N 
ATOM      2  C   UNL d   1      21.260 -18.440  -0.388  0.00  0.00     0.259 C 
ATOM      3  O   UNL d   1      20.778 -17.729  -1.270  0.00  0.00    -0.267 OA
ATOM      4  H   UNL d   1      22.768 -19.120   0.803  0.00  0.00     0.169 HD
ENDROOT
BRANCH   1   5
ATOM      5  C   UNL d   1      23.632 -17.656  -0.429  0.00  0.00     0.041 A 
ATOM      6  C   UNL d   1      23.408 -16.781  -1.498  0.00  0.00     0.030 A 
ATOM      7  C   UNL d   1      24.399 -15.949  -2.004  0.00  0.00     0.009 A 
ATOM      8  C   UNL d   1      25.668 -15.958  -1.450  0.00  0.00    -0.061 A 
ATOM      9  C   UNL d   1      26.715 -15.053  -2.024  0.00  0.00     0.048 C 
ATOM     10  C   UNL d   1      25.924 -16.823  -0.374  0.00  0.00     0.015 A 
ATOM     11  C   UNL d   1      24.920 -17.682   0.149  0.00  0.00    -0.035 A 
ATOM     12  C   UNL d   1      25.304 -18.575   1.301  0.00  0.00     0.050 C 
ENDBRANCH   1   5
BRANCH   2  13
ATOM     13  C   UNL d   1      20.311 -19.381   0.238  0.00  0.00     0.065 A 
ATOM     14  C   UNL d   1      19.390 -20.012  -0.614  0.00  0.00     0.020 A 
ATOM     15  C   UNL d   1      18.390 -20.825  -0.092  0.00  0.00     0.001 A 
ATOM     16  C   UNL d   1      18.292 -20.990   1.288  0.00  0.00     0.003 A 
ATOM     17  C   UNL d   1      19.200 -20.355   2.145  0.00  0.00     0.037 A 
ATOM     18  C   UNL d   1      20.221 -19.563   1.619  0.00  0.00     0.081 A 
BRANCH  18  19
ATOM     19  O   UNL d   1      21.121 -18.950   2.445  0.00  0.00    -0.360 OA
ATOM     20  H   UNL d   1      21.780 -19.597   2.747  0.00  0.00     0.217 HD
ENDBRANCH  18  19
ENDBRANCH   2  13
TORSDOF 3
ENDMDL
MODEL 3
REMARK VINA RESULT:    -6.294      3.929      8.131
REMARK INTER + INTRA:          -8.124
REMARK INTER:                  -7.189
REMARK INTRA:                  -0.935
REMARK CONF_INDEPENDENT:        0.895
REMARK UNBOUND:                -0.935
REMARK  3 active torsions:
REMARK  status: ('A' for Active; 'I' for Inactive)
REMARK    1  A    between atoms: C_5  and  N_6 
REMARK       I    between atoms: N_6  and  C_7 
REMARK    2  A    between atoms: C_7  and  C_9 
REMARK    3  A    between atoms: C_14  and  O_15 
ROOT
ATOM      1  N   UNL d   1      26.073 -15.425  -2.160  0.00  0.00    -0.322 N 
ATOM      2  C   UNL d   1      25.867 -14.813  -3.385  0.00  0.00     0.259 C 
ATOM      3  O   UNL d   1      24.844 -14.825  -4.070  0.00  0.00    -0.267 OA
ATOM      4  H   UNL d   1      26.997 -15.314  -1.765  0.00  0.00     0.169 HD
ENDROOT
BRANCH   1   5
ATOM      5  C   UNL d   1      25.134 -16.232  -1.464  0.00  0.00     0.041 A 
ATOM      6  C   UNL d   1      23.767 -15.940  -1.547  0.00  0.00     0.030 A 
ATOM      7  C   UNL d   1      22.800 -16.694  -0.895  0.00  0.00     0.009 A 
ATOM      8  C   UNL d   1      23.168 -17.787  -0.127  0.00  0.00    -0.061 A 
ATOM      9  C   UNL d   1      22.100 -18.575   0.568  0.00  0.00     0.048 C 
ATOM     10  C   UNL d   1      24.531 -18.108  -0.025  0.00  0.00     0.015 A 
ATOM     11  C   UNL d   1      25.530 -17.340  -0.684  0.00  0.00    -0.035 A 
ATOM     12  C   UNL d   1      26.963 -17.768  -0.502  0.00  0.00     0.050 C 
ENDBRANCH   1   5
BRANCH   2  13
ATOM     13  C   UNL d   1      26.976 -14.014  -3.941  0.00  0.00     0.065 A 
ATOM     14  C   UNL d   1      27.458 -12.961  -3.145  0.00  0.00     0.020 A 
ATOM     15  C   UNL d   1      28.423 -12.090  -3.639  0.00  0.00     0.001 A 
ATOM     16  C   UNL d   1      28.892 -12.254  -4.941  0.00  0.00     0.003 A 
ATOM     17  C   UNL d   1      28.408 -13.295  -5.744  0.00  0.00     0.037 A 
ATOM     18  C   UNL d   1      27.461 -14.186  -5.238  0.00  0.00     0.081 A 
BRANCH  18  19
ATOM     19  O   UNL d   1      26.992 -15.213  -6.007  0.00  0.00    -0.360 OA
ATOM     20  H   UNL d   1      26.156 -15.543  -5.638  0.00  0.00     0.217 HD
ENDBRANCH  18  19
ENDBRANCH   2  13
TORSDOF 3
ENDMDL
MODEL 4
REMARK VINA RESULT:    -6.064      4.594      8.524
REMARK INTER + INTRA:          -7.875
REMARK INTER:                  -6.958
REMARK INTRA:                  -0.916
REMARK CONF_INDEPENDENT:        0.895
REMARK UNBOUND:                -0.916
REMARK  3 active torsions:
REMARK  status: ('A' for Active; 'I' for Inactive)
REMARK    1  A    between atoms: C_5  and  N_6 
REMARK       I    between atoms: N_6  and  C_7 
REMARK    2  A    between atoms: C_7  and  C_9 
REMARK    3  A    between atoms: C_14  and  O_15 
ROOT
ATOM      1  N   UNL d   1      26.461 -15.109  -3.029  0.00  0.00    -0.322 N 
ATOM      2  C   UNL d   1      25.886 -14.422  -4.084  0.00  0.00     0.259 C 
ATOM      3  O   UNL d   1      24.696 -14.386  -4.399  0.00  0.00    -0.267 OA
ATOM      4  H   UNL d   1      27.467 -15.028  -2.949  0.00  0.00     0.169 HD
ENDROOT
BRANCH   1   5
ATOM      5  C   UNL d   1      25.778 -15.953  -2.113  0.00  0.00     0.041 A 
ATOM      6  C   UNL d   1      24.383 -15.896  -2.020  0.00  0.00     0.030 A 
ATOM      7  C   UNL d   1      23.657 -16.698  -1.149  0.00  0.00     0.009 A 
ATOM      8  C   UNL d   1      24.308 -17.603  -0.327  0.00  0.00    -0.061 A 
ATOM      9  C   UNL d   1      23.496 -18.449   0.605  0.00  0.00     0.048 C 
ATOM     10  C   UNL d   1      25.708 -17.687  -0.397  0.00  0.00     0.015 A 
ATOM     11  C   UNL d   1      26.461 -16.867  -1.282  0.00  0.00    -0.035 A 
ATOM     12  C   UNL d   1      27.959 -17.033  -1.272  0.00  0.00     0.050 C 
ENDBRANCH   1   5
BRANCH   2  13
ATOM     13  C   UNL d   1      26.775 -13.596  -4.923  0.00  0.00     0.065 A 
ATOM     14  C   UNL d   1      27.890 -14.239  -5.486  0.00  0.00     0.020 A 
ATOM     15  C   UNL d   1      28.838 -13.510  -6.196  0.00  0.00     0.001 A 
ATOM     16  C   UNL d   1      28.688 -12.130  -6.323  0.00  0.00     0.003 A 
ATOM     17  C   UNL d   1      27.585 -11.481  -5.755  0.00  0.00     0.037 A 
ATOM     18  C   UNL d   1      26.618 -12.217  -5.068  0.00  0.00     0.081 A 
BRANCH  18  19
ATOM     19  O   UNL d   1      25.530 -11.596  -4.522  0.00  0.00    -0.360 OA
ATOM     20  H   UNL d   1      24.773 -12.206  -4.518  0.00  0.00     0.217 HD
ENDBRANCH  18  19
ENDBRANCH   2  13
TORSDOF 3
ENDMDL
MODEL 5
REMARK VINA RESULT:    -5.918      1.301      6.545
REMARK INTER + INTRA:          -7.644
REMARK INTER:                  -6.813
REMARK INTRA:                  -0.831
REMARK CONF_INDEPENDENT:        0.895
REMARK UNBOUND:                -0.831
REMARK  3 active torsions:
REMARK  status: ('A' for Active; 'I' for Inactive)
REMARK    1  A    between atoms: C_5  and  N_6 
REMARK       I    between atoms: N_6  and  C_7 
REMARK    2  A    between atoms: C_7  and  C_9 
REMARK    3  A    between atoms: C_14  and  O_15 
ROOT
ATOM      1  N   UNL d   1      22.310 -18.718   0.420  0.00  0.00    -0.322 N 
ATOM      2  C   UNL d   1      22.516 -17.641  -0.426  0.00  0.00     0.259 C 
ATOM      3  O   UNL d   1      21.669 -17.014  -1.064  0.00  0.00    -0.267 OA
ATOM      4  H   UNL d   1      23.143 -19.112   0.838  0.00  0.00     0.169 HD
ENDROOT
BRANCH   1   5
ATOM      5  C   UNL d   1      21.063 -19.342   0.688  0.00  0.00     0.041 A 
ATOM      6  C   UNL d   1      20.653 -19.539   2.012  0.00  0.00     0.030 A 
ATOM      7  C   UNL d   1      19.442 -20.136   2.340  0.00  0.00     0.009 A 
ATOM      8  C   UNL d   1      18.582 -20.562   1.342  0.00  0.00    -0.061 A 
ATOM      9  C   UNL d   1      17.287 -21.208   1.730  0.00  0.00     0.048 C 
ATOM     10  C   UNL d   1      18.962 -20.377   0.003  0.00  0.00     0.015 A 
ATOM     11  C   UNL d   1      20.200 -19.771  -0.344  0.00  0.00    -0.035 A 
ATOM     12  C   UNL d   1      20.513 -19.626  -1.811  0.00  0.00     0.050 C 
ENDBRANCH   1   5
BRANCH   2  13
ATOM     13  C   UNL d   1      23.897 -17.142  -0.568  0.00  0.00     0.065 A 
ATOM     14  C   UNL d   1      24.895 -17.832   0.138  0.00  0.00     0.020 A 
ATOM     15  C   UNL d   1      26.203 -17.361   0.150  0.00  0.00     0.001 A 
ATOM     16  C   UNL d   1      26.513 -16.181  -0.525  0.00  0.00     0.003 A 
ATOM     17  C   UNL d   1      25.520 -15.481  -1.222  0.00  0.00     0.037 A 
ATOM     18  C   UNL d   1      24.213 -15.971  -1.258  0.00  0.00     0.081 A 
BRANCH  18  19
ATOM     19  O   UNL d   1      23.239 -15.303  -1.946  0.00  0.00    -0.360 OA
ATOM     20  H   UNL d   1      22.365 -15.613  -1.658  0.00  0.00     0.217 HD
ENDBRANCH  18  19
ENDBRANCH   2  13
TORSDOF 3
ENDMDL
MODEL 6
REMARK VINA RESULT:    -5.770      5.939      8.548
REMARK INTER + INTRA:          -7.620
REMARK INTER:                  -6.665
REMARK INTRA:                  -0.956
REMARK CONF_INDEPENDENT:        0.895
REMARK UNBOUND:                -0.956
REMARK  3 active torsions:
REMARK  status: ('A' for Active; 'I' for Inactive)
REMARK    1  A    between atoms: C_5  and  N_6 
REMARK       I    between atoms: N_6  and  C_7 
REMARK    2  A    between atoms: C_7  and  C_9 
REMARK    3  A    between atoms: C_14  and  O_15 
ROOT
ATOM      1  N   UNL d   1      27.861 -14.985   1.561  0.00  0.00    -0.322 N 
ATOM      2  C   UNL d   1      27.506 -14.056   2.525  0.00  0.00     0.259 C 
ATOM      3  O   UNL d   1      26.613 -13.210   2.462  0.00  0.00    -0.267 OA
ATOM      4  H   UNL d   1      28.642 -15.584   1.796  0.00  0.00     0.169 HD
ENDROOT
BRANCH   1   5
ATOM      5  C   UNL d   1      27.275 -15.116   0.274  0.00  0.00     0.041 A 
ATOM      6  C   UNL d   1      27.148 -13.993  -0.551  0.00  0.00     0.030 A 
ATOM      7  C   UNL d   1      26.589 -14.057  -1.821  0.00  0.00     0.009 A 
ATOM      8  C   UNL d   1      26.133 -15.265  -2.323  0.00  0.00    -0.061 A 
ATOM      9  C   UNL d   1      25.530 -15.297  -3.695  0.00  0.00     0.048 C 
ATOM     10  C   UNL d   1      26.248 -16.411  -1.521  0.00  0.00     0.015 A 
ATOM     11  C   UNL d   1      26.813 -16.356  -0.218  0.00  0.00    -0.035 A 
ATOM     12  C   UNL d   1      26.883 -17.645   0.561  0.00  0.00     0.050 C 
ENDBRANCH   1   5
BRANCH   2  13
ATOM     13  C   UNL d   1      28.244 -14.087   3.803  0.00  0.00     0.065 A 
ATOM     14  C   UNL d   1      27.517 -13.765   4.961  0.00  0.00     0.020 A 
ATOM     15  C   UNL d   1      28.161 -13.660   6.189  0.00  0.00     0.001 A 
ATOM     16  C   UNL d   1      29.539 -13.852   6.259  0.00  0.00     0.003 A 
ATOM     17  C   UNL d   1      30.272 -14.162   5.106  0.00  0.00     0.037 A 
ATOM     18  C   UNL d   1      29.621 -14.296   3.879  0.00  0.00     0.081 A 
BRANCH  18  19
ATOM     19  O   UNL d   1      30.324 -14.612   2.751  0.00  0.00    -0.360 OA
ATOM     20  H   UNL d   1      30.324 -15.575   2.624  0.00  0.00     0.217 HD
ENDBRANCH  18  19
ENDBRANCH   2  13
TORSDOF 3
ENDMDL
MODEL 7
REMARK VINA RESULT:    -5.570      4.570      6.689
REMARK INTER + INTRA:          -7.390
REMARK INTER:                  -6.465
REMARK INTRA:                  -0.925
REMARK CONF_INDEPENDENT:        0.895
REMARK UNBOUND:                -0.925
REMARK  3 active torsions:
REMARK  status: ('A' for Active; 'I' for Inactive)
REMARK    1  A    between atoms: C_5  and  N_6 
REMARK       I    between atoms: N_6  and  C_7 
REMARK    2  A    between atoms: C_7  and  C_9 
REMARK    3  A    between atoms: C_14  and  O_15 
ROOT
ATOM      1  N   UNL d   1      26.225 -15.084  -3.369  0.00  0.00    -0.322 N 
ATOM      2  C   UNL d   1      25.035 -15.208  -2.671  0.00  0.00     0.259 C 
ATOM      3  O   UNL d   1      24.024 -14.512  -2.779  0.00  0.00    -0.267 OA
ATOM      4  H   UNL d   1      26.949 -15.745  -3.120  0.00  0.00     0.169 HD
ENDROOT
BRANCH   1   5
ATOM      5  C   UNL d   1      26.525 -14.086  -4.334  0.00  0.00     0.041 A 
ATOM      6  C   UNL d   1      25.745 -12.926  -4.404  0.00  0.00     0.030 A 
ATOM      7  C   UNL d   1      25.990 -11.912  -5.320  0.00  0.00     0.009 A 
ATOM      8  C   UNL d   1      27.044 -12.019  -6.213  0.00  0.00    -0.061 A 
ATOM      9  C   UNL d   1      27.278 -10.909  -7.193  0.00  0.00     0.048 C 
ATOM     10  C   UNL d   1      27.848 -13.169  -6.168  0.00  0.00     0.015 A 
ATOM     11  C   UNL d   1      27.603 -14.215  -5.237  0.00  0.00    -0.035 A 
ATOM     12  C   UNL d   1      28.523 -15.409  -5.279  0.00  0.00     0.050 C 
ENDBRANCH   1   5
BRANCH   2  13
ATOM     13  C   UNL d   1      24.925 -16.319  -1.707  0.00  0.00     0.065 A 
ATOM     14  C   UNL d   1      23.632 -16.653  -1.271  0.00  0.00     0.020 A 
ATOM     15  C   UNL d   1      23.449 -17.610  -0.280  0.00  0.00     0.001 A 
ATOM     16  C   UNL d   1      24.561 -18.221   0.297  0.00  0.00     0.003 A 
ATOM     17  C   UNL d   1      25.853 -17.885  -0.124  0.00  0.00     0.037 A 
ATOM     18  C   UNL d   1      26.035 -16.945  -1.140  0.00  0.00     0.081 A 
BRANCH  18  19
ATOM     19  O   UNL d   1      27.291 -16.620  -1.569  0.00  0.00    -0.360 OA
ATOM     20  H   UNL d   1      27.912 -16.659  -0.823  0.00  0.00     0.217 HD
ENDBRANCH  18  19
ENDBRANCH   2  13
TORSDOF 3
ENDMDL
MODEL 8
REMARK VINA RESULT:    -5.479      3.629      8.174
REMARK INTER + INTRA:          -7.397
REMARK INTER:                  -6.373
REMARK INTRA:                  -1.024
REMARK CONF_INDEPENDENT:        0.895
REMARK UNBOUND:                -1.024
REMARK  3 active torsions:
REMARK  status: ('A' for Active; 'I' for Inactive)
REMARK    1  A    between atoms: C_5  and  N_6 
REMARK       I    between atoms: N_6  and  C_7 
REMARK    2  A    between atoms: C_7  and  C_9 
REMARK    3  A    between atoms: C_14  and  O_15 
ROOT
ATOM      1  N   UNL d   1      27.324 -16.887  -0.537  0.00  0.00    -0.322 N 
ATOM      2  C   UNL d   1      27.953 -16.049   0.369  0.00  0.00     0.259 C 
ATOM      3  O   UNL d   1      27.444 -15.446   1.314  0.00  0.00    -0.267 OA
ATOM      4  H   UNL d   1      27.917 -17.274  -1.261  0.00  0.00     0.169 HD
ENDROOT
BRANCH   1   5
ATOM      5  C   UNL d   1      25.936 -17.185  -0.572  0.00  0.00     0.041 A 
ATOM      6  C   UNL d   1      25.428 -18.228   0.211  0.00  0.00     0.030 A 
ATOM      7  C   UNL d   1      24.081 -18.565   0.225  0.00  0.00     0.009 A 
ATOM      8  C   UNL d   1      23.176 -17.860  -0.551  0.00  0.00    -0.061 A 
ATOM      9  C   UNL d   1      21.731 -18.253  -0.517  0.00  0.00     0.048 C 
ATOM     10  C   UNL d   1      23.654 -16.805  -1.346  0.00  0.00     0.015 A 
ATOM     11  C   UNL d   1      25.031 -16.455  -1.373  0.00  0.00    -0.035 A 
ATOM     12  C   UNL d   1      25.437 -15.311  -2.266  0.00  0.00     0.050 C 
ENDBRANCH   1   5
BRANCH   2  13
ATOM     13  C   UNL d   1      29.411 -15.871   0.231  0.00  0.00     0.065 A 
ATOM     14  C   UNL d   1      29.924 -14.597   0.527  0.00  0.00     0.020 A 
ATOM     15  C   UNL d   1      31.268 -14.314   0.316  0.00  0.00     0.001 A 
ATOM     16  C   UNL d   1      32.101 -15.296  -0.217  0.00  0.00     0.003 A 
ATOM     17  C   UNL d   1      31.594 -16.565  -0.525  0.00  0.00     0.037 A 
ATOM     18  C   UNL d   1      30.251 -16.859  -0.284  0.00  0.00     0.081 A 
BRANCH  18  19
ATOM     19  O   UNL d   1      29.749 -18.098  -0.568  0.00  0.00    -0.360 OA
ATOM     20  H   UNL d   1      29.776 -18.652   0.230  0.00  0.00     0.217 HD
ENDBRANCH  18  19
ENDBRANCH   2  13
TORSDOF 3
ENDMDL
