MODEL 1
REMARK VINA RESULT:   -10.025      0.000      0.000
REMARK INTER + INTRA:         -13.521
REMARK INTER:                 -12.113
REMARK INTRA:                  -1.407
REMARK CONF_INDEPENDENT:        2.088
REMARK UNBOUND:                -1.407
REMARK  7 active torsions:
REMARK  status: ('A' for Active; 'I' for Inactive)
REMARK    1  A    between atoms: C_5  and  N_6 
REMARK       I    between atoms: N_6  and  C_7 
REMARK    2  A    between atoms: C_7  and  C_9 
REMARK    3  A    between atoms: C_9  and  N_10 
REMARK    4  A    between atoms: N_10  and  C_11 
REMARK    5  A    between atoms: C_14  and  C_15 
REMARK       I    between atoms: C_15  and  N_17 
REMARK    6  A    between atoms: N_17  and  C_18 
REMARK    7  A    between atoms: C_18  and  C_19 
ROOT
ATOM      1  C   UNL d   1      26.542 -16.606   0.224  0.00  0.00     0.028 A 
ATOM      2  C   UNL d   1      25.597 -15.885  -0.502  0.00  0.00     0.030 A 
ATOM      3  C   UNL d   1      24.437 -16.486  -1.009  0.00  0.00     0.019 A 
ATOM      4  C   UNL d   1      24.168 -17.838  -0.776  0.00  0.00     0.032 A 
ATOM      5  C   UNL d   1      25.110 -18.575  -0.042  0.00  0.00     0.019 A 
ATOM      6  C   UNL d   1      26.288 -17.965   0.441  0.00  0.00     0.030 A 
ENDROOT
BRANCH   1   7
ATOM      7  N   UNL d   1      27.645 -15.993   0.764  0.00  0.00    -0.381 N 
ATOM      8  H   UNL d   1      28.308 -16.535   1.322  0.00  0.00     0.160 HD
BRANCH   7   9
ATOM      9  C   UNL d   1      27.923 -14.548   0.694  0.00  0.00     0.223 C 
BRANCH   9  10
ATOM     10  C   UNL d   1      27.774 -13.958   2.107  0.00  0.00     0.239 C 
ATOM     11  N   UNL d   1      28.589 -14.489   3.112  0.00  0.00    -0.326 N 
ATOM     12  H   UNL d   1      29.252 -15.218   2.876  0.00  0.00     0.169 HD
ATOM     13  O   UNL d   1      26.947 -13.054   2.260  0.00  0.00    -0.271 OA
BRANCH  11  14
ATOM     14  C   UNL d   1      28.572 -14.054   4.473  0.00  0.00     0.034 A 
ATOM     15  C   UNL d   1      27.798 -12.954   4.875  0.00  0.00     0.030 A 
ATOM     16  C   UNL d   1      27.779 -12.549   6.230  0.00  0.00     0.009 A 
ATOM     17  C   UNL d   1      28.528 -13.232   7.195  0.00  0.00    -0.062 A 
ATOM     18  C   UNL d   1      28.531 -12.861   8.646  0.00  0.00     0.048 C 
ATOM     19  C   UNL d   1      29.301 -14.311   6.792  0.00  0.00     0.009 A 
ATOM     20  C   UNL d   1      29.319 -14.704   5.458  0.00  0.00     0.030 A 
ENDBRANCH  11  14
ENDBRANCH   9  10
ENDBRANCH   7   9
ENDBRANCH   1   7
BRANCH   4  21
ATOM     21  C   UNL d   1      22.916 -18.515  -1.271  0.00  0.00     0.251 C 
ATOM     22  O   UNL d   1      22.934 -19.160  -2.322  0.00  0.00    -0.268 OA
ATOM     23  N   UNL d   1      21.772 -18.397  -0.511  0.00  0.00    -0.351 N 
ATOM     24  H   UNL d   1      21.768 -17.850   0.334  0.00  0.00     0.163 HD
BRANCH  23  25
ATOM     25  C   UNL d   1      20.506 -19.016  -0.885  0.00  0.00     0.187 C 
BRANCH  25  26
ATOM     26  C   UNL d   1      19.916 -19.623   0.341  0.00  0.00     0.070 A 
ATOM     27  C   UNL d   1      18.857 -20.493   0.499  0.00  0.00     0.036 A 
ATOM     28  C   UNL d   1      18.786 -20.807   1.872  0.00  0.00     0.027 A 
ATOM     29  C   UNL d   1      19.775 -20.073   2.484  0.00  0.00     0.142 A 
ATOM     30  O   UNL d   1      20.473 -19.349   1.561  0.00  0.00    -0.325 OA
ENDBRANCH  25  26
ENDBRANCH  23  25
ENDBRANCH   4  21
TORSDOF 7
ENDMDL
MODEL 2
REMARK VINA RESULT:    -8.812      4.451      7.328
REMARK INTER + INTRA:         -12.067
REMARK INTER:                 -10.900
REMARK INTRA:                  -1.167
REMARK CONF_INDEPENDENT:        2.088
REMARK UNBOUND:                -1.167
REMARK  7 active torsions:
REMARK  status: ('A' for Active; 'I' for Inactive)
REMARK    1  A    between atoms: C_5  and  N_6 
REMARK       I    between atoms: N_6  and  C_7 
REMARK    2  A    between atoms: C_7  and  C_9 
REMARK    3  A    between atoms: C_9  and  N_10 
REMARK    4  A    between atoms: N_10  and  C_11 
REMARK    5  A    between atoms: C_14  and  C_15 
REMARK       I    between atoms: C_15  and  N_17 
REMARK    6  A    between atoms: N_17  and  C_18 
REMARK    7  A    between atoms: C_18  and  C_19 
ROOT
ATOM      1  C   UNL d   1      26.791 -17.323  -0.432  0.00  0.00     0.028 A 
ATOM      2  C   UNL d   1      26.075 -18.263   0.304  0.00  0.00     0.030 A 
ATOM      3  C   UNL d   1      24.685 -18.393   0.185  0.00  0.00     0.019 A 
ATOM      4  C   UNL d   1      23.963 -17.596  -0.708  0.00  0.00     0.032 A 
ATOM      5  C   UNL d   1      24.674 -16.648  -1.460  0.00  0.00     0.019 A 
ATOM      6  C   UNL d   1      26.071 -16.508  -1.313  0.00  0.00     0.030 A 
ENDROOT
BRANCH   1   7
ATOM      7  N   UNL d   1      28.160 -17.246  -0.350  0.00  0.00    -0.381 N 
ATOM      8  H   UNL d   1      28.674 -17.907   0.236  0.00  0.00     0.160 HD
BRANCH   7   9
ATOM      9  C   UNL d   1      28.982 -16.194  -0.973  0.00  0.00     0.223 C 
BRANCH   9  10
ATOM     10  C   UNL d   1      29.108 -16.504  -2.475  0.00  0.00     0.239 C 
ATOM     11  N   UNL d   1      30.079 -17.435  -2.857  0.00  0.00    -0.326 N 
ATOM     12  H   UNL d   1      30.643 -17.880  -2.143  0.00  0.00     0.169 HD
ATOM     13  O   UNL d   1      28.343 -15.911  -3.242  0.00  0.00    -0.271 OA
BRANCH  11  14
ATOM     14  C   UNL d   1      30.324 -17.829  -4.209  0.00  0.00     0.034 A 
ATOM     15  C   UNL d   1      30.375 -16.883  -5.244  0.00  0.00     0.030 A 
ATOM     16  C   UNL d   1      30.636 -17.290  -6.573  0.00  0.00     0.009 A 
ATOM     17  C   UNL d   1      30.850 -18.638  -6.884  0.00  0.00    -0.062 A 
ATOM     18  C   UNL d   1      31.151 -19.124  -8.268  0.00  0.00     0.048 C 
ATOM     19  C   UNL d   1      30.787 -19.571  -5.859  0.00  0.00     0.009 A 
ATOM     20  C   UNL d   1      30.527 -19.167  -4.554  0.00  0.00     0.030 A 
ENDBRANCH  11  14
ENDBRANCH   9  10
ENDBRANCH   7   9
ENDBRANCH   1   7
BRANCH   4  21
ATOM     21  C   UNL d   1      22.473 -17.727  -0.894  0.00  0.00     0.251 C 
ATOM     22  O   UNL d   1      21.758 -16.723  -0.895  0.00  0.00    -0.268 OA
ATOM     23  N   UNL d   1      21.951 -18.990  -1.071  0.00  0.00    -0.351 N 
ATOM     24  H   UNL d   1      22.545 -19.803  -1.048  0.00  0.00     0.163 HD
BRANCH  23  25
ATOM     25  C   UNL d   1      20.528 -19.239  -1.269  0.00  0.00     0.187 C 
BRANCH  25  26
ATOM     26  C   UNL d   1      19.963 -19.710   0.026  0.00  0.00     0.070 A 
ATOM     27  C   UNL d   1      18.829 -20.446   0.303  0.00  0.00     0.036 A 
ATOM     28  C   UNL d   1      18.821 -20.678   1.695  0.00  0.00     0.027 A 
ATOM     29  C   UNL d   1      19.923 -20.028   2.197  0.00  0.00     0.142 A 
ATOM     30  O   UNL d   1      20.630 -19.437   1.189  0.00  0.00    -0.325 OA
ENDBRANCH  25  26
ENDBRANCH  23  25
ENDBRANCH   4  21
TORSDOF 7
ENDMDL
MODEL 3
REMARK VINA RESULT:    -8.593      4.307      6.186
REMARK INTER + INTRA:         -11.894
REMARK INTER:                 -10.682
REMARK INTRA:                  -1.212
REMARK CONF_INDEPENDENT:        2.088
REMARK UNBOUND:                -1.212
REMARK  7 active torsions:
REMARK  status: ('A' for Active; 'I' for Inactive)
REMARK    1  A    between atoms: C_5  and  N_6 
REMARK       I    between atoms: N_6  and  C_7 
REMARK    2  A    between atoms: C_7  and  C_9 
REMARK    3  A    between atoms: C_9  and  N_10 
REMARK    4  A    between atoms: N_10  and  C_11 
REMARK    5  A    between atoms: C_14  and  C_15 
REMARK       I    between atoms: C_15  and  N_17 
REMARK    6  A    between atoms: N_17  and  C_18 
REMARK    7  A    between atoms: C_18  and  C_19 
ROOT
ATOM      1  C   UNL d   1      26.400 -17.169   0.012  0.00  0.00     0.028 A 
ATOM      2  C   UNL d   1      25.788 -18.398   0.240  0.00  0.00     0.030 A 
ATOM      3  C   UNL d   1      24.420 -18.598   0.008  0.00  0.00     0.019 A 
ATOM      4  C   UNL d   1      23.618 -17.567  -0.492  0.00  0.00     0.032 A 
ATOM      5  C   UNL d   1      24.225 -16.324  -0.730  0.00  0.00     0.019 A 
ATOM      6  C   UNL d   1      25.598 -16.128  -0.468  0.00  0.00     0.030 A 
ENDROOT
BRANCH   1   7
ATOM      7  N   UNL d   1      27.752 -17.003   0.187  0.00  0.00    -0.381 N 
ATOM      8  H   UNL d   1      28.134 -16.887   1.128  0.00  0.00     0.160 HD
BRANCH   7   9
ATOM      9  C   UNL d   1      28.732 -16.873  -0.905  0.00  0.00     0.223 C 
BRANCH   9  10
ATOM     10  C   UNL d   1      28.406 -15.595  -1.698  0.00  0.00     0.239 C 
ATOM     11  N   UNL d   1      27.456 -15.700  -2.719  0.00  0.00    -0.326 N 
ATOM     12  H   UNL d   1      27.008 -16.594  -2.886  0.00  0.00     0.169 HD
ATOM     13  O   UNL d   1      29.004 -14.562  -1.380  0.00  0.00    -0.271 OA
BRANCH  11  14
ATOM     14  C   UNL d   1      27.045 -14.611  -3.548  0.00  0.00     0.034 A 
ATOM     15  C   UNL d   1      25.903 -13.855  -3.242  0.00  0.00     0.030 A 
ATOM     16  C   UNL d   1      25.521 -12.770  -4.064  0.00  0.00     0.009 A 
ATOM     17  C   UNL d   1      26.270 -12.426  -5.195  0.00  0.00    -0.062 A 
ATOM     18  C   UNL d   1      25.926 -11.275  -6.090  0.00  0.00     0.048 C 
ATOM     19  C   UNL d   1      27.393 -13.183  -5.501  0.00  0.00     0.009 A 
ATOM     20  C   UNL d   1      27.762 -14.251  -4.691  0.00  0.00     0.030 A 
ENDBRANCH  11  14
ENDBRANCH   9  10
ENDBRANCH   7   9
ENDBRANCH   1   7
BRANCH   4  21
ATOM     21  C   UNL d   1      22.152 -17.748  -0.789  0.00  0.00     0.251 C 
ATOM     22  O   UNL d   1      21.415 -16.766  -0.895  0.00  0.00    -0.268 OA
ATOM     23  N   UNL d   1      21.677 -19.032  -0.946  0.00  0.00    -0.351 N 
ATOM     24  H   UNL d   1      22.287 -19.826  -0.836  0.00  0.00     0.163 HD
BRANCH  23  25
ATOM     25  C   UNL d   1      20.281 -19.329  -1.244  0.00  0.00     0.187 C 
BRANCH  25  26
ATOM     26  C   UNL d   1      19.668 -19.916  -0.019  0.00  0.00     0.070 A 
ATOM     27  C   UNL d   1      19.931 -19.694   1.318  0.00  0.00     0.036 A 
ATOM     28  C   UNL d   1      18.996 -20.454   2.050  0.00  0.00     0.027 A 
ATOM     29  C   UNL d   1      18.246 -21.136   1.121  0.00  0.00     0.142 A 
ATOM     30  O   UNL d   1      18.644 -20.813  -0.144  0.00  0.00    -0.325 OA
ENDBRANCH  25  26
ENDBRANCH  23  25
ENDBRANCH   4  21
TORSDOF 7
ENDMDL
MODEL 4
REMARK VINA RESULT:    -8.300      5.332     10.281
REMARK INTER + INTRA:         -11.913
REMARK INTER:                 -10.388
REMARK INTRA:                  -1.525
REMARK CONF_INDEPENDENT:        2.088
REMARK UNBOUND:                -1.525
REMARK  7 active torsions:
REMARK  status: ('A' for Active; 'I' for Inactive)
REMARK    1  A    between atoms: C_5  and  N_6 
REMARK       I    between atoms: N_6  and  C_7 
REMARK    2  A    between atoms: C_7  and  C_9 
REMARK    3  A    between atoms: C_9  and  N_10 
REMARK    4  A    between atoms: N_10  and  C_11 
REMARK    5  A    between atoms: C_14  and  C_15 
REMARK       I    between atoms: C_15  and  N_17 
REMARK    6  A    between atoms: N_17  and  C_18 
REMARK    7  A    between atoms: C_18  and  C_19 
ROOT
ATOM      1  C   UNL d   1      25.309 -15.881  -2.514  0.00  0.00     0.028 A 
ATOM      2  C   UNL d   1      24.541 -14.720  -2.558  0.00  0.00     0.030 A 
ATOM      3  C   UNL d   1      25.033 -13.528  -3.109  0.00  0.00     0.019 A 
ATOM      4  C   UNL d   1      26.314 -13.470  -3.666  0.00  0.00     0.032 A 
ATOM      5  C   UNL d   1      27.096 -14.635  -3.631  0.00  0.00     0.019 A 
ATOM      6  C   UNL d   1      26.600 -15.822  -3.051  0.00  0.00     0.030 A 
ENDROOT
BRANCH   1   7
ATOM      7  N   UNL d   1      24.794 -17.056  -2.025  0.00  0.00    -0.381 N 
ATOM      8  H   UNL d   1      24.615 -17.838  -2.658  0.00  0.00     0.160 HD
BRANCH   7   9
ATOM      9  C   UNL d   1      24.366 -17.272  -0.632  0.00  0.00     0.223 C 
BRANCH   9  10
ATOM     10  C   UNL d   1      23.202 -18.278  -0.633  0.00  0.00     0.239 C 
ATOM     11  N   UNL d   1      22.205 -18.104   0.333  0.00  0.00    -0.326 N 
ATOM     12  H   UNL d   1      22.272 -17.324   0.976  0.00  0.00     0.169 HD
ATOM     13  O   UNL d   1      23.224 -19.171  -1.486  0.00  0.00    -0.271 OA
BRANCH  11  14
ATOM     14  C   UNL d   1      21.062 -18.951   0.467  0.00  0.00     0.034 A 
ATOM     15  C   UNL d   1      20.350 -19.396  -0.658  0.00  0.00     0.030 A 
ATOM     16  C   UNL d   1      19.232 -20.249  -0.507  0.00  0.00     0.009 A 
ATOM     17  C   UNL d   1      18.812 -20.665   0.762  0.00  0.00    -0.062 A 
ATOM     18  C   UNL d   1      17.649 -21.583   0.981  0.00  0.00     0.048 C 
ATOM     19  C   UNL d   1      19.510 -20.213   1.872  0.00  0.00     0.009 A 
ATOM     20  C   UNL d   1      20.608 -19.373   1.719  0.00  0.00     0.030 A 
ENDBRANCH  11  14
ENDBRANCH   9  10
ENDBRANCH   7   9
ENDBRANCH   1   7
BRANCH   4  21
ATOM     21  C   UNL d   1      26.868 -12.220  -4.300  0.00  0.00     0.251 C 
ATOM     22  O   UNL d   1      28.081 -12.000  -4.278  0.00  0.00    -0.268 OA
ATOM     23  N   UNL d   1      25.984 -11.354  -4.905  0.00  0.00    -0.351 N 
ATOM     24  H   UNL d   1      24.994 -11.537  -4.898  0.00  0.00     0.163 HD
BRANCH  23  25
ATOM     25  C   UNL d   1      26.405 -10.121  -5.559  0.00  0.00     0.187 C 
BRANCH  25  26
ATOM     26  C   UNL d   1      25.336  -9.105  -5.347  0.00  0.00     0.070 A 
ATOM     27  C   UNL d   1      25.251  -8.056  -4.453  0.00  0.00     0.036 A 
ATOM     28  C   UNL d   1      24.057  -7.364  -4.747  0.00  0.00     0.027 A 
ATOM     29  C   UNL d   1      23.455  -8.059  -5.770  0.00  0.00     0.142 A 
ATOM     30  O   UNL d   1      24.227  -9.119  -6.147  0.00  0.00    -0.325 OA
ENDBRANCH  25  26
ENDBRANCH  23  25
ENDBRANCH   4  21
TORSDOF 7
ENDMDL
MODEL 5
REMARK VINA RESULT:    -7.968      5.286     10.506
REMARK INTER + INTRA:         -11.523
REMARK INTER:                 -10.056
REMARK INTRA:                  -1.467
REMARK CONF_INDEPENDENT:        2.088
REMARK UNBOUND:                -1.467
REMARK  7 active torsions:
REMARK  status: ('A' for Active; 'I' for Inactive)
REMARK    1  A    between atoms: C_5  and  N_6 
REMARK       I    between atoms: N_6  and  C_7 
REMARK    2  A    between atoms: C_7  and  C_9 
REMARK    3  A    between atoms: C_9  and  N_10 
REMARK    4  A    between atoms: N_10  and  C_11 
REMARK    5  A    between atoms: C_14  and  C_15 
REMARK       I    between atoms: C_15  and  N_17 
REMARK    6  A    between atoms: N_17  and  C_18 
REMARK    7  A    between atoms: C_18  and  C_19 
ROOT
ATOM      1  C   UNL d   1      25.279 -15.913  -2.475  0.00  0.00     0.028 A 
ATOM      2  C   UNL d   1      24.400 -14.847  -2.651  0.00  0.00     0.030 A 
ATOM      3  C   UNL d   1      24.805 -13.644  -3.245  0.00  0.00     0.019 A 
ATOM      4  C   UNL d   1      26.112 -13.479  -3.713  0.00  0.00     0.032 A 
ATOM      5  C   UNL d   1      27.006 -14.548  -3.546  0.00  0.00     0.019 A 
ATOM      6  C   UNL d   1      26.594 -15.744  -2.923  0.00  0.00     0.030 A 
ENDROOT
BRANCH   1   7
ATOM      7  N   UNL d   1      24.855 -17.106  -1.945  0.00  0.00    -0.381 N 
ATOM      8  H   UNL d   1      24.778 -17.931  -2.543  0.00  0.00     0.160 HD
BRANCH   7   9
ATOM      9  C   UNL d   1      24.387 -17.293  -0.560  0.00  0.00     0.223 C 
BRANCH   9  10
ATOM     10  C   UNL d   1      23.224 -18.301  -0.574  0.00  0.00     0.239 C 
ATOM     11  N   UNL d   1      22.196 -18.104   0.354  0.00  0.00    -0.326 N 
ATOM     12  H   UNL d   1      22.242 -17.308   0.979  0.00  0.00     0.169 HD
ATOM     13  O   UNL d   1      23.276 -19.215  -1.402  0.00  0.00    -0.271 OA
BRANCH  11  14
ATOM     14  C   UNL d   1      21.050 -18.950   0.473  0.00  0.00     0.034 A 
ATOM     15  C   UNL d   1      20.307 -19.329  -0.655  0.00  0.00     0.030 A 
ATOM     16  C   UNL d   1      19.186 -20.181  -0.521  0.00  0.00     0.009 A 
ATOM     17  C   UNL d   1      18.795 -20.662   0.734  0.00  0.00    -0.062 A 
ATOM     18  C   UNL d   1      17.631 -21.583   0.935  0.00  0.00     0.048 C 
ATOM     19  C   UNL d   1      19.526 -20.275   1.849  0.00  0.00     0.009 A 
ATOM     20  C   UNL d   1      20.626 -19.435   1.712  0.00  0.00     0.030 A 
ENDBRANCH  11  14
ENDBRANCH   9  10
ENDBRANCH   7   9
ENDBRANCH   1   7
BRANCH   4  21
ATOM     21  C   UNL d   1      26.579 -12.216  -4.390  0.00  0.00     0.251 C 
ATOM     22  O   UNL d   1      27.664 -11.716  -4.087  0.00  0.00    -0.268 OA
ATOM     23  N   UNL d   1      25.766 -11.658  -5.352  0.00  0.00    -0.351 N 
ATOM     24  H   UNL d   1      24.873 -12.066  -5.575  0.00  0.00     0.163 HD
BRANCH  23  25
ATOM     25  C   UNL d   1      26.118 -10.444  -6.079  0.00  0.00     0.187 C 
BRANCH  25  26
ATOM     26  C   UNL d   1      26.777 -10.850  -7.352  0.00  0.00     0.070 A 
ATOM     27  C   UNL d   1      26.274 -10.974  -8.631  0.00  0.00     0.036 A 
ATOM     28  C   UNL d   1      27.359 -11.311  -9.467  0.00  0.00     0.027 A 
ATOM     29  C   UNL d   1      28.455 -11.423  -8.644  0.00  0.00     0.142 A 
ATOM     30  O   UNL d   1      28.114 -11.141  -7.353  0.00  0.00    -0.325 OA
ENDBRANCH  25  26
ENDBRANCH  23  25
ENDBRANCH   4  21
TORSDOF 7
ENDMDL
MODEL 6
REMARK VINA RESULT:    -7.907      4.202      6.548
REMARK INTER + INTRA:         -11.370
REMARK INTER:                  -9.995
REMARK INTRA:                  -1.375
REMARK CONF_INDEPENDENT:        2.088
REMARK UNBOUND:                -1.375
REMARK  7 active torsions:
REMARK  status: ('A' for Active; 'I' for Inactive)
REMARK    1  A    between atoms: C_5  and  N_6 
REMARK       I    between atoms: N_6  and  C_7 
REMARK    2  A    between atoms: C_7  and  C_9 
REMARK    3  A    between atoms: C_9  and  N_10 
REMARK    4  A    between atoms: N_10  and  C_11 
REMARK    5  A    between atoms: C_14  and  C_15 
REMARK       I    between atoms: C_15  and  N_17 
REMARK    6  A    between atoms: N_17  and  C_18 
REMARK    7  A    between atoms: C_18  and  C_19 
ROOT
ATOM      1  C   UNL d   1      27.017 -16.989  -0.015  0.00  0.00     0.028 A 
ATOM      2  C   UNL d   1      26.307 -18.013   0.607  0.00  0.00     0.030 A 
ATOM      3  C   UNL d   1      24.936 -18.201   0.388  0.00  0.00     0.019 A 
ATOM      4  C   UNL d   1      24.229 -17.377  -0.494  0.00  0.00     0.032 A 
ATOM      5  C   UNL d   1      24.936 -16.344  -1.130  0.00  0.00     0.019 A 
ATOM      6  C   UNL d   1      26.311 -16.148  -0.882  0.00  0.00     0.030 A 
ENDROOT
BRANCH   1   7
ATOM      7  N   UNL d   1      28.372 -16.852   0.163  0.00  0.00    -0.381 N 
ATOM      8  H   UNL d   1      28.734 -16.419   1.015  0.00  0.00     0.160 HD
BRANCH   7   9
ATOM      9  C   UNL d   1      29.391 -17.194  -0.844  0.00  0.00     0.223 C 
BRANCH   9  10
ATOM     10  C   UNL d   1      29.388 -16.101  -1.927  0.00  0.00     0.239 C 
ATOM     11  N   UNL d   1      28.516 -16.272  -3.007  0.00  0.00    -0.326 N 
ATOM     12  H   UNL d   1      27.912 -17.085  -3.029  0.00  0.00     0.169 HD
ATOM     13  O   UNL d   1      30.155 -15.146  -1.771  0.00  0.00    -0.271 OA
BRANCH  11  14
ATOM     14  C   UNL d   1      28.395 -15.352  -4.094  0.00  0.00     0.034 A 
ATOM     15  C   UNL d   1      27.588 -14.208  -3.992  0.00  0.00     0.030 A 
ATOM     16  C   UNL d   1      27.494 -13.299  -5.071  0.00  0.00     0.009 A 
ATOM     17  C   UNL d   1      28.200 -13.519  -6.260  0.00  0.00    -0.062 A 
ATOM     18  C   UNL d   1      28.155 -12.582  -7.427  0.00  0.00     0.048 C 
ATOM     19  C   UNL d   1      28.987 -14.658  -6.361  0.00  0.00     0.009 A 
ATOM     20  C   UNL d   1      29.074 -15.550  -5.298  0.00  0.00     0.030 A 
ENDBRANCH  11  14
ENDBRANCH   9  10
ENDBRANCH   7   9
ENDBRANCH   1   7
BRANCH   4  21
ATOM     21  C   UNL d   1      22.763 -17.566  -0.785  0.00  0.00     0.251 C 
ATOM     22  O   UNL d   1      22.015 -16.588  -0.860  0.00  0.00    -0.268 OA
ATOM     23  N   UNL d   1      22.301 -18.850  -0.974  0.00  0.00    -0.351 N 
ATOM     24  H   UNL d   1      22.919 -19.640  -0.890  0.00  0.00     0.163 HD
BRANCH  23  25
ATOM     25  C   UNL d   1      20.906 -19.154  -1.271  0.00  0.00     0.187 C 
BRANCH  25  26
ATOM     26  C   UNL d   1      20.244 -19.550   0.004  0.00  0.00     0.070 A 
ATOM     27  C   UNL d   1      19.039 -20.180   0.239  0.00  0.00     0.036 A 
ATOM     28  C   UNL d   1      18.948 -20.384   1.632  0.00  0.00     0.027 A 
ATOM     29  C   UNL d   1      20.080 -19.823   2.175  0.00  0.00     0.142 A 
ATOM     30  O   UNL d   1      20.880 -19.315   1.192  0.00  0.00    -0.325 OA
ENDBRANCH  25  26
ENDBRANCH  23  25
ENDBRANCH   4  21
TORSDOF 7
ENDMDL
MODEL 7
REMARK VINA RESULT:    -7.878      4.946      7.680
REMARK INTER + INTRA:         -11.574
REMARK INTER:                  -9.966
REMARK INTRA:                  -1.609
REMARK CONF_INDEPENDENT:        2.088
REMARK UNBOUND:                -1.609
REMARK  7 active torsions:
REMARK  status: ('A' for Active; 'I' for Inactive)
REMARK    1  A    between atoms: C_5  and  N_6 
REMARK       I    between atoms: N_6  and  C_7 
REMARK    2  A    between atoms: C_7  and  C_9 
REMARK    3  A    between atoms: C_9  and  N_10 
REMARK    4  A    between atoms: N_10  and  C_11 
REMARK    5  A    between atoms: C_14  and  C_15 
REMARK       I    between atoms: C_15  and  N_17 
REMARK    6  A    between atoms: N_17  and  C_18 
REMARK    7  A    between atoms: C_18  and  C_19 
ROOT
ATOM      1  C   UNL d   1      26.066 -14.040  -2.869  0.00  0.00     0.028 A 
ATOM      2  C   UNL d   1      27.023 -14.741  -2.139  0.00  0.00     0.030 A 
ATOM      3  C   UNL d   1      26.691 -15.869  -1.376  0.00  0.00     0.019 A 
ATOM      4  C   UNL d   1      25.380 -16.354  -1.343  0.00  0.00     0.032 A 
ATOM      5  C   UNL d   1      24.408 -15.658  -2.079  0.00  0.00     0.019 A 
ATOM      6  C   UNL d   1      24.749 -14.509  -2.823  0.00  0.00     0.030 A 
ENDROOT
BRANCH   1   7
ATOM      7  N   UNL d   1      26.415 -12.972  -3.659  0.00  0.00    -0.381 N 
ATOM      8  H   UNL d   1      26.438 -12.030  -3.263  0.00  0.00     0.160 HD
BRANCH   7   9
ATOM      9  C   UNL d   1      26.672 -13.046  -5.108  0.00  0.00     0.223 C 
BRANCH   9  10
ATOM     10  C   UNL d   1      27.390 -14.374  -5.406  0.00  0.00     0.239 C 
ATOM     11  N   UNL d   1      28.777 -14.405  -5.231  0.00  0.00    -0.326 N 
ATOM     12  H   UNL d   1      29.252 -13.573  -4.902  0.00  0.00     0.169 HD
ATOM     13  O   UNL d   1      26.693 -15.324  -5.777  0.00  0.00    -0.271 OA
BRANCH  11  14
ATOM     14  C   UNL d   1      29.590 -15.557  -5.467  0.00  0.00     0.034 A 
ATOM     15  C   UNL d   1      30.069 -16.338  -4.405  0.00  0.00     0.030 A 
ATOM     16  C   UNL d   1      30.858 -17.485  -4.658  0.00  0.00     0.009 A 
ATOM     17  C   UNL d   1      31.175 -17.864  -5.968  0.00  0.00    -0.062 A 
ATOM     18  C   UNL d   1      31.988 -19.079  -6.297  0.00  0.00     0.048 C 
ATOM     19  C   UNL d   1      30.709 -17.082  -7.015  0.00  0.00     0.009 A 
ATOM     20  C   UNL d   1      29.936 -15.954  -6.761  0.00  0.00     0.030 A 
ENDBRANCH  11  14
ENDBRANCH   9  10
ENDBRANCH   7   9
ENDBRANCH   1   7
BRANCH   4  21
ATOM     21  C   UNL d   1      24.987 -17.583  -0.565  0.00  0.00     0.251 C 
ATOM     22  O   UNL d   1      25.740 -18.037   0.298  0.00  0.00    -0.268 OA
ATOM     23  N   UNL d   1      23.768 -18.162  -0.844  0.00  0.00    -0.351 N 
ATOM     24  H   UNL d   1      23.172 -17.791  -1.565  0.00  0.00     0.163 HD
BRANCH  23  25
ATOM     25  C   UNL d   1      23.278 -19.347  -0.149  0.00  0.00     0.187 C 
BRANCH  25  26
ATOM     26  C   UNL d   1      21.791 -19.351  -0.250  0.00  0.00     0.070 A 
ATOM     27  C   UNL d   1      20.820 -19.387   0.730  0.00  0.00     0.036 A 
ATOM     28  C   UNL d   1      19.574 -19.287   0.076  0.00  0.00     0.027 A 
ATOM     29  C   UNL d   1      19.852 -19.246  -1.270  0.00  0.00     0.142 A 
ATOM     30  O   UNL d   1      21.200 -19.280  -1.481  0.00  0.00    -0.325 OA
ENDBRANCH  25  26
ENDBRANCH  23  25
ENDBRANCH   4  21
TORSDOF 7
ENDMDL
MODEL 8
REMARK VINA RESULT:    -7.631      3.058     10.283
REMARK INTER + INTRA:         -11.331
REMARK INTER:                  -9.719
REMARK INTRA:                  -1.612
REMARK CONF_INDEPENDENT:        2.088
REMARK UNBOUND:                -1.612
REMARK  7 active torsions:
REMARK  status: ('A' for Active; 'I' for Inactive)
REMARK    1  A    between atoms: C_5  and  N_6 
REMARK       I    between atoms: N_6  and  C_7 
REMARK    2  A    between atoms: C_7  and  C_9 
REMARK    3  A    between atoms: C_9  and  N_10 
REMARK    4  A    between atoms: N_10  and  C_11 
REMARK    5  A    between atoms: C_14  and  C_15 
REMARK       I    between atoms: C_15  and  N_17 
REMARK    6  A    between atoms: N_17  and  C_18 
REMARK    7  A    between atoms: C_18  and  C_19 
ROOT
ATOM      1  C   UNL d   1      28.986 -14.450   3.541  0.00  0.00     0.028 A 
ATOM      2  C   UNL d   1      27.756 -14.041   4.048  0.00  0.00     0.030 A 
ATOM      3  C   UNL d   1      27.590 -13.694   5.396  0.00  0.00     0.019 A 
ATOM      4  C   UNL d   1      28.671 -13.719   6.282  0.00  0.00     0.032 A 
ATOM      5  C   UNL d   1      29.918 -14.125   5.781  0.00  0.00     0.019 A 
ATOM      6  C   UNL d   1      30.067 -14.497   4.429  0.00  0.00     0.030 A 
ENDROOT
BRANCH   1   7
ATOM      7  N   UNL d   1      29.149 -14.731   2.206  0.00  0.00    -0.381 N 
ATOM      8  H   UNL d   1      29.772 -15.487   1.916  0.00  0.00     0.160 HD
BRANCH   7   9
ATOM      9  C   UNL d   1      28.562 -13.948   1.105  0.00  0.00     0.223 C 
BRANCH   9  10
ATOM     10  C   UNL d   1      27.192 -14.556   0.755  0.00  0.00     0.239 C 
ATOM     11  N   UNL d   1      27.181 -15.855   0.239  0.00  0.00    -0.326 N 
ATOM     12  H   UNL d   1      28.058 -16.351   0.132  0.00  0.00     0.169 HD
ATOM     13  O   UNL d   1      26.194 -13.856   0.955  0.00  0.00    -0.271 OA
BRANCH  11  14
ATOM     14  C   UNL d   1      25.995 -16.559  -0.138  0.00  0.00     0.034 A 
ATOM     15  C   UNL d   1      25.792 -17.895   0.241  0.00  0.00     0.030 A 
ATOM     16  C   UNL d   1      24.605 -18.570  -0.125  0.00  0.00     0.009 A 
ATOM     17  C   UNL d   1      23.611 -17.925  -0.870  0.00  0.00    -0.062 A 
ATOM     18  C   UNL d   1      22.325 -18.582  -1.269  0.00  0.00     0.048 C 
ATOM     19  C   UNL d   1      23.821 -16.608  -1.253  0.00  0.00     0.009 A 
ATOM     20  C   UNL d   1      24.992 -15.949  -0.893  0.00  0.00     0.030 A 
ENDBRANCH  11  14
ENDBRANCH   9  10
ENDBRANCH   7   9
ENDBRANCH   1   7
BRANCH   4  21
ATOM     21  C   UNL d   1      28.545 -13.320   7.730  0.00  0.00     0.251 C 
ATOM     22  O   UNL d   1      28.154 -12.190   8.030  0.00  0.00    -0.268 OA
ATOM     23  N   UNL d   1      28.867 -14.255   8.689  0.00  0.00    -0.351 N 
ATOM     24  H   UNL d   1      29.204 -15.167   8.429  0.00  0.00     0.163 HD
BRANCH  23  25
ATOM     25  C   UNL d   1      28.775 -13.986  10.120  0.00  0.00     0.187 C 
BRANCH  25  26
ATOM     26  C   UNL d   1      29.795 -14.827  10.808  0.00  0.00     0.070 A 
ATOM     27  C   UNL d   1      30.510 -14.611  11.968  0.00  0.00     0.036 A 
ATOM     28  C   UNL d   1      31.276 -15.773  12.200  0.00  0.00     0.027 A 
ATOM     29  C   UNL d   1      31.024 -16.613  11.141  0.00  0.00     0.142 A 
ATOM     30  O   UNL d   1      30.120 -16.050  10.288  0.00  0.00    -0.325 OA
ENDBRANCH  25  26
ENDBRANCH  23  25
ENDBRANCH   4  21
TORSDOF 7
ENDMDL
MODEL 9
REMARK VINA RESULT:    -7.451      2.064      2.701
REMARK INTER + INTRA:         -11.206
REMARK INTER:                  -9.539
REMARK INTRA:                  -1.667
REMARK CONF_INDEPENDENT:        2.088
REMARK UNBOUND:                -1.667
REMARK  7 active torsions:
REMARK  status: ('A' for Active; 'I' for Inactive)
REMARK    1  A    between atoms: C_5  and  N_6 
REMARK       I    between atoms: N_6  and  C_7 
REMARK    2  A    between atoms: C_7  and  C_9 
REMARK    3  A    between atoms: C_9  and  N_10 
REMARK    4  A    between atoms: N_10  and  C_11 
REMARK    5  A    between atoms: C_14  and  C_15 
REMARK       I    between atoms: C_15  and  N_17 
REMARK    6  A    between atoms: N_17  and  C_18 
REMARK    7  A    between atoms: C_18  and  C_19 
ROOT
ATOM      1  C   UNL d   1      26.441 -16.672   0.170  0.00  0.00     0.028 A 
ATOM      2  C   UNL d   1      26.070 -17.919   0.666  0.00  0.00     0.030 A 
ATOM      3  C   UNL d   1      24.911 -18.575   0.229  0.00  0.00     0.019 A 
ATOM      4  C   UNL d   1      24.092 -18.008  -0.752  0.00  0.00     0.032 A 
ATOM      5  C   UNL d   1      24.457 -16.752  -1.263  0.00  0.00     0.019 A 
ATOM      6  C   UNL d   1      25.613 -16.090  -0.797  0.00  0.00     0.030 A 
ENDROOT
BRANCH   1   7
ATOM      7  N   UNL d   1      27.609 -16.067   0.563  0.00  0.00    -0.381 N 
ATOM      8  H   UNL d   1      28.160 -16.467   1.325  0.00  0.00     0.160 HD
BRANCH   7   9
ATOM      9  C   UNL d   1      28.114 -14.788   0.033  0.00  0.00     0.223 C 
BRANCH   9  10
ATOM     10  C   UNL d   1      28.188 -13.779   1.192  0.00  0.00     0.239 C 
ATOM     11  N   UNL d   1      27.771 -12.470   0.929  0.00  0.00    -0.326 N 
ATOM     12  H   UNL d   1      27.423 -12.240   0.006  0.00  0.00     0.169 HD
ATOM     13  O   UNL d   1      28.610 -14.192   2.277  0.00  0.00    -0.271 OA
BRANCH  11  14
ATOM     14  C   UNL d   1      27.780 -11.416   1.894  0.00  0.00     0.034 A 
ATOM     15  C   UNL d   1      27.337 -10.126   1.565  0.00  0.00     0.030 A 
ATOM     16  C   UNL d   1      27.337  -9.099   2.537  0.00  0.00     0.009 A 
ATOM     17  C   UNL d   1      27.776  -9.346   3.843  0.00  0.00    -0.062 A 
ATOM     18  C   UNL d   1      27.778  -8.304   4.920  0.00  0.00     0.048 C 
ATOM     19  C   UNL d   1      28.224 -10.620   4.162  0.00  0.00     0.009 A 
ATOM     20  C   UNL d   1      28.225 -11.625   3.201  0.00  0.00     0.030 A 
ENDBRANCH  11  14
ENDBRANCH   9  10
ENDBRANCH   7   9
ENDBRANCH   1   7
BRANCH   4  21
ATOM     21  C   UNL d   1      22.857 -18.694  -1.276  0.00  0.00     0.251 C 
ATOM     22  O   UNL d   1      22.900 -19.326  -2.333  0.00  0.00    -0.268 OA
ATOM     23  N   UNL d   1      21.699 -18.598  -0.533  0.00  0.00    -0.351 N 
ATOM     24  H   UNL d   1      21.674 -18.061   0.318  0.00  0.00     0.163 HD
BRANCH  23  25
ATOM     25  C   UNL d   1      20.447 -19.227  -0.935  0.00  0.00     0.187 C 
BRANCH  25  26
ATOM     26  C   UNL d   1      19.789 -19.758   0.292  0.00  0.00     0.070 A 
ATOM     27  C   UNL d   1      18.722 -20.620   0.444  0.00  0.00     0.036 A 
ATOM     28  C   UNL d   1      18.575 -20.848   1.828  0.00  0.00     0.027 A 
ATOM     29  C   UNL d   1      19.529 -20.074   2.447  0.00  0.00     0.142 A 
ATOM     30  O   UNL d   1      20.278 -19.408   1.521  0.00  0.00    -0.325 OA
ENDBRANCH  25  26
ENDBRANCH  23  25
ENDBRANCH   4  21
TORSDOF 7
ENDMDL
